MODEL 1
REMARK VINA RESULT:      -5.6      0.000      0.000
REMARK  Name = 5270525
REMARK  4 active torsions:
REMARK  status: ('A' for Active; 'I' for Inactive)
REMARK    1  A    between atoms: N_1  and  C1*_12
REMARK    2  A    between atoms: C3*_11  and  O3*_15
REMARK    3  A    between atoms: C4*_14  and  C5*_17
REMARK    4  A    between atoms: C5*_17  and  O5*_18
REMARK                            x       y       z     vdW  Elec       q    Type
REMARK                         _______ _______ _______ _____ _____    ______ ____
ROOT
ATOM      1  N   UNL     1     -37.393  25.397   3.406  0.00  0.00    -0.160 N 
ATOM      2  N   UNL     1     -38.251  24.533   3.983  0.00  0.00    -0.041 NA
ATOM      3  N   UNL     1     -39.439  24.693   3.401  0.00  0.00    -0.138 NA
ATOM      4  N   UNL     1     -37.493  27.082   1.652  0.00  0.00    -0.227 NA
ATOM      5  N   UNL     1     -39.747  27.215   0.718  0.00  0.00    -0.229 NA
ATOM      6  C   UNL     1     -38.013  26.129   2.439  0.00  0.00    +0.172 C 
ATOM      7  C   UNL     1     -39.315  25.667   2.451  0.00  0.00    +0.165 C 
ATOM      8  C   UNL     1     -40.200  26.244   1.550  0.00  0.00    +0.145 C 
ATOM      9  C   UNL     1     -38.440  27.569   0.821  0.00  0.00    +0.253 C 
ATOM     10  N   UNL     1     -41.543  25.836   1.497  0.00  0.00    -0.342 N 
ATOM     11  H   UNL     1     -42.159  26.254   0.853  0.00  0.00    +0.144 HD
ATOM     12  H   UNL     1     -41.868  25.133   2.105  0.00  0.00    +0.144 HD
ENDROOT
BRANCH   1  15
ATOM     13  O4* UNL     1     -35.420  24.143   3.807  0.00  0.00    -0.334 OA
ATOM     14  C3* UNL     1     -34.484  25.365   5.628  0.00  0.00    +0.144 C 
ATOM     15  C1* UNL     1     -36.000  25.459   3.833  0.00  0.00    +0.216 C 
ATOM     16  C2* UNL     1     -35.801  25.998   5.242  0.00  0.00    +0.084 C 
ATOM     17  C4* UNL     1     -34.539  24.002   4.943  0.00  0.00    +0.173 C 
BRANCH  14  18
ATOM     18  O3* UNL     1     -33.428  26.140   5.064  0.00  0.00    -0.382 OA
ATOM     19  H3* UNL     1     -32.653  25.574   4.921  0.00  0.00    +0.210 HD
ENDBRANCH  14  18
BRANCH  17  20
ATOM     20  C5* UNL     1     -35.104  22.914   5.845  0.00  0.00    +0.169 C 
BRANCH  20  21
ATOM     21  O5* UNL     1     -36.266  22.379   5.237  0.00  0.00    -0.379 OA
ATOM     22  H5* UNL     1     -36.351  22.729   4.337  0.00  0.00    +0.211 HD
ENDBRANCH  20  21
ENDBRANCH  17  20
ENDBRANCH   1  15
TORSDOF 4
ENDMDL
MODEL 2
REMARK VINA RESULT:      -5.5      3.589      5.081
REMARK  Name = 5270525
REMARK  4 active torsions:
REMARK  status: ('A' for Active; 'I' for Inactive)
REMARK    1  A    between atoms: N_1  and  C1*_12
REMARK    2  A    between atoms: C3*_11  and  O3*_15
REMARK    3  A    between atoms: C4*_14  and  C5*_17
REMARK    4  A    between atoms: C5*_17  and  O5*_18
REMARK                            x       y       z     vdW  Elec       q    Type
REMARK                         _______ _______ _______ _____ _____    ______ ____
ROOT
ATOM      1  N   UNL     1     -34.568  25.890   4.486  0.00  0.00    -0.160 N 
ATOM      2  N   UNL     1     -33.614  25.795   5.433  0.00  0.00    -0.041 NA
ATOM      3  N   UNL     1     -32.806  26.847   5.301  0.00  0.00    -0.138 NA
ATOM      4  N   UNL     1     -35.134  27.438   2.696  0.00  0.00    -0.227 NA
ATOM      5  N   UNL     1     -33.539  29.288   2.626  0.00  0.00    -0.229 NA
ATOM      6  C   UNL     1     -34.393  27.006   3.726  0.00  0.00    +0.172 C 
ATOM      7  C   UNL     1     -33.267  27.602   4.260  0.00  0.00    +0.165 C 
ATOM      8  C   UNL     1     -32.840  28.787   3.675  0.00  0.00    +0.145 C 
ATOM      9  C   UNL     1     -34.627  28.592   2.208  0.00  0.00    +0.253 C 
ATOM     10  N   UNL     1     -31.701  29.458   4.152  0.00  0.00    -0.342 N 
ATOM     11  H   UNL     1     -31.410  30.296   3.727  0.00  0.00    +0.144 HD
ATOM     12  H   UNL     1     -31.195  29.088   4.911  0.00  0.00    +0.144 HD
ENDROOT
BRANCH   1  15
ATOM     13  O4* UNL     1     -35.760  24.187   5.629  0.00  0.00    -0.334 OA
ATOM     14  C3* UNL     1     -36.139  22.644   3.852  0.00  0.00    +0.144 C 
ATOM     15  C1* UNL     1     -35.609  24.875   4.375  0.00  0.00    +0.216 C 
ATOM     16  C2* UNL     1     -35.337  23.810   3.322  0.00  0.00    +0.084 C 
ATOM     17  C4* UNL     1     -36.004  22.789   5.365  0.00  0.00    +0.173 C 
BRANCH  14  18
ATOM     18  O3* UNL     1     -37.502  22.825   3.474  0.00  0.00    -0.382 OA
ATOM     19  H3* UNL     1     -37.663  22.380   2.627  0.00  0.00    +0.210 HD
ENDBRANCH  14  18
BRANCH  17  20
ATOM     20  C5* UNL     1     -34.838  21.991   5.930  0.00  0.00    +0.169 C 
BRANCH  20  21
ATOM     21  O5* UNL     1     -35.149  20.611   5.844  0.00  0.00    -0.379 OA
ATOM     22  H5* UNL     1     -35.307  20.372   4.918  0.00  0.00    +0.211 HD
ENDBRANCH  20  21
ENDBRANCH  17  20
ENDBRANCH   1  15
TORSDOF 4
ENDMDL
MODEL 3
REMARK VINA RESULT:      -5.5      2.929      3.414
REMARK  Name = 5270525
REMARK  4 active torsions:
REMARK  status: ('A' for Active; 'I' for Inactive)
REMARK    1  A    between atoms: N_1  and  C1*_12
REMARK    2  A    between atoms: C3*_11  and  O3*_15
REMARK    3  A    between atoms: C4*_14  and  C5*_17
REMARK    4  A    between atoms: C5*_17  and  O5*_18
REMARK                            x       y       z     vdW  Elec       q    Type
REMARK                         _______ _______ _______ _____ _____    ______ ____
ROOT
ATOM      1  N   UNL     1     -37.383  23.443   2.983  0.00  0.00    -0.160 N 
ATOM      2  N   UNL     1     -38.520  24.101   3.283  0.00  0.00    -0.041 NA
ATOM      3  N   UNL     1     -39.508  23.542   2.585  0.00  0.00    -0.138 NA
ATOM      4  N   UNL     1     -36.742  21.582   1.552  0.00  0.00    -0.227 NA
ATOM      5  N   UNL     1     -38.689  20.702   0.367  0.00  0.00    -0.229 NA
ATOM      6  C   UNL     1     -37.617  22.446   2.086  0.00  0.00    +0.172 C 
ATOM      7  C   UNL     1     -38.975  22.524   1.844  0.00  0.00    +0.165 C 
ATOM      8  C   UNL     1     -39.513  21.609   0.948  0.00  0.00    +0.145 C 
ATOM      9  C   UNL     1     -37.374  20.745   0.700  0.00  0.00    +0.253 C 
ATOM     10  N   UNL     1     -40.884  21.621   0.642  0.00  0.00    -0.342 N 
ATOM     11  H   UNL     1     -41.251  20.967   0.005  0.00  0.00    +0.144 HD
ATOM     12  H   UNL     1     -41.476  22.284   1.064  0.00  0.00    +0.144 HD
ENDROOT
BRANCH   1  15
ATOM     13  O4* UNL     1     -35.428  22.659   4.073  0.00  0.00    -0.334 OA
ATOM     14  C3* UNL     1     -34.995  24.470   5.562  0.00  0.00    +0.144 C 
ATOM     15  C1* UNL     1     -36.118  23.828   3.597  0.00  0.00    +0.216 C 
ATOM     16  C2* UNL     1     -36.258  24.767   4.787  0.00  0.00    +0.084 C 
ATOM     17  C4* UNL     1     -34.787  22.976   5.327  0.00  0.00    +0.173 C 
BRANCH  14  18
ATOM     18  O3* UNL     1     -33.922  25.200   4.972  0.00  0.00    -0.382 OA
ATOM     19  H3* UNL     1     -33.676  25.937   5.553  0.00  0.00    +0.210 HD
ENDBRANCH  14  18
BRANCH  17  20
ATOM     20  C5* UNL     1     -35.422  22.118   6.412  0.00  0.00    +0.169 C 
BRANCH  20  21
ATOM     21  O5* UNL     1     -35.404  20.766   5.988  0.00  0.00    -0.379 OA
ATOM     22  H5* UNL     1     -35.166  20.196   6.736  0.00  0.00    +0.211 HD
ENDBRANCH  20  21
ENDBRANCH  17  20
ENDBRANCH   1  15
TORSDOF 4
ENDMDL
MODEL 4
REMARK VINA RESULT:      -5.5      3.387      6.218
REMARK  Name = 5270525
REMARK  4 active torsions:
REMARK  status: ('A' for Active; 'I' for Inactive)
REMARK    1  A    between atoms: N_1  and  C1*_12
REMARK    2  A    between atoms: C3*_11  and  O3*_15
REMARK    3  A    between atoms: C4*_14  and  C5*_17
REMARK    4  A    between atoms: C5*_17  and  O5*_18
REMARK                            x       y       z     vdW  Elec       q    Type
REMARK                         _______ _______ _______ _____ _____    ______ ____
ROOT
ATOM      1  N   UNL     1     -37.622  23.600   2.906  0.00  0.00    -0.160 N 
ATOM      2  N   UNL     1     -37.518  24.377   4.001  0.00  0.00    -0.041 NA
ATOM      3  N   UNL     1     -36.652  23.795   4.830  0.00  0.00    -0.138 NA
ATOM      4  N   UNL     1     -36.660  21.505   2.126  0.00  0.00    -0.227 NA
ATOM      5  N   UNL     1     -35.105  20.607   3.783  0.00  0.00    -0.229 NA
ATOM      6  C   UNL     1     -36.824  22.501   3.008  0.00  0.00    +0.172 C 
ATOM      7  C   UNL     1     -36.215  22.643   4.239  0.00  0.00    +0.165 C 
ATOM      8  C   UNL     1     -35.325  21.648   4.623  0.00  0.00    +0.145 C 
ATOM      9  C   UNL     1     -35.777  20.600   2.604  0.00  0.00    +0.253 C 
ATOM     10  N   UNL     1     -34.664  21.711   5.862  0.00  0.00    -0.342 N 
ATOM     11  H   UNL     1     -34.036  20.999   6.121  0.00  0.00    +0.144 HD
ATOM     12  H   UNL     1     -34.830  22.467   6.470  0.00  0.00    +0.144 HD
ENDROOT
BRANCH   1  15
ATOM     13  O4* UNL     1     -38.737  25.396   1.830  0.00  0.00    -0.334 OA
ATOM     14  C3* UNL     1     -40.717  24.301   1.078  0.00  0.00    +0.144 C 
ATOM     15  C1* UNL     1     -38.504  23.977   1.807  0.00  0.00    +0.216 C 
ATOM     16  C2* UNL     1     -39.871  23.308   1.843  0.00  0.00    +0.084 C 
ATOM     17  C4* UNL     1     -40.113  25.646   1.470  0.00  0.00    +0.173 C 
BRANCH  14  18
ATOM     18  O3* UNL     1     -40.522  24.078  -0.317  0.00  0.00    -0.382 OA
ATOM     19  H3* UNL     1     -39.579  24.166  -0.529  0.00  0.00    +0.210 HD
ENDBRANCH  14  18
BRANCH  17  20
ATOM     20  C5* UNL     1     -40.808  26.275   2.669  0.00  0.00    +0.169 C 
BRANCH  20  21
ATOM     21  O5* UNL     1     -39.830  26.586   3.648  0.00  0.00    -0.379 OA
ATOM     22  H5* UNL     1     -40.188  26.405   4.531  0.00  0.00    +0.211 HD
ENDBRANCH  20  21
ENDBRANCH  17  20
ENDBRANCH   1  15
TORSDOF 4
ENDMDL
MODEL 5
REMARK VINA RESULT:      -5.4      3.563      4.616
REMARK  Name = 5270525
REMARK  4 active torsions:
REMARK  status: ('A' for Active; 'I' for Inactive)
REMARK    1  A    between atoms: N_1  and  C1*_12
REMARK    2  A    between atoms: C3*_11  and  O3*_15
REMARK    3  A    between atoms: C4*_14  and  C5*_17
REMARK    4  A    between atoms: C5*_17  and  O5*_18
REMARK                            x       y       z     vdW  Elec       q    Type
REMARK                         _______ _______ _______ _____ _____    ______ ____
ROOT
ATOM      1  N   UNL     1     -36.303  22.820   3.380  0.00  0.00    -0.160 N 
ATOM      2  N   UNL     1     -35.474  21.918   3.939  0.00  0.00    -0.041 NA
ATOM      3  N   UNL     1     -35.582  20.785   3.245  0.00  0.00    -0.138 NA
ATOM      4  N   UNL     1     -37.862  22.871   1.512  0.00  0.00    -0.227 NA
ATOM      5  N   UNL     1     -37.910  20.708   0.377  0.00  0.00    -0.229 NA
ATOM      6  C   UNL     1     -36.962  22.286   2.315  0.00  0.00    +0.172 C 
ATOM      7  C   UNL     1     -36.489  20.990   2.244  0.00  0.00    +0.165 C 
ATOM      8  C   UNL     1     -36.995  20.186   1.230  0.00  0.00    +0.145 C 
ATOM      9  C   UNL     1     -38.282  21.999   0.569  0.00  0.00    +0.253 C 
ATOM     10  N   UNL     1     -36.572  18.854   1.088  0.00  0.00    -0.342 N 
ATOM     11  H   UNL     1     -36.938  18.296   0.365  0.00  0.00    +0.144 HD
ATOM     12  H   UNL     1     -35.909  18.479   1.712  0.00  0.00    +0.144 HD
ENDROOT
BRANCH   1  15
ATOM     13  O4* UNL     1     -35.744  25.102   3.052  0.00  0.00    -0.334 OA
ATOM     14  C3* UNL     1     -35.456  25.815   5.309  0.00  0.00    +0.144 C 
ATOM     15  C1* UNL     1     -36.408  24.170   3.923  0.00  0.00    +0.216 C 
ATOM     16  C2* UNL     1     -35.786  24.340   5.302  0.00  0.00    +0.084 C 
ATOM     17  C4* UNL     1     -35.069  26.091   3.859  0.00  0.00    +0.173 C 
BRANCH  14  18
ATOM     18  O3* UNL     1     -36.641  26.540   5.633  0.00  0.00    -0.382 OA
ATOM     19  H3* UNL     1     -37.184  26.014   6.242  0.00  0.00    +0.210 HD
ENDBRANCH  14  18
BRANCH  17  20
ATOM     20  C5* UNL     1     -33.573  25.958   3.616  0.00  0.00    +0.169 C 
BRANCH  20  21
ATOM     21  O5* UNL     1     -32.882  26.529   4.714  0.00  0.00    -0.379 OA
ATOM     22  H5* UNL     1     -33.400  27.265   5.074  0.00  0.00    +0.211 HD
ENDBRANCH  20  21
ENDBRANCH  17  20
ENDBRANCH   1  15
TORSDOF 4
ENDMDL
MODEL 6
REMARK VINA RESULT:      -5.3      3.618      6.112
REMARK  Name = 5270525
REMARK  4 active torsions:
REMARK  status: ('A' for Active; 'I' for Inactive)
REMARK    1  A    between atoms: N_1  and  C1*_12
REMARK    2  A    between atoms: C3*_11  and  O3*_15
REMARK    3  A    between atoms: C4*_14  and  C5*_17
REMARK    4  A    between atoms: C5*_17  and  O5*_18
REMARK                            x       y       z     vdW  Elec       q    Type
REMARK                         _______ _______ _______ _____ _____    ______ ____
ROOT
ATOM      1  N   UNL     1     -37.628  23.795   3.166  0.00  0.00    -0.160 N 
ATOM      2  N   UNL     1     -37.372  24.545   4.255  0.00  0.00    -0.041 NA
ATOM      3  N   UNL     1     -36.471  23.896   4.991  0.00  0.00    -0.138 NA
ATOM      4  N   UNL     1     -36.879  21.658   2.274  0.00  0.00    -0.227 NA
ATOM      5  N   UNL     1     -35.236  20.636   3.766  0.00  0.00    -0.229 NA
ATOM      6  C   UNL     1     -36.896  22.647   3.179  0.00  0.00    +0.172 C 
ATOM      7  C   UNL     1     -36.165  22.729   4.349  0.00  0.00    +0.165 C 
ATOM      8  C   UNL     1     -35.309  21.674   4.635  0.00  0.00    +0.145 C 
ATOM      9  C   UNL     1     -36.014  20.692   2.656  0.00  0.00    +0.253 C 
ATOM     10  N   UNL     1     -34.532  21.674   5.806  0.00  0.00    -0.342 N 
ATOM     11  H   UNL     1     -33.929  20.920   5.996  0.00  0.00    +0.144 HD
ATOM     12  H   UNL     1     -34.591  22.429   6.435  0.00  0.00    +0.144 HD
ENDROOT
BRANCH   1  15
ATOM     13  O4* UNL     1     -39.762  23.422   2.198  0.00  0.00    -0.334 OA
ATOM     14  C3* UNL     1     -39.342  24.064  -0.059  0.00  0.00    +0.144 C 
ATOM     15  C1* UNL     1     -38.583  24.246   2.160  0.00  0.00    +0.216 C 
ATOM     16  C2* UNL     1     -38.060  24.195   0.732  0.00  0.00    +0.084 C 
ATOM     17  C4* UNL     1     -40.223  23.209   0.847  0.00  0.00    +0.173 C 
BRANCH  14  18
ATOM     18  O3* UNL     1     -39.918  25.361  -0.200  0.00  0.00    -0.382 OA
ATOM     19  H3* UNL     1     -40.482  25.548   0.567  0.00  0.00    +0.210 HD
ENDBRANCH  14  18
BRANCH  17  20
ATOM     20  C5* UNL     1     -40.111  21.722   0.540  0.00  0.00    +0.169 C 
BRANCH  20  21
ATOM     21  O5* UNL     1     -39.999  21.014   1.762  0.00  0.00    -0.379 OA
ATOM     22  H5* UNL     1     -39.306  20.340   1.683  0.00  0.00    +0.211 HD
ENDBRANCH  20  21
ENDBRANCH  17  20
ENDBRANCH   1  15
TORSDOF 4
ENDMDL
MODEL 7
REMARK VINA RESULT:      -5.2      4.402      6.153
REMARK  Name = 5270525
REMARK  4 active torsions:
REMARK  status: ('A' for Active; 'I' for Inactive)
REMARK    1  A    between atoms: N_1  and  C1*_12
REMARK    2  A    between atoms: C3*_11  and  O3*_15
REMARK    3  A    between atoms: C4*_14  and  C5*_17
REMARK    4  A    between atoms: C5*_17  and  O5*_18
REMARK                            x       y       z     vdW  Elec       q    Type
REMARK                         _______ _______ _______ _____ _____    ______ ____
ROOT
ATOM      1  N   UNL     1     -33.697  26.666   5.088  0.00  0.00    -0.160 N 
ATOM      2  N   UNL     1     -33.303  26.457   6.359  0.00  0.00    -0.041 NA
ATOM      3  N   UNL     1     -32.331  27.328   6.630  0.00  0.00    -0.138 NA
ATOM      4  N   UNL     1     -33.091  28.169   3.273  0.00  0.00    -0.227 NA
ATOM      5  N   UNL     1     -31.301  29.678   3.971  0.00  0.00    -0.229 NA
ATOM      6  C   UNL     1     -32.986  27.676   4.515  0.00  0.00    +0.172 C 
ATOM      7  C   UNL     1     -32.122  28.085   5.512  0.00  0.00    +0.165 C 
ATOM      8  C   UNL     1     -31.254  29.126   5.209  0.00  0.00    +0.145 C 
ATOM      9  C   UNL     1     -32.203  29.171   3.093  0.00  0.00    +0.253 C 
ATOM     10  N   UNL     1     -30.339  29.602   6.163  0.00  0.00    -0.342 N 
ATOM     11  H   UNL     1     -29.730  30.340   5.934  0.00  0.00    +0.144 HD
ATOM     12  H   UNL     1     -30.307  29.196   7.059  0.00  0.00    +0.144 HD
ENDROOT
BRANCH   1  15
ATOM     13  O4* UNL     1     -35.550  25.252   5.534  0.00  0.00    -0.334 OA
ATOM     14  C3* UNL     1     -35.412  23.749   3.689  0.00  0.00    +0.144 C 
ATOM     15  C1* UNL     1     -34.759  25.859   4.497  0.00  0.00    +0.216 C 
ATOM     16  C2* UNL     1     -34.264  24.728   3.606  0.00  0.00    +0.084 C 
ATOM     17  C4* UNL     1     -35.909  23.916   5.122  0.00  0.00    +0.173 C 
BRANCH  14  18
ATOM     18  O3* UNL     1     -36.428  24.168   2.780  0.00  0.00    -0.382 OA
ATOM     19  H3* UNL     1     -36.928  23.394   2.476  0.00  0.00    +0.210 HD
ENDBRANCH  14  18
BRANCH  17  20
ATOM     20  C5* UNL     1     -35.259  22.934   6.086  0.00  0.00    +0.169 C 
BRANCH  20  21
ATOM     21  O5* UNL     1     -36.054  21.762   6.144  0.00  0.00    -0.379 OA
ATOM     22  H5* UNL     1     -35.960  21.267   5.316  0.00  0.00    +0.211 HD
ENDBRANCH  20  21
ENDBRANCH  17  20
ENDBRANCH   1  15
TORSDOF 4
ENDMDL
MODEL 8
REMARK VINA RESULT:      -5.2      3.686      4.329
REMARK  Name = 5270525
REMARK  4 active torsions:
REMARK  status: ('A' for Active; 'I' for Inactive)
REMARK    1  A    between atoms: N_1  and  C1*_12
REMARK    2  A    between atoms: C3*_11  and  O3*_15
REMARK    3  A    between atoms: C4*_14  and  C5*_17
REMARK    4  A    between atoms: C5*_17  and  O5*_18
REMARK                            x       y       z     vdW  Elec       q    Type
REMARK                         _______ _______ _______ _____ _____    ______ ____
ROOT
ATOM      1  N   UNL     1     -35.916  21.910   2.996  0.00  0.00    -0.160 N 
ATOM      2  N   UNL     1     -35.500  20.632   3.088  0.00  0.00    -0.041 NA
ATOM      3  N   UNL     1     -36.189  19.917   2.199  0.00  0.00    -0.138 NA
ATOM      4  N   UNL     1     -37.534  23.152   1.669  0.00  0.00    -0.227 NA
ATOM      5  N   UNL     1     -38.685  21.665   0.108  0.00  0.00    -0.229 NA
ATOM      6  C   UNL     1     -36.882  22.043   2.045  0.00  0.00    +0.172 C 
ATOM      7  C   UNL     1     -37.042  20.764   1.549  0.00  0.00    +0.165 C 
ATOM      8  C   UNL     1     -37.984  20.588   0.544  0.00  0.00    +0.145 C 
ATOM      9  C   UNL     1     -38.420  22.862   0.690  0.00  0.00    +0.253 C 
ATOM     10  N   UNL     1     -38.214  19.320  -0.015  0.00  0.00    -0.342 N 
ATOM     11  H   UNL     1     -38.885  19.210  -0.727  0.00  0.00    +0.144 HD
ATOM     12  H   UNL     1     -37.705  18.541   0.307  0.00  0.00    +0.144 HD
ENDROOT
BRANCH   1  15
ATOM     13  O4* UNL     1     -36.365  23.530   4.670  0.00  0.00    -0.334 OA
ATOM     14  C3* UNL     1     -34.781  25.215   4.090  0.00  0.00    +0.144 C 
ATOM     15  C1* UNL     1     -35.340  22.943   3.849  0.00  0.00    +0.216 C 
ATOM     16  C2* UNL     1     -34.678  24.085   3.091  0.00  0.00    +0.084 C 
ATOM     17  C4* UNL     1     -36.115  24.948   4.781  0.00  0.00    +0.173 C 
BRANCH  14  18
ATOM     18  O3* UNL     1     -33.719  25.080   5.034  0.00  0.00    -0.382 OA
ATOM     19  H3* UNL     1     -33.061  25.776   4.879  0.00  0.00    +0.210 HD
ENDBRANCH  14  18
BRANCH  17  20
ATOM     20  C5* UNL     1     -37.273  25.684   4.124  0.00  0.00    +0.169 C 
BRANCH  20  21
ATOM     21  O5* UNL     1     -38.387  24.810   4.057  0.00  0.00    -0.379 OA
ATOM     22  H5* UNL     1     -38.088  23.924   3.798  0.00  0.00    +0.211 HD
ENDBRANCH  20  21
ENDBRANCH  17  20
ENDBRANCH   1  15
TORSDOF 4
ENDMDL
MODEL 9
REMARK VINA RESULT:      -5.1      4.018      5.459
REMARK  Name = 5270525
REMARK  4 active torsions:
REMARK  status: ('A' for Active; 'I' for Inactive)
REMARK    1  A    between atoms: N_1  and  C1*_12
REMARK    2  A    between atoms: C3*_11  and  O3*_15
REMARK    3  A    between atoms: C4*_14  and  C5*_17
REMARK    4  A    between atoms: C5*_17  and  O5*_18
REMARK                            x       y       z     vdW  Elec       q    Type
REMARK                         _______ _______ _______ _____ _____    ______ ____
ROOT
ATOM      1  N   UNL     1     -33.231  27.528   4.432  0.00  0.00    -0.160 N 
ATOM      2  N   UNL     1     -33.277  26.954   5.649  0.00  0.00    -0.041 NA
ATOM      3  N   UNL     1     -34.406  26.249   5.722  0.00  0.00    -0.138 NA
ATOM      4  N   UNL     1     -34.637  27.580   2.446  0.00  0.00    -0.227 NA
ATOM      5  N   UNL     1     -36.646  26.230   2.783  0.00  0.00    -0.229 NA
ATOM      6  C   UNL     1     -34.329  27.203   3.696  0.00  0.00    +0.172 C 
ATOM      7  C   UNL     1     -35.066  26.388   4.533  0.00  0.00    +0.165 C 
ATOM      8  C   UNL     1     -36.266  25.893   4.041  0.00  0.00    +0.145 C 
ATOM      9  C   UNL     1     -35.820  27.042   2.075  0.00  0.00    +0.253 C 
ATOM     10  N   UNL     1     -37.079  25.060   4.827  0.00  0.00    -0.342 N 
ATOM     11  H   UNL     1     -37.927  24.717   4.465  0.00  0.00    +0.144 HD
ATOM     12  H   UNL     1     -36.801  24.821   5.741  0.00  0.00    +0.144 HD
ENDROOT
BRANCH   1  15
ATOM     13  O4* UNL     1     -30.868  27.737   4.425  0.00  0.00    -0.334 OA
ATOM     14  C3* UNL     1     -30.633  30.097   4.674  0.00  0.00    +0.144 C 
ATOM     15  C1* UNL     1     -32.104  28.370   4.050  0.00  0.00    +0.216 C 
ATOM     16  C2* UNL     1     -32.104  29.748   4.697  0.00  0.00    +0.084 C 
ATOM     17  C4* UNL     1     -29.953  28.749   4.898  0.00  0.00    +0.173 C 
BRANCH  14  18
ATOM     18  O3* UNL     1     -30.306  30.586   3.375  0.00  0.00    -0.382 OA
ATOM     19  H3* UNL     1     -30.234  29.840   2.758  0.00  0.00    +0.210 HD
ENDBRANCH  14  18
BRANCH  17  20
ATOM     20  C5* UNL     1     -29.665  28.475   6.367  0.00  0.00    +0.169 C 
BRANCH  20  21
ATOM     21  O5* UNL     1     -30.425  27.350   6.776  0.00  0.00    -0.379 OA
ATOM     22  H5* UNL     1     -29.828  26.647   7.073  0.00  0.00    +0.211 HD
ENDBRANCH  20  21
ENDBRANCH  17  20
ENDBRANCH   1  15
TORSDOF 4
ENDMDL
