MODEL 1
REMARK VINA RESULT:      -5.3      0.000      0.000
REMARK  Name = 191356
REMARK  8 active torsions:
REMARK  status: ('A' for Active; 'I' for Inactive)
REMARK    1  A    between atoms: N_2  and  C_6
REMARK    2  A    between atoms: C_3  and  C_16
REMARK    3  A    between atoms: C_5  and  O_9
REMARK    4  A    between atoms: C_5  and  C_11
REMARK    5  A    between atoms: C_11  and  C_13
REMARK    6  A    between atoms: C_13  and  O_14
REMARK    7  A    between atoms: C_16  and  N_17
REMARK    8  A    between atoms: C_16  and  C_21
REMARK                            x       y       z     vdW  Elec       q    Type
REMARK                         _______ _______ _______ _____ _____    ______ ____
ROOT
ATOM      1  O   UNL     1     -31.906  26.708   3.324  0.00  0.00    -0.277 OA
ATOM      2  N   UNL     1     -33.890  27.083   4.458  0.00  0.00    -0.305 N 
ATOM      3  C   UNL     1     -32.647  27.455   3.962  0.00  0.00    +0.202 C 
ATOM      4  H   UNL     1     -34.418  27.747   4.959  0.00  0.00    +0.149 HD
ENDROOT
BRANCH   2   6
ATOM      5  C   UNL     1     -35.980  25.625   4.421  0.00  0.00    +0.115 C 
ATOM      6  C   UNL     1     -34.449  25.733   4.264  0.00  0.00    +0.097 C 
ATOM      7  C   UNL     1     -35.732  24.292   5.160  0.00  0.00    +0.031 C 
ATOM      8  C   UNL     1     -34.334  24.837   5.515  0.00  0.00    +0.024 C 
BRANCH   5   9
ATOM      9  O   UNL     1     -36.587  26.662   5.216  0.00  0.00    -0.385 OA
ATOM     10  H   UNL     1     -37.282  27.101   4.700  0.00  0.00    +0.210 HD
ENDBRANCH   5   9
BRANCH   5  11
ATOM     11  C   UNL     1     -36.779  25.471   3.148  0.00  0.00    +0.138 C 
BRANCH  11  13
ATOM     12  O   UNL     1     -38.817  24.185   3.471  0.00  0.00    -0.250 OA
ATOM     13  C   UNL     1     -38.259  25.266   3.369  0.00  0.00    +0.316 C 
BRANCH  13  14
ATOM     14  O   UNL     1     -38.902  26.459   3.441  0.00  0.00    -0.480 OA
ATOM     15  H   UNL     1     -38.500  27.230   3.091  0.00  0.00    +0.295 HD
ENDBRANCH  13  14
ENDBRANCH  11  13
ENDBRANCH   5  11
ENDBRANCH   2   6
BRANCH   3  16
ATOM     16  C   UNL     1     -32.283  28.899   4.299  0.00  0.00    +0.013 C 
BRANCH  16  17
ATOM     17  N   UNL     1     -33.440  29.724   3.945  0.00  0.00    +0.387 N 
ATOM     18  H   UNL     1     -34.180  29.129   3.572  0.00  0.00    -0.089 HD
ATOM     19  H   UNL     1     -33.167  30.409   3.240  0.00  0.00    -0.089 HD
ATOM     20  H   UNL     1     -33.780  30.208   4.776  0.00  0.00    -0.089 HD
ENDBRANCH  16  17
BRANCH  16  21
ATOM     21  C   UNL     1     -31.886  29.098   5.781  0.00  0.00    -0.011 C 
ATOM     22  C   UNL     1     -31.937  30.558   6.248  0.00  0.00    -0.002 C 
ATOM     23  C   UNL     1     -30.507  28.505   6.086  0.00  0.00    -0.002 C 
ENDBRANCH  16  21
ENDBRANCH   3  16
TORSDOF 8
ENDMDL
MODEL 2
REMARK VINA RESULT:      -5.3      2.870      4.059
REMARK  Name = 191356
REMARK  8 active torsions:
REMARK  status: ('A' for Active; 'I' for Inactive)
REMARK    1  A    between atoms: N_2  and  C_6
REMARK    2  A    between atoms: C_3  and  C_16
REMARK    3  A    between atoms: C_5  and  O_9
REMARK    4  A    between atoms: C_5  and  C_11
REMARK    5  A    between atoms: C_11  and  C_13
REMARK    6  A    between atoms: C_13  and  O_14
REMARK    7  A    between atoms: C_16  and  N_17
REMARK    8  A    between atoms: C_16  and  C_21
REMARK                            x       y       z     vdW  Elec       q    Type
REMARK                         _______ _______ _______ _____ _____    ______ ____
ROOT
ATOM      1  O   UNL     1     -34.145  24.692   2.505  0.00  0.00    -0.277 OA
ATOM      2  N   UNL     1     -35.132  24.589   4.597  0.00  0.00    -0.305 N 
ATOM      3  C   UNL     1     -34.793  25.220   3.407  0.00  0.00    +0.202 C 
ATOM      4  H   UNL     1     -35.654  25.089   5.266  0.00  0.00    +0.149 HD
ENDROOT
BRANCH   2   6
ATOM      5  C   UNL     1     -35.679  22.114   4.333  0.00  0.00    +0.115 C 
ATOM      6  C   UNL     1     -34.740  23.200   4.897  0.00  0.00    +0.097 C 
ATOM      7  C   UNL     1     -35.486  21.364   5.668  0.00  0.00    +0.031 C 
ATOM      8  C   UNL     1     -35.168  22.733   6.303  0.00  0.00    +0.024 C 
BRANCH   5   9
ATOM      9  O   UNL     1     -37.026  22.550   4.065  0.00  0.00    -0.385 OA
ATOM     10  H   UNL     1     -37.031  23.124   3.282  0.00  0.00    +0.210 HD
ENDBRANCH   5   9
BRANCH   5  11
ATOM     11  C   UNL     1     -35.178  21.347   3.131  0.00  0.00    +0.138 C 
BRANCH  11  13
ATOM     12  O   UNL     1     -36.615  21.495   1.174  0.00  0.00    -0.250 OA
ATOM     13  C   UNL     1     -36.269  20.903   2.185  0.00  0.00    +0.316 C 
BRANCH  13  14
ATOM     14  O   UNL     1     -36.827  19.741   2.609  0.00  0.00    -0.480 OA
ATOM     15  H   UNL     1     -36.603  18.933   2.191  0.00  0.00    +0.295 HD
ENDBRANCH  13  14
ENDBRANCH  11  13
ENDBRANCH   5  11
ENDBRANCH   2   6
BRANCH   3  16
ATOM     16  C   UNL     1     -35.303  26.658   3.334  0.00  0.00    +0.013 C 
BRANCH  16  17
ATOM     17  N   UNL     1     -35.884  26.971   4.641  0.00  0.00    +0.387 N 
ATOM     18  H   UNL     1     -35.285  27.637   5.128  0.00  0.00    -0.089 HD
ATOM     19  H   UNL     1     -35.962  26.117   5.193  0.00  0.00    -0.089 HD
ATOM     20  H   UNL     1     -36.810  27.379   4.513  0.00  0.00    -0.089 HD
ENDBRANCH  16  17
BRANCH  16  21
ATOM     21  C   UNL     1     -34.203  27.677   2.951  0.00  0.00    -0.011 C 
ATOM     22  C   UNL     1     -33.057  27.766   3.966  0.00  0.00    -0.002 C 
ATOM     23  C   UNL     1     -34.782  29.073   2.702  0.00  0.00    -0.002 C 
ENDBRANCH  16  21
ENDBRANCH   3  16
TORSDOF 8
ENDMDL
MODEL 3
REMARK VINA RESULT:      -5.3      4.238      5.935
REMARK  Name = 191356
REMARK  8 active torsions:
REMARK  status: ('A' for Active; 'I' for Inactive)
REMARK    1  A    between atoms: N_2  and  C_6
REMARK    2  A    between atoms: C_3  and  C_16
REMARK    3  A    between atoms: C_5  and  O_9
REMARK    4  A    between atoms: C_5  and  C_11
REMARK    5  A    between atoms: C_11  and  C_13
REMARK    6  A    between atoms: C_13  and  O_14
REMARK    7  A    between atoms: C_16  and  N_17
REMARK    8  A    between atoms: C_16  and  C_21
REMARK                            x       y       z     vdW  Elec       q    Type
REMARK                         _______ _______ _______ _____ _____    ______ ____
ROOT
ATOM      1  O   UNL     1     -36.540  23.837   2.740  0.00  0.00    -0.277 OA
ATOM      2  N   UNL     1     -35.498  21.848   3.306  0.00  0.00    -0.305 N 
ATOM      3  C   UNL     1     -36.101  23.066   3.593  0.00  0.00    +0.202 C 
ATOM      4  H   UNL     1     -35.174  21.293   4.052  0.00  0.00    +0.149 HD
ENDROOT
BRANCH   2   6
ATOM      5  C   UNL     1     -36.371  20.321   1.461  0.00  0.00    +0.115 C 
ATOM      6  C   UNL     1     -35.325  21.355   1.928  0.00  0.00    +0.097 C 
ATOM      7  C   UNL     1     -35.209  19.572   0.774  0.00  0.00    +0.031 C 
ATOM      8  C   UNL     1     -34.273  20.233   1.807  0.00  0.00    +0.024 C 
BRANCH   5   9
ATOM      9  O   UNL     1     -37.027  19.596   2.520  0.00  0.00    -0.385 OA
ATOM     10  H   UNL     1     -36.972  20.106   3.344  0.00  0.00    +0.210 HD
ENDBRANCH   5   9
BRANCH   5  11
ATOM     11  C   UNL     1     -37.424  20.817   0.498  0.00  0.00    +0.138 C 
BRANCH  11  13
ATOM     12  O   UNL     1     -39.846  20.686   0.674  0.00  0.00    -0.250 OA
ATOM     13  C   UNL     1     -38.775  21.054   1.131  0.00  0.00    +0.316 C 
BRANCH  13  14
ATOM     14  O   UNL     1     -38.646  21.742   2.293  0.00  0.00    -0.480 OA
ATOM     15  H   UNL     1     -38.364  22.636   2.280  0.00  0.00    +0.295 HD
ENDBRANCH  13  14
ENDBRANCH  11  13
ENDBRANCH   5  11
ENDBRANCH   2   6
BRANCH   3  16
ATOM     16  C   UNL     1     -36.156  23.362   5.090  0.00  0.00    +0.013 C 
BRANCH  16  17
ATOM     17  N   UNL     1     -35.817  22.117   5.783  0.00  0.00    +0.387 N 
ATOM     18  H   UNL     1     -35.056  22.289   6.439  0.00  0.00    -0.089 HD
ATOM     19  H   UNL     1     -35.525  21.416   5.101  0.00  0.00    -0.089 HD
ATOM     20  H   UNL     1     -36.633  21.777   6.291  0.00  0.00    -0.089 HD
ENDBRANCH  16  17
BRANCH  16  21
ATOM     21  C   UNL     1     -35.217  24.514   5.519  0.00  0.00    -0.011 C 
ATOM     22  C   UNL     1     -35.901  25.885   5.578  0.00  0.00    -0.002 C 
ATOM     23  C   UNL     1     -33.971  24.595   4.631  0.00  0.00    -0.002 C 
ENDBRANCH  16  21
ENDBRANCH   3  16
TORSDOF 8
ENDMDL
MODEL 4
REMARK VINA RESULT:      -5.2      3.075      6.274
REMARK  Name = 191356
REMARK  8 active torsions:
REMARK  status: ('A' for Active; 'I' for Inactive)
REMARK    1  A    between atoms: N_2  and  C_6
REMARK    2  A    between atoms: C_3  and  C_16
REMARK    3  A    between atoms: C_5  and  O_9
REMARK    4  A    between atoms: C_5  and  C_11
REMARK    5  A    between atoms: C_11  and  C_13
REMARK    6  A    between atoms: C_13  and  O_14
REMARK    7  A    between atoms: C_16  and  N_17
REMARK    8  A    between atoms: C_16  and  C_21
REMARK                            x       y       z     vdW  Elec       q    Type
REMARK                         _______ _______ _______ _____ _____    ______ ____
ROOT
ATOM      1  O   UNL     1     -32.826  26.664   6.798  0.00  0.00    -0.277 OA
ATOM      2  N   UNL     1     -33.237  27.457   4.662  0.00  0.00    -0.305 N 
ATOM      3  C   UNL     1     -33.528  26.698   5.788  0.00  0.00    +0.202 C 
ATOM      4  H   UNL     1     -33.855  27.424   3.896  0.00  0.00    +0.149 HD
ENDROOT
BRANCH   2   6
ATOM      5  C   UNL     1     -32.301  29.827   4.622  0.00  0.00    +0.115 C 
ATOM      6  C   UNL     1     -32.037  28.308   4.568  0.00  0.00    +0.097 C 
ATOM      7  C   UNL     1     -31.227  29.975   3.524  0.00  0.00    +0.031 C 
ATOM      8  C   UNL     1     -31.549  28.522   3.120  0.00  0.00    +0.024 C 
BRANCH   5   9
ATOM      9  O   UNL     1     -33.630  30.230   4.237  0.00  0.00    -0.385 OA
ATOM     10  H   UNL     1     -33.587  31.074   3.761  0.00  0.00    +0.210 HD
ENDBRANCH   5   9
BRANCH   5  11
ATOM     11  C   UNL     1     -31.946  30.527   5.914  0.00  0.00    +0.138 C 
BRANCH  11  13
ATOM     12  O   UNL     1     -29.850  29.585   6.711  0.00  0.00    -0.250 OA
ATOM     13  C   UNL     1     -31.059  29.716   6.830  0.00  0.00    +0.316 C 
BRANCH  13  14
ATOM     14  O   UNL     1     -31.789  29.141   7.819  0.00  0.00    -0.480 OA
ATOM     15  H   UNL     1     -31.684  29.427   8.705  0.00  0.00    +0.295 HD
ENDBRANCH  13  14
ENDBRANCH  11  13
ENDBRANCH   5  11
ENDBRANCH   2   6
BRANCH   3  16
ATOM     16  C   UNL     1     -34.817  25.893   5.643  0.00  0.00    +0.013 C 
BRANCH  16  17
ATOM     17  N   UNL     1     -35.741  26.708   4.851  0.00  0.00    +0.387 N 
ATOM     18  H   UNL     1     -35.210  27.342   4.256  0.00  0.00    -0.089 HD
ATOM     19  H   UNL     1     -36.339  27.249   5.477  0.00  0.00    -0.089 HD
ATOM     20  H   UNL     1     -36.319  26.100   4.271  0.00  0.00    -0.089 HD
ENDBRANCH  16  17
BRANCH  16  21
ATOM     21  C   UNL     1     -34.600  24.504   4.995  0.00  0.00    -0.011 C 
ATOM     22  C   UNL     1     -34.976  24.445   3.510  0.00  0.00    -0.002 C 
ATOM     23  C   UNL     1     -35.334  23.398   5.759  0.00  0.00    -0.002 C 
ENDBRANCH  16  21
ENDBRANCH   3  16
TORSDOF 8
ENDMDL
MODEL 5
REMARK VINA RESULT:      -5.2      2.228      2.893
REMARK  Name = 191356
REMARK  8 active torsions:
REMARK  status: ('A' for Active; 'I' for Inactive)
REMARK    1  A    between atoms: N_2  and  C_6
REMARK    2  A    between atoms: C_3  and  C_16
REMARK    3  A    between atoms: C_5  and  O_9
REMARK    4  A    between atoms: C_5  and  C_11
REMARK    5  A    between atoms: C_11  and  C_13
REMARK    6  A    between atoms: C_13  and  O_14
REMARK    7  A    between atoms: C_16  and  N_17
REMARK    8  A    between atoms: C_16  and  C_21
REMARK                            x       y       z     vdW  Elec       q    Type
REMARK                         _______ _______ _______ _____ _____    ______ ____
ROOT
ATOM      1  O   UNL     1     -33.159  26.524   6.661  0.00  0.00    -0.277 OA
ATOM      2  N   UNL     1     -34.386  26.907   4.735  0.00  0.00    -0.305 N 
ATOM      3  C   UNL     1     -33.306  27.103   5.586  0.00  0.00    +0.202 C 
ATOM      4  H   UNL     1     -34.423  27.415   3.892  0.00  0.00    +0.149 HD
ENDROOT
BRANCH   2   6
ATOM      5  C   UNL     1     -35.258  24.517   4.578  0.00  0.00    +0.115 C 
ATOM      6  C   UNL     1     -35.480  25.970   5.047  0.00  0.00    +0.097 C 
ATOM      7  C   UNL     1     -36.747  24.502   4.173  0.00  0.00    +0.031 C 
ATOM      8  C   UNL     1     -36.648  26.036   4.041  0.00  0.00    +0.024 C 
BRANCH   5   9
ATOM      9  O   UNL     1     -34.325  24.363   3.491  0.00  0.00    -0.385 OA
ATOM     10  H   UNL     1     -34.285  23.429   3.230  0.00  0.00    +0.210 HD
ENDBRANCH   5   9
BRANCH   5  11
ATOM     11  C   UNL     1     -34.912  23.509   5.650  0.00  0.00    +0.138 C 
BRANCH  11  13
ATOM     12  O   UNL     1     -35.239  21.469   4.366  0.00  0.00    -0.250 OA
ATOM     13  C   UNL     1     -35.439  22.119   5.381  0.00  0.00    +0.316 C 
BRANCH  13  14
ATOM     14  O   UNL     1     -36.180  21.676   6.429  0.00  0.00    -0.480 OA
ATOM     15  H   UNL     1     -37.110  21.600   6.346  0.00  0.00    +0.295 HD
ENDBRANCH  13  14
ENDBRANCH  11  13
ENDBRANCH   5  11
ENDBRANCH   2   6
BRANCH   3  16
ATOM     16  C   UNL     1     -32.309  28.128   5.050  0.00  0.00    +0.013 C 
BRANCH  16  17
ATOM     17  N   UNL     1     -33.034  28.971   4.098  0.00  0.00    +0.387 N 
ATOM     18  H   UNL     1     -32.668  29.923   4.140  0.00  0.00    -0.089 HD
ATOM     19  H   UNL     1     -34.027  28.979   4.337  0.00  0.00    -0.089 HD
ATOM     20  H   UNL     1     -32.914  28.602   3.156  0.00  0.00    -0.089 HD
ENDBRANCH  16  17
BRANCH  16  21
ATOM     21  C   UNL     1     -31.651  28.979   6.163  0.00  0.00    -0.011 C 
ATOM     22  C   UNL     1     -31.910  30.484   6.030  0.00  0.00    -0.002 C 
ATOM     23  C   UNL     1     -30.145  28.720   6.263  0.00  0.00    -0.002 C 
ENDBRANCH  16  21
ENDBRANCH   3  16
TORSDOF 8
ENDMDL
MODEL 6
REMARK VINA RESULT:      -5.2      4.194      6.797
REMARK  Name = 191356
REMARK  8 active torsions:
REMARK  status: ('A' for Active; 'I' for Inactive)
REMARK    1  A    between atoms: N_2  and  C_6
REMARK    2  A    between atoms: C_3  and  C_16
REMARK    3  A    between atoms: C_5  and  O_9
REMARK    4  A    between atoms: C_5  and  C_11
REMARK    5  A    between atoms: C_11  and  C_13
REMARK    6  A    between atoms: C_13  and  O_14
REMARK    7  A    between atoms: C_16  and  N_17
REMARK    8  A    between atoms: C_16  and  C_21
REMARK                            x       y       z     vdW  Elec       q    Type
REMARK                         _______ _______ _______ _____ _____    ______ ____
ROOT
ATOM      1  O   UNL     1     -37.920  24.172   1.692  0.00  0.00    -0.277 OA
ATOM      2  N   UNL     1     -37.850  24.815   3.915  0.00  0.00    -0.305 N 
ATOM      3  C   UNL     1     -38.498  24.468   2.736  0.00  0.00    +0.202 C 
ATOM      4  H   UNL     1     -38.392  25.038   4.706  0.00  0.00    +0.149 HD
ENDROOT
BRANCH   2   6
ATOM      5  C   UNL     1     -35.697  23.509   4.314  0.00  0.00    +0.115 C 
ATOM      6  C   UNL     1     -36.380  24.862   4.027  0.00  0.00    +0.097 C 
ATOM      7  C   UNL     1     -34.762  24.273   5.275  0.00  0.00    +0.031 C 
ATOM      8  C   UNL     1     -35.886  25.320   5.414  0.00  0.00    +0.024 C 
BRANCH   5   9
ATOM      9  O   UNL     1     -36.540  22.520   4.938  0.00  0.00    -0.385 OA
ATOM     10  H   UNL     1     -36.170  22.276   5.801  0.00  0.00    +0.210 HD
ENDBRANCH   5   9
BRANCH   5  11
ATOM     11  C   UNL     1     -34.976  22.859   3.157  0.00  0.00    +0.138 C 
BRANCH  11  13
ATOM     12  O   UNL     1     -35.102  20.430   3.183  0.00  0.00    -0.250 OA
ATOM     13  C   UNL     1     -35.520  21.503   2.774  0.00  0.00    +0.316 C 
BRANCH  13  14
ATOM     14  O   UNL     1     -36.552  21.629   1.902  0.00  0.00    -0.480 OA
ATOM     15  H   UNL     1     -36.430  22.090   1.096  0.00  0.00    +0.295 HD
ENDBRANCH  13  14
ENDBRANCH  11  13
ENDBRANCH   5  11
ENDBRANCH   2   6
BRANCH   3  16
ATOM     16  C   UNL     1     -40.019  24.501   2.866  0.00  0.00    +0.013 C 
BRANCH  16  17
ATOM     17  N   UNL     1     -40.323  25.078   4.177  0.00  0.00    +0.387 N 
ATOM     18  H   UNL     1     -40.354  26.094   4.102  0.00  0.00    -0.089 HD
ATOM     19  H   UNL     1     -39.598  24.809   4.844  0.00  0.00    -0.089 HD
ATOM     20  H   UNL     1     -41.226  24.733   4.500  0.00  0.00    -0.089 HD
ENDBRANCH  16  17
BRANCH  16  21
ATOM     21  C   UNL     1     -40.711  25.293   1.732  0.00  0.00    -0.011 C 
ATOM     22  C   UNL     1     -41.721  26.335   2.228  0.00  0.00    -0.002 C 
ATOM     23  C   UNL     1     -41.383  24.365   0.716  0.00  0.00    -0.002 C 
ENDBRANCH  16  21
ENDBRANCH   3  16
TORSDOF 8
ENDMDL
MODEL 7
REMARK VINA RESULT:      -5.2      2.795      6.849
REMARK  Name = 191356
REMARK  8 active torsions:
REMARK  status: ('A' for Active; 'I' for Inactive)
REMARK    1  A    between atoms: N_2  and  C_6
REMARK    2  A    between atoms: C_3  and  C_16
REMARK    3  A    between atoms: C_5  and  O_9
REMARK    4  A    between atoms: C_5  and  C_11
REMARK    5  A    between atoms: C_11  and  C_13
REMARK    6  A    between atoms: C_13  and  O_14
REMARK    7  A    between atoms: C_16  and  N_17
REMARK    8  A    between atoms: C_16  and  C_21
REMARK                            x       y       z     vdW  Elec       q    Type
REMARK                         _______ _______ _______ _____ _____    ______ ____
ROOT
ATOM      1  O   UNL     1     -32.533  26.329   3.705  0.00  0.00    -0.277 OA
ATOM      2  N   UNL     1     -33.111  28.044   5.150  0.00  0.00    -0.305 N 
ATOM      3  C   UNL     1     -33.265  26.785   4.583  0.00  0.00    +0.202 C 
ATOM      4  H   UNL     1     -33.744  28.329   5.849  0.00  0.00    +0.149 HD
ENDROOT
BRANCH   2   6
ATOM      5  C   UNL     1     -30.939  29.207   5.803  0.00  0.00    +0.115 C 
ATOM      6  C   UNL     1     -32.037  28.969   4.746  0.00  0.00    +0.097 C 
ATOM      7  C   UNL     1     -30.963  30.691   5.382  0.00  0.00    +0.031 C 
ATOM      8  C   UNL     1     -32.414  30.455   4.914  0.00  0.00    +0.024 C 
BRANCH   5   9
ATOM      9  O   UNL     1     -31.335  28.949   7.164  0.00  0.00    -0.385 OA
ATOM     10  H   UNL     1     -31.994  28.237   7.180  0.00  0.00    +0.210 HD
ENDBRANCH   5   9
BRANCH   5  11
ATOM     11  C   UNL     1     -29.610  28.531   5.557  0.00  0.00    +0.138 C 
BRANCH  11  13
ATOM     12  O   UNL     1     -28.189  29.019   7.470  0.00  0.00    -0.250 OA
ATOM     13  C   UNL     1     -28.837  28.215   6.816  0.00  0.00    +0.316 C 
BRANCH  13  14
ATOM     14  O   UNL     1     -28.953  26.901   7.134  0.00  0.00    -0.480 OA
ATOM     15  H   UNL     1     -29.157  26.274   6.468  0.00  0.00    +0.295 HD
ENDBRANCH  13  14
ENDBRANCH  11  13
ENDBRANCH   5  11
ENDBRANCH   2   6
BRANCH   3  16
ATOM     16  C   UNL     1     -34.453  26.018   5.159  0.00  0.00    +0.013 C 
BRANCH  16  17
ATOM     17  N   UNL     1     -35.653  26.798   4.853  0.00  0.00    +0.387 N 
ATOM     18  H   UNL     1     -35.525  27.286   3.966  0.00  0.00    -0.089 HD
ATOM     19  H   UNL     1     -35.814  27.480   5.595  0.00  0.00    -0.089 HD
ATOM     20  H   UNL     1     -36.457  26.175   4.784  0.00  0.00    -0.089 HD
ENDBRANCH  16  17
BRANCH  16  21
ATOM     21  C   UNL     1     -34.569  24.575   4.612  0.00  0.00    -0.011 C 
ATOM     22  C   UNL     1     -35.450  24.452   3.363  0.00  0.00    -0.002 C 
ATOM     23  C   UNL     1     -35.056  23.597   5.686  0.00  0.00    -0.002 C 
ENDBRANCH  16  21
ENDBRANCH   3  16
TORSDOF 8
ENDMDL
MODEL 8
REMARK VINA RESULT:      -5.2      2.774      5.832
REMARK  Name = 191356
REMARK  8 active torsions:
REMARK  status: ('A' for Active; 'I' for Inactive)
REMARK    1  A    between atoms: N_2  and  C_6
REMARK    2  A    between atoms: C_3  and  C_16
REMARK    3  A    between atoms: C_5  and  O_9
REMARK    4  A    between atoms: C_5  and  C_11
REMARK    5  A    between atoms: C_11  and  C_13
REMARK    6  A    between atoms: C_13  and  O_14
REMARK    7  A    between atoms: C_16  and  N_17
REMARK    8  A    between atoms: C_16  and  C_21
REMARK                            x       y       z     vdW  Elec       q    Type
REMARK                         _______ _______ _______ _____ _____    ______ ____
ROOT
ATOM      1  O   UNL     1     -33.267  25.049   4.469  0.00  0.00    -0.277 OA
ATOM      2  N   UNL     1     -35.146  25.612   3.238  0.00  0.00    -0.305 N 
ATOM      3  C   UNL     1     -34.480  24.977   4.278  0.00  0.00    +0.202 C 
ATOM      4  H   UNL     1     -36.121  25.499   3.161  0.00  0.00    +0.149 HD
ENDROOT
BRANCH   2   6
ATOM      5  C   UNL     1     -34.170  27.901   2.684  0.00  0.00    +0.115 C 
ATOM      6  C   UNL     1     -34.448  26.449   2.245  0.00  0.00    +0.097 C 
ATOM      7  C   UNL     1     -34.547  28.326   1.249  0.00  0.00    +0.031 C 
ATOM      8  C   UNL     1     -35.386  27.034   1.169  0.00  0.00    +0.024 C 
BRANCH   5   9
ATOM      9  O   UNL     1     -35.038  28.402   3.719  0.00  0.00    -0.385 OA
ATOM     10  H   UNL     1     -35.951  28.125   3.539  0.00  0.00    +0.210 HD
ENDBRANCH   5   9
BRANCH   5  11
ATOM     11  C   UNL     1     -32.743  28.231   3.058  0.00  0.00    +0.138 C 
BRANCH  11  13
ATOM     12  O   UNL     1     -32.657  29.764   4.943  0.00  0.00    -0.250 OA
ATOM     13  C   UNL     1     -32.561  28.629   4.503  0.00  0.00    +0.316 C 
BRANCH  13  14
ATOM     14  O   UNL     1     -32.271  27.544   5.266  0.00  0.00    -0.480 OA
ATOM     15  H   UNL     1     -32.818  26.785   5.228  0.00  0.00    +0.295 HD
ENDBRANCH  13  14
ENDBRANCH  11  13
ENDBRANCH   5  11
ENDBRANCH   2   6
BRANCH   3  16
ATOM     16  C   UNL     1     -35.415  24.162   5.169  0.00  0.00    +0.013 C 
BRANCH  16  17
ATOM     17  N   UNL     1     -36.776  24.387   4.677  0.00  0.00    +0.387 N 
ATOM     18  H   UNL     1     -36.760  25.099   3.947  0.00  0.00    -0.089 HD
ATOM     19  H   UNL     1     -37.368  24.703   5.446  0.00  0.00    -0.089 HD
ATOM     20  H   UNL     1     -37.149  23.518   4.296  0.00  0.00    -0.089 HD
ENDBRANCH  16  17
BRANCH  16  21
ATOM     21  C   UNL     1     -35.072  22.653   5.194  0.00  0.00    -0.011 C 
ATOM     22  C   UNL     1     -35.592  21.876   3.979  0.00  0.00    -0.002 C 
ATOM     23  C   UNL     1     -35.554  21.981   6.483  0.00  0.00    -0.002 C 
ENDBRANCH  16  21
ENDBRANCH   3  16
TORSDOF 8
ENDMDL
MODEL 9
REMARK VINA RESULT:      -5.1      4.492      6.774
REMARK  Name = 191356
REMARK  8 active torsions:
REMARK  status: ('A' for Active; 'I' for Inactive)
REMARK    1  A    between atoms: N_2  and  C_6
REMARK    2  A    between atoms: C_3  and  C_16
REMARK    3  A    between atoms: C_5  and  O_9
REMARK    4  A    between atoms: C_5  and  C_11
REMARK    5  A    between atoms: C_11  and  C_13
REMARK    6  A    between atoms: C_13  and  O_14
REMARK    7  A    between atoms: C_16  and  N_17
REMARK    8  A    between atoms: C_16  and  C_21
REMARK                            x       y       z     vdW  Elec       q    Type
REMARK                         _______ _______ _______ _____ _____    ______ ____
ROOT
ATOM      1  O   UNL     1     -36.595  20.085   2.133  0.00  0.00    -0.277 OA
ATOM      2  N   UNL     1     -35.121  21.744   2.793  0.00  0.00    -0.305 N 
ATOM      3  C   UNL     1     -35.589  20.762   1.929  0.00  0.00    +0.202 C 
ATOM      4  H   UNL     1     -34.305  22.239   2.550  0.00  0.00    +0.149 HD
ENDROOT
BRANCH   2   6
ATOM      5  C   UNL     1     -35.530  23.490   4.604  0.00  0.00    +0.115 C 
ATOM      6  C   UNL     1     -35.798  22.071   4.061  0.00  0.00    +0.097 C 
ATOM      7  C   UNL     1     -35.451  22.854   6.008  0.00  0.00    +0.031 C 
ATOM      8  C   UNL     1     -35.059  21.537   5.306  0.00  0.00    +0.024 C 
BRANCH   5   9
ATOM      9  O   UNL     1     -34.310  24.101   4.139  0.00  0.00    -0.385 OA
ATOM     10  H   UNL     1     -34.426  25.064   4.099  0.00  0.00    +0.210 HD
ENDBRANCH   5   9
BRANCH   5  11
ATOM     11  C   UNL     1     -36.652  24.491   4.457  0.00  0.00    +0.138 C 
BRANCH  11  13
ATOM     12  O   UNL     1     -35.644  26.400   3.336  0.00  0.00    -0.250 OA
ATOM     13  C   UNL     1     -36.187  25.922   4.321  0.00  0.00    +0.316 C 
BRANCH  13  14
ATOM     14  O   UNL     1     -36.452  26.622   5.453  0.00  0.00    -0.480 OA
ATOM     15  H   UNL     1     -35.759  26.827   6.050  0.00  0.00    +0.295 HD
ENDBRANCH  13  14
ENDBRANCH  11  13
ENDBRANCH   5  11
ENDBRANCH   2   6
BRANCH   3  16
ATOM     16  C   UNL     1     -34.713  20.600   0.688  0.00  0.00    +0.013 C 
BRANCH  16  17
ATOM     17  N   UNL     1     -34.695  21.896   0.007  0.00  0.00    +0.387 N 
ATOM     18  H   UNL     1     -33.802  22.358   0.180  0.00  0.00    -0.089 HD
ATOM     19  H   UNL     1     -35.453  22.479   0.363  0.00  0.00    -0.089 HD
ATOM     20  H   UNL     1     -34.816  21.756  -0.995  0.00  0.00    -0.089 HD
ENDBRANCH  16  17
BRANCH  16  21
ATOM     21  C   UNL     1     -33.279  20.118   1.012  0.00  0.00    -0.011 C 
ATOM     22  C   UNL     1     -32.254  20.434  -0.083  0.00  0.00    -0.002 C 
ATOM     23  C   UNL     1     -33.241  18.622   1.339  0.00  0.00    -0.002 C 
ENDBRANCH  16  21
ENDBRANCH   3  16
TORSDOF 8
ENDMDL
