MODEL 1
REMARK VINA RESULT:      -6.3      0.000      0.000
REMARK  Name = 5311479
REMARK  4 active torsions:
REMARK  status: ('A' for Active; 'I' for Inactive)
REMARK    1  A    between atoms: N_3  and  C_25
REMARK    2  A    between atoms: C_10  and  C_15
REMARK    3  A    between atoms: C_18  and  S_21
REMARK    4  A    between atoms: C_25  and  C_26
REMARK                            x       y       z     vdW  Elec       q    Type
REMARK                         _______ _______ _______ _____ _____    ______ ____
ROOT
ATOM      1  O   UNL     1     -36.250  24.076   2.725  0.00  0.00    -0.265 OA
ATOM      2  O   UNL     1     -40.165  21.510   2.209  0.00  0.00    -0.246 OA
ATOM      3  N   UNL     1     -38.240  22.848   2.454  0.00  0.00    -0.248 N 
ATOM      4  N   UNL     1     -34.820  21.615   1.763  0.00  0.00    -0.310 N 
ATOM      5  N   UNL     1     -38.140  20.571   1.704  0.00  0.00    -0.294 N 
ATOM      6  N   UNL     1     -35.894  19.731   1.227  0.00  0.00    -0.301 N 
ATOM      7  C   UNL     1     -36.148  21.863   1.960  0.00  0.00    +0.133 A 
ATOM      8  C   UNL     1     -36.774  20.694   1.623  0.00  0.00    +0.129 A 
ATOM      9  C   UNL     1     -36.827  23.038   2.412  0.00  0.00    +0.280 A 
ATOM     10  C   UNL     1     -34.718  20.320   1.321  0.00  0.00    +0.169 C 
ATOM     11  C   UNL     1     -38.939  21.637   2.129  0.00  0.00    +0.331 A 
ATOM     12  H   UNL     1     -34.078  22.245   1.910  0.00  0.00    +0.149 HD
ATOM     13  H   UNL     1     -38.563  19.717   1.459  0.00  0.00    +0.172 HD
ATOM     14  H   UNL     1     -36.091  18.811   0.938  0.00  0.00    +0.150 HD
ENDROOT
BRANCH  10  15
ATOM     15  C   UNL     1     -33.443  19.719   1.012  0.00  0.00    +0.014 C 
ATOM     16  C   UNL     1     -32.529  20.399   0.207  0.00  0.00    +0.000 C 
ATOM     17  C   UNL     1     -33.124  18.459   1.519  0.00  0.00    +0.000 C 
ATOM     18  C   UNL     1     -30.978  18.558   0.416  0.00  0.00    +0.112 C 
ATOM     19  C   UNL     1     -31.297  19.818  -0.091  0.00  0.00    +0.019 C 
ATOM     20  C   UNL     1     -31.891  17.879   1.220  0.00  0.00    +0.019 C 
BRANCH  18  21
ATOM     21  S   UNL     1     -29.434  17.832   0.042  0.00  0.00    +0.042 S 
ATOM     22  O   UNL     1     -29.468  16.361   0.755  0.00  0.00    -0.065 OA
ATOM     23  O   UNL     1     -29.379  17.606  -1.395  0.00  0.00    -0.065 OA
ATOM     24  O   UNL     1     -28.418  18.632   0.707  0.00  0.00    -0.065 OA
ENDBRANCH  18  21
ENDBRANCH  10  15
BRANCH   3  25
ATOM     25  C   UNL     1     -39.027  23.993   2.894  0.00  0.00    +0.114 C 
BRANCH  25  26
ATOM     26  C   UNL     1     -39.450  24.837   1.693  0.00  0.00    +0.025 C 
ATOM     27  C   UNL     1     -40.962  24.841   1.524  0.00  0.00    +0.002 C 
ENDBRANCH  25  26
ENDBRANCH   3  25
TORSDOF 4
ENDMDL
MODEL 2
REMARK VINA RESULT:      -6.3      0.238      1.014
REMARK  Name = 5311479
REMARK  4 active torsions:
REMARK  status: ('A' for Active; 'I' for Inactive)
REMARK    1  A    between atoms: N_3  and  C_25
REMARK    2  A    between atoms: C_10  and  C_15
REMARK    3  A    between atoms: C_18  and  S_21
REMARK    4  A    between atoms: C_25  and  C_26
REMARK                            x       y       z     vdW  Elec       q    Type
REMARK                         _______ _______ _______ _____ _____    ______ ____
ROOT
ATOM      1  O   UNL     1     -36.341  24.260   2.354  0.00  0.00    -0.265 OA
ATOM      2  O   UNL     1     -40.191  21.549   2.290  0.00  0.00    -0.246 OA
ATOM      3  N   UNL     1     -38.300  22.957   2.304  0.00  0.00    -0.248 N 
ATOM      4  N   UNL     1     -34.876  21.749   1.594  0.00  0.00    -0.310 N 
ATOM      5  N   UNL     1     -38.160  20.616   1.795  0.00  0.00    -0.294 N 
ATOM      6  N   UNL     1     -35.911  19.791   1.309  0.00  0.00    -0.301 N 
ATOM      7  C   UNL     1     -36.202  21.981   1.824  0.00  0.00    +0.133 A 
ATOM      8  C   UNL     1     -36.804  20.767   1.641  0.00  0.00    +0.129 A 
ATOM      9  C   UNL     1     -36.897  23.179   2.179  0.00  0.00    +0.280 A 
ATOM     10  C   UNL     1     -34.752  20.417   1.288  0.00  0.00    +0.169 C 
ATOM     11  C   UNL     1     -38.975  21.700   2.141  0.00  0.00    +0.331 A 
ATOM     12  H   UNL     1     -34.149  22.410   1.641  0.00  0.00    +0.149 HD
ATOM     13  H   UNL     1     -38.567  19.730   1.662  0.00  0.00    +0.172 HD
ATOM     14  H   UNL     1     -36.092  18.840   1.129  0.00  0.00    +0.150 HD
ENDROOT
BRANCH  10  15
ATOM     15  C   UNL     1     -33.472  19.821   0.987  0.00  0.00    +0.014 C 
ATOM     16  C   UNL     1     -33.159  18.555   1.482  0.00  0.00    +0.000 C 
ATOM     17  C   UNL     1     -32.550  20.511   0.202  0.00  0.00    +0.000 C 
ATOM     18  C   UNL     1     -30.999  18.670   0.405  0.00  0.00    +0.112 C 
ATOM     19  C   UNL     1     -31.923  17.980   1.191  0.00  0.00    +0.019 C 
ATOM     20  C   UNL     1     -31.313  19.935  -0.089  0.00  0.00    +0.019 C 
BRANCH  18  21
ATOM     21  S   UNL     1     -29.452  17.948   0.041  0.00  0.00    +0.042 S 
ATOM     22  O   UNL     1     -29.312  16.690   1.076  0.00  0.00    -0.065 OA
ATOM     23  O   UNL     1     -29.520  17.388  -1.301  0.00  0.00    -0.065 OA
ATOM     24  O   UNL     1     -28.435  18.930   0.386  0.00  0.00    -0.065 OA
ENDBRANCH  18  21
ENDBRANCH  10  15
BRANCH   3  25
ATOM     25  C   UNL     1     -39.105  24.121   2.655  0.00  0.00    +0.114 C 
BRANCH  25  26
ATOM     26  C   UNL     1     -39.703  24.750   1.398  0.00  0.00    +0.025 C 
ATOM     27  C   UNL     1     -41.186  25.037   1.576  0.00  0.00    +0.002 C 
ENDBRANCH  25  26
ENDBRANCH   3  25
TORSDOF 4
ENDMDL
MODEL 3
REMARK VINA RESULT:      -6.2      5.448      7.716
REMARK  Name = 5311479
REMARK  4 active torsions:
REMARK  status: ('A' for Active; 'I' for Inactive)
REMARK    1  A    between atoms: N_3  and  C_25
REMARK    2  A    between atoms: C_10  and  C_15
REMARK    3  A    between atoms: C_18  and  S_21
REMARK    4  A    between atoms: C_25  and  C_26
REMARK                            x       y       z     vdW  Elec       q    Type
REMARK                         _______ _______ _______ _____ _____    ______ ____
ROOT
ATOM      1  O   UNL     1     -36.276  21.684   2.511  0.00  0.00    -0.265 OA
ATOM      2  O   UNL     1     -40.551  23.648   2.307  0.00  0.00    -0.246 OA
ATOM      3  N   UNL     1     -38.439  22.606   2.417  0.00  0.00    -0.248 N 
ATOM      4  N   UNL     1     -35.410  24.309   3.687  0.00  0.00    -0.310 N 
ATOM      5  N   UNL     1     -38.804  24.861   3.152  0.00  0.00    -0.294 N 
ATOM      6  N   UNL     1     -36.822  26.009   4.008  0.00  0.00    -0.301 N 
ATOM      7  C   UNL     1     -36.632  23.876   3.262  0.00  0.00    +0.133 A 
ATOM      8  C   UNL     1     -37.471  24.935   3.472  0.00  0.00    +0.129 A 
ATOM      9  C   UNL     1     -37.043  22.622   2.709  0.00  0.00    +0.280 A 
ATOM     10  C   UNL     1     -35.576  25.599   4.127  0.00  0.00    +0.169 C 
ATOM     11  C   UNL     1     -39.353  23.698   2.603  0.00  0.00    +0.331 A 
ATOM     12  H   UNL     1     -34.570  23.796   3.678  0.00  0.00    +0.149 HD
ATOM     13  H   UNL     1     -39.383  25.641   3.311  0.00  0.00    +0.172 HD
ATOM     14  H   UNL     1     -37.199  26.886   4.250  0.00  0.00    +0.150 HD
ENDROOT
BRANCH  10  15
ATOM     15  C   UNL     1     -34.475  26.372   4.650  0.00  0.00    +0.014 C 
ATOM     16  C   UNL     1     -33.826  27.300   3.835  0.00  0.00    +0.000 C 
ATOM     17  C   UNL     1     -34.062  26.193   5.970  0.00  0.00    +0.000 C 
ATOM     18  C   UNL     1     -32.349  27.867   5.661  0.00  0.00    +0.112 C 
ATOM     19  C   UNL     1     -32.763  28.047   4.341  0.00  0.00    +0.019 C 
ATOM     20  C   UNL     1     -32.999  26.941   6.475  0.00  0.00    +0.019 C 
BRANCH  18  21
ATOM     21  S   UNL     1     -31.018  28.804   6.293  0.00  0.00    +0.042 S 
ATOM     22  O   UNL     1     -30.665  29.891   5.124  0.00  0.00    -0.065 OA
ATOM     23  O   UNL     1     -31.502  29.557   7.441  0.00  0.00    -0.065 OA
ATOM     24  O   UNL     1     -29.886  27.898   6.423  0.00  0.00    -0.065 OA
ENDBRANCH  18  21
ENDBRANCH  10  15
BRANCH   3  25
ATOM     25  C   UNL     1     -38.963  21.367   1.856  0.00  0.00    +0.114 C 
BRANCH  25  26
ATOM     26  C   UNL     1     -38.924  21.419   0.330  0.00  0.00    +0.025 C 
ATOM     27  C   UNL     1     -40.300  21.163  -0.267  0.00  0.00    +0.002 C 
ENDBRANCH  25  26
ENDBRANCH   3  25
TORSDOF 4
ENDMDL
MODEL 4
REMARK VINA RESULT:      -6.1      2.497      3.290
REMARK  Name = 5311479
REMARK  4 active torsions:
REMARK  status: ('A' for Active; 'I' for Inactive)
REMARK    1  A    between atoms: N_3  and  C_25
REMARK    2  A    between atoms: C_10  and  C_15
REMARK    3  A    between atoms: C_18  and  S_21
REMARK    4  A    between atoms: C_25  and  C_26
REMARK                            x       y       z     vdW  Elec       q    Type
REMARK                         _______ _______ _______ _____ _____    ______ ____
ROOT
ATOM      1  O   UNL     1     -34.236  24.684   1.970  0.00  0.00    -0.265 OA
ATOM      2  O   UNL     1     -38.532  24.418   3.880  0.00  0.00    -0.246 OA
ATOM      3  N   UNL     1     -36.395  24.612   2.905  0.00  0.00    -0.248 N 
ATOM      4  N   UNL     1     -34.547  21.734   1.493  0.00  0.00    -0.310 N 
ATOM      5  N   UNL     1     -37.567  22.522   3.035  0.00  0.00    -0.294 N 
ATOM      6  N   UNL     1     -36.376  20.603   2.098  0.00  0.00    -0.301 N 
ATOM      7  C   UNL     1     -35.389  22.645   2.063  0.00  0.00    +0.133 A 
ATOM      8  C   UNL     1     -36.495  21.924   2.419  0.00  0.00    +0.129 A 
ATOM      9  C   UNL     1     -35.241  24.051   2.282  0.00  0.00    +0.280 A 
ATOM     10  C   UNL     1     -35.187  20.520   1.538  0.00  0.00    +0.169 C 
ATOM     11  C   UNL     1     -37.568  23.893   3.315  0.00  0.00    +0.331 A 
ATOM     12  H   UNL     1     -33.653  21.913   1.123  0.00  0.00    +0.149 HD
ATOM     13  H   UNL     1     -38.347  21.978   3.284  0.00  0.00    +0.172 HD
ATOM     14  H   UNL     1     -37.028  19.881   2.250  0.00  0.00    +0.150 HD
ENDROOT
BRANCH  10  15
ATOM     15  C   UNL     1     -34.577  19.320   1.017  0.00  0.00    +0.014 C 
ATOM     16  C   UNL     1     -33.313  18.931   1.459  0.00  0.00    +0.000 C 
ATOM     17  C   UNL     1     -35.253  18.549   0.072  0.00  0.00    +0.000 C 
ATOM     18  C   UNL     1     -33.400  17.000   0.010  0.00  0.00    +0.112 C 
ATOM     19  C   UNL     1     -32.725  17.772   0.956  0.00  0.00    +0.019 C 
ATOM     20  C   UNL     1     -34.664  17.388  -0.431  0.00  0.00    +0.019 C 
BRANCH  18  21
ATOM     21  S   UNL     1     -32.663  15.548  -0.619  0.00  0.00    +0.042 S 
ATOM     22  O   UNL     1     -31.853  16.024  -1.957  0.00  0.00    -0.065 OA
ATOM     23  O   UNL     1     -31.667  15.095   0.342  0.00  0.00    -0.065 OA
ATOM     24  O   UNL     1     -33.745  14.669  -1.036  0.00  0.00    -0.065 OA
ENDBRANCH  18  21
ENDBRANCH  10  15
BRANCH   3  25
ATOM     25  C   UNL     1     -36.349  26.046   3.165  0.00  0.00    +0.114 C 
BRANCH  25  26
ATOM     26  C   UNL     1     -35.359  26.349   4.288  0.00  0.00    +0.025 C 
ATOM     27  C   UNL     1     -35.910  25.926   5.641  0.00  0.00    +0.002 C 
ENDBRANCH  25  26
ENDBRANCH   3  25
TORSDOF 4
ENDMDL
MODEL 5
REMARK VINA RESULT:      -6.1      6.403      7.718
REMARK  Name = 5311479
REMARK  4 active torsions:
REMARK  status: ('A' for Active; 'I' for Inactive)
REMARK    1  A    between atoms: N_3  and  C_25
REMARK    2  A    between atoms: C_10  and  C_15
REMARK    3  A    between atoms: C_18  and  S_21
REMARK    4  A    between atoms: C_25  and  C_26
REMARK                            x       y       z     vdW  Elec       q    Type
REMARK                         _______ _______ _______ _____ _____    ______ ____
ROOT
ATOM      1  O   UNL     1     -39.375  26.568   2.291  0.00  0.00    -0.265 OA
ATOM      2  O   UNL     1     -39.260  21.861   2.326  0.00  0.00    -0.246 OA
ATOM      3  N   UNL     1     -39.354  24.215   2.255  0.00  0.00    -0.248 N 
ATOM      4  N   UNL     1     -36.651  26.386   3.548  0.00  0.00    -0.310 N 
ATOM      5  N   UNL     1     -37.472  23.027   3.151  0.00  0.00    -0.294 N 
ATOM      6  N   UNL     1     -35.663  24.435   4.002  0.00  0.00    -0.301 N 
ATOM      7  C   UNL     1     -37.518  25.414   3.137  0.00  0.00    +0.133 A 
ATOM      8  C   UNL     1     -36.885  24.237   3.428  0.00  0.00    +0.129 A 
ATOM      9  C   UNL     1     -38.811  25.504   2.533  0.00  0.00    +0.280 A 
ATOM     10  C   UNL     1     -35.550  25.747   4.060  0.00  0.00    +0.169 C 
ATOM     11  C   UNL     1     -38.737  22.955   2.559  0.00  0.00    +0.331 A 
ATOM     12  H   UNL     1     -36.790  27.358   3.488  0.00  0.00    +0.149 HD
ATOM     13  H   UNL     1     -36.995  22.196   3.375  0.00  0.00    +0.172 HD
ATOM     14  H   UNL     1     -35.017  23.755   4.302  0.00  0.00    +0.150 HD
ENDROOT
BRANCH  10  15
ATOM     15  C   UNL     1     -34.425  26.477   4.592  0.00  0.00    +0.014 C 
ATOM     16  C   UNL     1     -34.013  26.263   5.908  0.00  0.00    +0.000 C 
ATOM     17  C   UNL     1     -33.749  27.397   3.791  0.00  0.00    +0.000 C 
ATOM     18  C   UNL     1     -32.250  27.889   5.620  0.00  0.00    +0.112 C 
ATOM     19  C   UNL     1     -32.926  26.969   6.421  0.00  0.00    +0.019 C 
ATOM     20  C   UNL     1     -32.661  28.103   4.305  0.00  0.00    +0.019 C 
BRANCH  18  21
ATOM     21  S   UNL     1     -30.888  28.772   6.264  0.00  0.00    +0.042 S 
ATOM     22  O   UNL     1     -30.456  29.816   5.081  0.00  0.00    -0.065 OA
ATOM     23  O   UNL     1     -31.360  29.573   7.385  0.00  0.00    -0.065 OA
ATOM     24  O   UNL     1     -29.806  27.815   6.437  0.00  0.00    -0.065 OA
ENDBRANCH  18  21
ENDBRANCH  10  15
BRANCH   3  25
ATOM     25  C   UNL     1     -40.670  24.196   1.628  0.00  0.00    +0.114 C 
BRANCH  25  26
ATOM     26  C   UNL     1     -40.531  24.139   0.108  0.00  0.00    +0.025 C 
ATOM     27  C   UNL     1     -41.787  23.578  -0.542  0.00  0.00    +0.002 C 
ENDBRANCH  25  26
ENDBRANCH   3  25
TORSDOF 4
ENDMDL
MODEL 6
REMARK VINA RESULT:      -6.0      6.141     11.333
REMARK  Name = 5311479
REMARK  4 active torsions:
REMARK  status: ('A' for Active; 'I' for Inactive)
REMARK    1  A    between atoms: N_3  and  C_25
REMARK    2  A    between atoms: C_10  and  C_15
REMARK    3  A    between atoms: C_18  and  S_21
REMARK    4  A    between atoms: C_25  and  C_26
REMARK                            x       y       z     vdW  Elec       q    Type
REMARK                         _______ _______ _______ _____ _____    ______ ____
ROOT
ATOM      1  O   UNL     1     -36.451  25.167   4.588  0.00  0.00    -0.265 OA
ATOM      2  O   UNL     1     -36.944  21.172   2.145  0.00  0.00    -0.246 OA
ATOM      3  N   UNL     1     -36.661  23.140   3.411  0.00  0.00    -0.248 N 
ATOM      4  N   UNL     1     -39.183  25.844   3.535  0.00  0.00    -0.310 N 
ATOM      5  N   UNL     1     -38.635  22.715   2.115  0.00  0.00    -0.294 N 
ATOM      6  N   UNL     1     -40.326  24.479   2.187  0.00  0.00    -0.301 N 
ATOM      7  C   UNL     1     -38.397  24.743   3.350  0.00  0.00    +0.133 A 
ATOM      8  C   UNL     1     -39.123  23.931   2.525  0.00  0.00    +0.129 A 
ATOM      9  C   UNL     1     -37.099  24.421   3.859  0.00  0.00    +0.280 A 
ATOM     10  C   UNL     1     -40.333  25.637   2.815  0.00  0.00    +0.169 C 
ATOM     11  C   UNL     1     -37.378  22.262   2.530  0.00  0.00    +0.331 A 
ATOM     12  H   UNL     1     -38.966  26.635   4.080  0.00  0.00    +0.149 HD
ATOM     13  H   UNL     1     -39.178  22.152   1.517  0.00  0.00    +0.172 HD
ATOM     14  H   UNL     1     -41.025  24.097   1.608  0.00  0.00    +0.150 HD
ENDROOT
BRANCH  10  15
ATOM     15  C   UNL     1     -41.397  26.612   2.784  0.00  0.00    +0.014 C 
ATOM     16  C   UNL     1     -41.919  27.113   3.976  0.00  0.00    +0.000 C 
ATOM     17  C   UNL     1     -41.903  27.052   1.561  0.00  0.00    +0.000 C 
ATOM     18  C   UNL     1     -43.453  28.496   2.721  0.00  0.00    +0.112 C 
ATOM     19  C   UNL     1     -42.947  28.055   3.944  0.00  0.00    +0.019 C 
ATOM     20  C   UNL     1     -42.931  27.994   1.530  0.00  0.00    +0.019 C 
BRANCH  18  21
ATOM     21  S   UNL     1     -44.740  29.675   2.684  0.00  0.00    +0.042 S 
ATOM     22  O   UNL     1     -43.997  31.125   2.822  0.00  0.00    -0.065 OA
ATOM     23  O   UNL     1     -45.349  29.635   1.362  0.00  0.00    -0.065 OA
ATOM     24  O   UNL     1     -45.543  29.464   3.879  0.00  0.00    -0.065 OA
ENDBRANCH  18  21
ENDBRANCH  10  15
BRANCH   3  25
ATOM     25  C   UNL     1     -35.349  22.711   3.882  0.00  0.00    +0.114 C 
BRANCH  25  26
ATOM     26  C   UNL     1     -35.499  21.689   5.006  0.00  0.00    +0.025 C 
ATOM     27  C   UNL     1     -35.229  22.317   6.365  0.00  0.00    +0.002 C 
ENDBRANCH  25  26
ENDBRANCH   3  25
TORSDOF 4
ENDMDL
MODEL 7
REMARK VINA RESULT:      -6.0      4.308      7.312
REMARK  Name = 5311479
REMARK  4 active torsions:
REMARK  status: ('A' for Active; 'I' for Inactive)
REMARK    1  A    between atoms: N_3  and  C_25
REMARK    2  A    between atoms: C_10  and  C_15
REMARK    3  A    between atoms: C_18  and  S_21
REMARK    4  A    between atoms: C_25  and  C_26
REMARK                            x       y       z     vdW  Elec       q    Type
REMARK                         _______ _______ _______ _____ _____    ______ ____
ROOT
ATOM      1  O   UNL     1     -38.607  19.078  -0.372  0.00  0.00    -0.265 OA
ATOM      2  O   UNL     1     -34.967  16.123  -0.813  0.00  0.00    -0.246 OA
ATOM      3  N   UNL     1     -36.811  17.583  -0.651  0.00  0.00    -0.248 N 
ATOM      4  N   UNL     1     -36.715  20.755   1.252  0.00  0.00    -0.310 N 
ATOM      5  N   UNL     1     -34.699  18.053   0.388  0.00  0.00    -0.294 N 
ATOM      6  N   UNL     1     -34.601  20.149   1.643  0.00  0.00    -0.301 N 
ATOM      7  C   UNL     1     -36.537  19.559   0.617  0.00  0.00    +0.133 A 
ATOM      8  C   UNL     1     -35.238  19.219   0.874  0.00  0.00    +0.129 A 
ATOM      9  C   UNL     1     -37.438  18.767  -0.162  0.00  0.00    +0.280 A 
ATOM     10  C   UNL     1     -35.522  21.067   1.855  0.00  0.00    +0.169 C 
ATOM     11  C   UNL     1     -35.459  17.174  -0.392  0.00  0.00    +0.331 A 
ATOM     12  H   UNL     1     -37.541  21.289   1.275  0.00  0.00    +0.149 HD
ATOM     13  H   UNL     1     -33.762  17.831   0.592  0.00  0.00    +0.172 HD
ATOM     14  H   UNL     1     -33.671  20.136   1.964  0.00  0.00    +0.150 HD
ENDROOT
BRANCH  10  15
ATOM     15  C   UNL     1     -35.351  22.277   2.623  0.00  0.00    +0.014 C 
ATOM     16  C   UNL     1     -34.956  23.455   1.989  0.00  0.00    +0.000 C 
ATOM     17  C   UNL     1     -35.581  22.268   3.998  0.00  0.00    +0.000 C 
ATOM     18  C   UNL     1     -35.022  24.615   4.108  0.00  0.00    +0.112 C 
ATOM     19  C   UNL     1     -34.791  24.624   2.732  0.00  0.00    +0.019 C 
ATOM     20  C   UNL     1     -35.417  23.438   4.740  0.00  0.00    +0.019 C 
BRANCH  18  21
ATOM     21  S   UNL     1     -34.815  26.080   5.036  0.00  0.00    +0.042 S 
ATOM     22  O   UNL     1     -34.872  27.293   3.941  0.00  0.00    -0.065 OA
ATOM     23  O   UNL     1     -35.977  26.233   5.900  0.00  0.00    -0.065 OA
ATOM     24  O   UNL     1     -33.473  26.040   5.596  0.00  0.00    -0.065 OA
ENDBRANCH  18  21
ENDBRANCH  10  15
BRANCH   3  25
ATOM     25  C   UNL     1     -37.643  16.707  -1.466  0.00  0.00    +0.114 C 
BRANCH  25  26
ATOM     26  C   UNL     1     -38.405  15.725  -0.580  0.00  0.00    +0.025 C 
ATOM     27  C   UNL     1     -39.878  15.670  -0.954  0.00  0.00    +0.002 C 
ENDBRANCH  25  26
ENDBRANCH   3  25
TORSDOF 4
ENDMDL
MODEL 8
REMARK VINA RESULT:      -5.9      1.432      2.013
REMARK  Name = 5311479
REMARK  4 active torsions:
REMARK  status: ('A' for Active; 'I' for Inactive)
REMARK    1  A    between atoms: N_3  and  C_25
REMARK    2  A    between atoms: C_10  and  C_15
REMARK    3  A    between atoms: C_18  and  S_21
REMARK    4  A    between atoms: C_25  and  C_26
REMARK                            x       y       z     vdW  Elec       q    Type
REMARK                         _______ _______ _______ _____ _____    ______ ____
ROOT
ATOM      1  O   UNL     1     -35.525  23.548   2.977  0.00  0.00    -0.265 OA
ATOM      2  O   UNL     1     -40.038  22.378   2.315  0.00  0.00    -0.246 OA
ATOM      3  N   UNL     1     -37.795  23.027   2.638  0.00  0.00    -0.248 N 
ATOM      4  N   UNL     1     -34.922  20.856   1.788  0.00  0.00    -0.310 N 
ATOM      5  N   UNL     1     -38.400  20.903   1.698  0.00  0.00    -0.294 N 
ATOM      6  N   UNL     1     -36.522  19.451   1.114  0.00  0.00    -0.301 N 
ATOM      7  C   UNL     1     -36.109  21.486   2.028  0.00  0.00    +0.133 A 
ATOM      8  C   UNL     1     -37.064  20.603   1.605  0.00  0.00    +0.129 A 
ATOM      9  C   UNL     1     -36.393  22.771   2.588  0.00  0.00    +0.280 A 
ATOM     10  C   UNL     1     -35.223  19.635   1.238  0.00  0.00    +0.169 C 
ATOM     11  C   UNL     1     -38.833  22.125   2.225  0.00  0.00    +0.331 A 
ATOM     12  H   UNL     1     -34.022  21.209   1.975  0.00  0.00    +0.149 HD
ATOM     13  H   UNL     1     -39.066  20.247   1.390  0.00  0.00    +0.172 HD
ATOM     14  H   UNL     1     -36.993  18.666   0.753  0.00  0.00    +0.150 HD
ENDROOT
BRANCH  10  15
ATOM     15  C   UNL     1     -34.195  18.696   0.858  0.00  0.00    +0.014 C 
ATOM     16  C   UNL     1     -34.445  17.754  -0.139  0.00  0.00    +0.000 C 
ATOM     17  C   UNL     1     -32.951  18.733   1.488  0.00  0.00    +0.000 C 
ATOM     18  C   UNL     1     -32.206  16.883   0.124  0.00  0.00    +0.112 C 
ATOM     19  C   UNL     1     -33.451  16.847  -0.506  0.00  0.00    +0.019 C 
ATOM     20  C   UNL     1     -31.957  17.826   1.120  0.00  0.00    +0.019 C 
BRANCH  18  21
ATOM     21  S   UNL     1     -30.962  15.748  -0.337  0.00  0.00    +0.042 S 
ATOM     22  O   UNL     1     -29.572  16.373   0.255  0.00  0.00    -0.065 OA
ATOM     23  O   UNL     1     -31.204  14.501   0.375  0.00  0.00    -0.065 OA
ATOM     24  O   UNL     1     -30.885  15.771  -1.789  0.00  0.00    -0.065 OA
ENDBRANCH  18  21
ENDBRANCH  10  15
BRANCH   3  25
ATOM     25  C   UNL     1     -38.192  24.318   3.185  0.00  0.00    +0.114 C 
BRANCH  25  26
ATOM     26  C   UNL     1     -38.390  25.331   2.060  0.00  0.00    +0.025 C 
ATOM     27  C   UNL     1     -37.359  26.447   2.132  0.00  0.00    +0.002 C 
ENDBRANCH  25  26
ENDBRANCH   3  25
TORSDOF 4
ENDMDL
MODEL 9
REMARK VINA RESULT:      -5.9      4.063      7.667
REMARK  Name = 5311479
REMARK  4 active torsions:
REMARK  status: ('A' for Active; 'I' for Inactive)
REMARK    1  A    between atoms: N_3  and  C_25
REMARK    2  A    between atoms: C_10  and  C_15
REMARK    3  A    between atoms: C_18  and  S_21
REMARK    4  A    between atoms: C_25  and  C_26
REMARK                            x       y       z     vdW  Elec       q    Type
REMARK                         _______ _______ _______ _____ _____    ______ ____
ROOT
ATOM      1  O   UNL     1     -33.382  18.387  -0.519  0.00  0.00    -0.265 OA
ATOM      2  O   UNL     1     -37.700  16.521  -0.725  0.00  0.00    -0.246 OA
ATOM      3  N   UNL     1     -35.513  17.395  -0.629  0.00  0.00    -0.248 N 
ATOM      4  N   UNL     1     -34.643  20.460   1.253  0.00  0.00    -0.310 N 
ATOM      5  N   UNL     1     -37.360  18.412   0.518  0.00  0.00    -0.294 N 
ATOM      6  N   UNL     1     -36.813  20.433   1.781  0.00  0.00    -0.301 N 
ATOM      7  C   UNL     1     -35.174  19.367   0.631  0.00  0.00    +0.133 A 
ATOM      8  C   UNL     1     -36.498  19.379   0.974  0.00  0.00    +0.129 A 
ATOM      9  C   UNL     1     -34.569  18.377  -0.207  0.00  0.00    +0.280 A 
ATOM     10  C   UNL     1     -35.669  21.068   1.932  0.00  0.00    +0.169 C 
ATOM     11  C   UNL     1     -36.913  17.377  -0.311  0.00  0.00    +0.331 A 
ATOM     12  H   UNL     1     -33.705  20.756   1.219  0.00  0.00    +0.149 HD
ATOM     13  H   UNL     1     -38.308  18.448   0.777  0.00  0.00    +0.172 HD
ATOM     14  H   UNL     1     -37.692  20.664   2.161  0.00  0.00    +0.150 HD
ENDROOT
BRANCH  10  15
ATOM     15  C   UNL     1     -35.462  22.268   2.708  0.00  0.00    +0.014 C 
ATOM     16  C   UNL     1     -35.588  22.231   4.097  0.00  0.00    +0.000 C 
ATOM     17  C   UNL     1     -35.136  23.464   2.069  0.00  0.00    +0.000 C 
ATOM     18  C   UNL     1     -35.062  24.586   4.206  0.00  0.00    +0.112 C 
ATOM     19  C   UNL     1     -35.388  23.390   4.845  0.00  0.00    +0.019 C 
ATOM     20  C   UNL     1     -34.936  24.623   2.818  0.00  0.00    +0.019 C 
BRANCH  18  21
ATOM     21  S   UNL     1     -34.811  26.037   5.145  0.00  0.00    +0.042 S 
ATOM     22  O   UNL     1     -34.738  27.249   4.050  0.00  0.00    -0.065 OA
ATOM     23  O   UNL     1     -36.002  26.264   5.951  0.00  0.00    -0.065 OA
ATOM     24  O   UNL     1     -33.503  25.916   5.771  0.00  0.00    -0.065 OA
ENDBRANCH  18  21
ENDBRANCH  10  15
BRANCH   3  25
ATOM     25  C   UNL     1     -34.995  16.333  -1.482  0.00  0.00    +0.114 C 
BRANCH  25  26
ATOM     26  C   UNL     1     -34.671  15.095  -0.648  0.00  0.00    +0.025 C 
ATOM     27  C   UNL     1     -35.023  13.817  -1.394  0.00  0.00    +0.002 C 
ENDBRANCH  25  26
ENDBRANCH   3  25
TORSDOF 4
ENDMDL
