MODEL 1
REMARK VINA RESULT:      -6.2      0.000      0.000
REMARK  Name = 196710
REMARK  4 active torsions:
REMARK  status: ('A' for Active; 'I' for Inactive)
REMARK    1  A    between atoms: N_2  and  C_12
REMARK    2  A    between atoms: C_13  and  O_16
REMARK    3  A    between atoms: C_15  and  C_18
REMARK    4  A    between atoms: C_18  and  O_19
REMARK                            x       y       z     vdW  Elec       q    Type
REMARK                         _______ _______ _______ _____ _____    ______ ____
ROOT
ATOM      1  I   UNL     1     -35.999  19.272   0.104  0.00  0.00    +0.072 I 
ATOM      2  N   UNL     1     -37.597  23.566   2.934  0.00  0.00    -0.236 N 
ATOM      3  N   UNL     1     -39.756  23.527   2.380  0.00  0.00    -0.240 NA
ATOM      4  N   UNL     1     -36.810  21.643   1.678  0.00  0.00    -0.318 NA
ATOM      5  N   UNL     1     -38.630  20.587   0.440  0.00  0.00    -0.319 NA
ATOM      6  C   UNL     1     -37.753  22.501   2.094  0.00  0.00    +0.221 C 
ATOM      7  C   UNL     1     -38.828  24.151   3.076  0.00  0.00    +0.224 C 
ATOM      8  C   UNL     1     -39.098  22.495   1.762  0.00  0.00    +0.167 C 
ATOM      9  C   UNL     1     -39.529  21.491   0.901  0.00  0.00    +0.211 C 
ATOM     10  C   UNL     1     -37.346  20.718   0.851  0.00  0.00    +0.170 C 
ATOM     11  N   UNL     1     -40.876  21.409   0.508  0.00  0.00    -0.331 N 
ATOM     12  H   UNL     1     -41.169  20.693  -0.102  0.00  0.00    +0.145 HD
ATOM     13  H   UNL     1     -41.527  22.067   0.843  0.00  0.00    +0.145 HD
ENDROOT
BRANCH   2  15
ATOM     14  O   UNL     1     -35.588  22.858   3.973  0.00  0.00    -0.335 OA
ATOM     15  C   UNL     1     -36.359  24.006   3.571  0.00  0.00    +0.223 C 
ATOM     16  C   UNL     1     -36.570  24.844   4.822  0.00  0.00    +0.160 C 
ATOM     17  C   UNL     1     -35.282  24.591   5.572  0.00  0.00    +0.066 C 
ATOM     18  C   UNL     1     -34.977  23.136   5.247  0.00  0.00    +0.149 C 
BRANCH  16  19
ATOM     19  O   UNL     1     -36.734  26.211   4.503  0.00  0.00    -0.380 OA
ATOM     20  H   UNL     1     -37.410  26.599   5.081  0.00  0.00    +0.211 HD
ENDBRANCH  16  19
BRANCH  18  21
ATOM     21  C   UNL     1     -35.538  22.168   6.278  0.00  0.00    +0.167 C 
BRANCH  21  22
ATOM     22  O   UNL     1     -35.405  20.844   5.787  0.00  0.00    -0.379 OA
ATOM     23  H   UNL     1     -35.711  20.217   6.460  0.00  0.00    +0.211 HD
ENDBRANCH  21  22
ENDBRANCH  18  21
ENDBRANCH   2  15
TORSDOF 4
ENDMDL
MODEL 2
REMARK VINA RESULT:      -6.1      1.591      2.175
REMARK  Name = 196710
REMARK  4 active torsions:
REMARK  status: ('A' for Active; 'I' for Inactive)
REMARK    1  A    between atoms: N_2  and  C_12
REMARK    2  A    between atoms: C_13  and  O_16
REMARK    3  A    between atoms: C_15  and  C_18
REMARK    4  A    between atoms: C_18  and  O_19
REMARK                            x       y       z     vdW  Elec       q    Type
REMARK                         _______ _______ _______ _____ _____    ______ ____
ROOT
ATOM      1  I   UNL     1     -32.880  18.800   0.816  0.00  0.00    +0.072 I 
ATOM      2  N   UNL     1     -36.650  22.269   2.473  0.00  0.00    -0.236 N 
ATOM      3  N   UNL     1     -38.405  21.342   1.457  0.00  0.00    -0.240 NA
ATOM      4  N   UNL     1     -34.901  20.744   1.758  0.00  0.00    -0.318 NA
ATOM      5  N   UNL     1     -35.794  18.979   0.328  0.00  0.00    -0.319 NA
ATOM      6  C   UNL     1     -36.169  21.181   1.804  0.00  0.00    +0.221 C 
ATOM      7  C   UNL     1     -37.998  22.324   2.235  0.00  0.00    +0.224 C 
ATOM      8  C   UNL     1     -37.272  20.620   1.181  0.00  0.00    +0.167 C 
ATOM      9  C   UNL     1     -37.051  19.477   0.420  0.00  0.00    +0.211 C 
ATOM     10  C   UNL     1     -34.812  19.634   0.993  0.00  0.00    +0.170 C 
ATOM     11  N   UNL     1     -38.112  18.843  -0.250  0.00  0.00    -0.331 N 
ATOM     12  H   UNL     1     -37.943  18.034  -0.786  0.00  0.00    +0.145 HD
ATOM     13  H   UNL     1     -39.024  19.208  -0.183  0.00  0.00    +0.145 HD
ENDROOT
BRANCH   2  15
ATOM     14  O   UNL     1     -34.979  22.471   4.140  0.00  0.00    -0.335 OA
ATOM     15  C   UNL     1     -35.884  23.203   3.294  0.00  0.00    +0.223 C 
ATOM     16  C   UNL     1     -36.737  24.062   4.214  0.00  0.00    +0.160 C 
ATOM     17  C   UNL     1     -35.754  24.387   5.316  0.00  0.00    +0.066 C 
ATOM     18  C   UNL     1     -34.933  23.111   5.430  0.00  0.00    +0.149 C 
BRANCH  16  19
ATOM     19  O   UNL     1     -37.194  25.225   3.554  0.00  0.00    -0.380 OA
ATOM     20  H   UNL     1     -37.367  25.921   4.208  0.00  0.00    +0.211 HD
ENDBRANCH  16  19
BRANCH  18  21
ATOM     21  C   UNL     1     -35.480  22.146   6.472  0.00  0.00    +0.167 C 
BRANCH  21  22
ATOM     22  O   UNL     1     -35.444  20.830   5.945  0.00  0.00    -0.379 OA
ATOM     23  H   UNL     1     -34.540  20.619   5.665  0.00  0.00    +0.211 HD
ENDBRANCH  21  22
ENDBRANCH  18  21
ENDBRANCH   2  15
TORSDOF 4
ENDMDL
MODEL 3
REMARK VINA RESULT:      -6.0      4.765      6.878
REMARK  Name = 196710
REMARK  4 active torsions:
REMARK  status: ('A' for Active; 'I' for Inactive)
REMARK    1  A    between atoms: N_2  and  C_12
REMARK    2  A    between atoms: C_13  and  O_16
REMARK    3  A    between atoms: C_15  and  C_18
REMARK    4  A    between atoms: C_18  and  O_19
REMARK                            x       y       z     vdW  Elec       q    Type
REMARK                         _______ _______ _______ _____ _____    ______ ____
ROOT
ATOM      1  I   UNL     1     -33.932  29.016   0.347  0.00  0.00    +0.072 I 
ATOM      2  N   UNL     1     -34.393  25.995   4.780  0.00  0.00    -0.236 N 
ATOM      3  N   UNL     1     -32.966  27.112   6.077  0.00  0.00    -0.240 NA
ATOM      4  N   UNL     1     -34.228  27.313   2.747  0.00  0.00    -0.318 NA
ATOM      5  N   UNL     1     -32.663  29.165   3.016  0.00  0.00    -0.319 NA
ATOM      6  C   UNL     1     -33.914  27.021   4.018  0.00  0.00    +0.221 C 
ATOM      7  C   UNL     1     -33.795  26.091   6.008  0.00  0.00    +0.224 C 
ATOM      8  C   UNL     1     -33.030  27.701   4.840  0.00  0.00    +0.167 C 
ATOM      9  C   UNL     1     -32.393  28.812   4.297  0.00  0.00    +0.211 C 
ATOM     10  C   UNL     1     -33.550  28.405   2.332  0.00  0.00    +0.170 C 
ATOM     11  N   UNL     1     -31.478  29.560   5.058  0.00  0.00    -0.331 N 
ATOM     12  H   UNL     1     -31.033  30.344   4.662  0.00  0.00    +0.145 HD
ATOM     13  H   UNL     1     -31.283  29.300   5.987  0.00  0.00    +0.145 HD
ENDROOT
BRANCH   2  15
ATOM     14  O   UNL     1     -35.859  24.293   5.538  0.00  0.00    -0.335 OA
ATOM     15  C   UNL     1     -35.365  24.981   4.374  0.00  0.00    +0.223 C 
ATOM     16  C   UNL     1     -34.798  23.916   3.450  0.00  0.00    +0.160 C 
ATOM     17  C   UNL     1     -35.723  22.754   3.730  0.00  0.00    +0.066 C 
ATOM     18  C   UNL     1     -36.011  22.897   5.217  0.00  0.00    +0.149 C 
BRANCH  16  19
ATOM     19  O   UNL     1     -34.858  24.324   2.098  0.00  0.00    -0.380 OA
ATOM     20  H   UNL     1     -34.164  24.980   1.927  0.00  0.00    +0.211 HD
ENDBRANCH  16  19
BRANCH  18  21
ATOM     21  C   UNL     1     -35.055  22.091   6.086  0.00  0.00    +0.167 C 
BRANCH  21  22
ATOM     22  O   UNL     1     -35.235  20.712   5.810  0.00  0.00    -0.379 OA
ATOM     23  H   UNL     1     -35.546  20.602   4.898  0.00  0.00    +0.211 HD
ENDBRANCH  21  22
ENDBRANCH  18  21
ENDBRANCH   2  15
TORSDOF 4
ENDMDL
MODEL 4
REMARK VINA RESULT:      -6.0      4.281      5.929
REMARK  Name = 196710
REMARK  4 active torsions:
REMARK  status: ('A' for Active; 'I' for Inactive)
REMARK    1  A    between atoms: N_2  and  C_12
REMARK    2  A    between atoms: C_13  and  O_16
REMARK    3  A    between atoms: C_15  and  C_18
REMARK    4  A    between atoms: C_18  and  O_19
REMARK                            x       y       z     vdW  Elec       q    Type
REMARK                         _______ _______ _______ _____ _____    ______ ____
ROOT
ATOM      1  I   UNL     1     -35.264  22.067   6.037  0.00  0.00    +0.072 I 
ATOM      2  N   UNL     1     -34.379  26.826   3.678  0.00  0.00    -0.236 N 
ATOM      3  N   UNL     1     -36.305  26.995   2.568  0.00  0.00    -0.240 NA
ATOM      4  N   UNL     1     -34.713  24.682   4.769  0.00  0.00    -0.318 NA
ATOM      5  N   UNL     1     -36.883  23.724   4.195  0.00  0.00    -0.319 NA
ATOM      6  C   UNL     1     -35.086  25.696   3.974  0.00  0.00    +0.221 C 
ATOM      7  C   UNL     1     -35.152  27.575   2.831  0.00  0.00    +0.224 C 
ATOM      8  C   UNL     1     -36.276  25.819   3.276  0.00  0.00    +0.167 C 
ATOM      9  C   UNL     1     -37.193  24.782   3.407  0.00  0.00    +0.211 C 
ATOM     10  C   UNL     1     -35.680  23.740   4.817  0.00  0.00    +0.170 C 
ATOM     11  N   UNL     1     -38.426  24.823   2.732  0.00  0.00    -0.331 N 
ATOM     12  H   UNL     1     -39.067  24.082   2.833  0.00  0.00    +0.145 HD
ATOM     13  H   UNL     1     -38.649  25.591   2.160  0.00  0.00    +0.145 HD
ENDROOT
BRANCH   2  15
ATOM     14  O   UNL     1     -33.127  28.405   4.925  0.00  0.00    -0.335 OA
ATOM     15  C   UNL     1     -33.050  27.182   4.170  0.00  0.00    +0.223 C 
ATOM     16  C   UNL     1     -32.026  27.415   3.071  0.00  0.00    +0.160 C 
ATOM     17  C   UNL     1     -31.053  28.344   3.762  0.00  0.00    +0.066 C 
ATOM     18  C   UNL     1     -31.959  29.198   4.636  0.00  0.00    +0.149 C 
BRANCH  16  19
ATOM     19  O   UNL     1     -31.410  26.205   2.678  0.00  0.00    -0.380 OA
ATOM     20  H   UNL     1     -32.017  25.701   2.113  0.00  0.00    +0.211 HD
ENDBRANCH  16  19
BRANCH  18  21
ATOM     21  C   UNL     1     -32.401  30.485   3.954  0.00  0.00    +0.167 C 
BRANCH  21  22
ATOM     22  O   UNL     1     -33.796  30.652   4.144  0.00  0.00    -0.379 OA
ATOM     23  H   UNL     1     -34.267  30.381   3.341  0.00  0.00    +0.211 HD
ENDBRANCH  21  22
ENDBRANCH  18  21
ENDBRANCH   2  15
TORSDOF 4
ENDMDL
MODEL 5
REMARK VINA RESULT:      -5.9      1.566      2.463
REMARK  Name = 196710
REMARK  4 active torsions:
REMARK  status: ('A' for Active; 'I' for Inactive)
REMARK    1  A    between atoms: N_2  and  C_12
REMARK    2  A    between atoms: C_13  and  O_16
REMARK    3  A    between atoms: C_15  and  C_18
REMARK    4  A    between atoms: C_18  and  O_19
REMARK                            x       y       z     vdW  Elec       q    Type
REMARK                         _______ _______ _______ _____ _____    ______ ____
ROOT
ATOM      1  I   UNL     1     -37.273  18.459  -0.677  0.00  0.00    +0.072 I 
ATOM      2  N   UNL     1     -38.096  22.725   2.504  0.00  0.00    -0.236 N 
ATOM      3  N   UNL     1     -40.187  23.187   1.883  0.00  0.00    -0.240 NA
ATOM      4  N   UNL     1     -37.658  20.798   1.093  0.00  0.00    -0.318 NA
ATOM      5  N   UNL     1     -39.591  20.258  -0.296  0.00  0.00    -0.319 NA
ATOM      6  C   UNL     1     -38.425  21.794   1.561  0.00  0.00    +0.221 C 
ATOM      7  C   UNL     1     -39.187  23.539   2.664  0.00  0.00    +0.224 C 
ATOM      8  C   UNL     1     -39.724  22.098   1.188  0.00  0.00    +0.167 C 
ATOM      9  C   UNL     1     -40.308  21.285   0.222  0.00  0.00    +0.211 C 
ATOM     10  C   UNL     1     -38.330  20.082   0.165  0.00  0.00    +0.170 C 
ATOM     11  N   UNL     1     -41.622  21.522  -0.217  0.00  0.00    -0.331 N 
ATOM     12  H   UNL     1     -42.025  20.939  -0.902  0.00  0.00    +0.145 HD
ATOM     13  H   UNL     1     -42.141  22.269   0.159  0.00  0.00    +0.145 HD
ENDROOT
BRANCH   2  15
ATOM     14  O   UNL     1     -36.983  23.724   4.342  0.00  0.00    -0.335 OA
ATOM     15  C   UNL     1     -36.827  22.839   3.218  0.00  0.00    +0.223 C 
ATOM     16  C   UNL     1     -35.693  23.403   2.378  0.00  0.00    +0.160 C 
ATOM     17  C   UNL     1     -34.799  23.997   3.442  0.00  0.00    +0.066 C 
ATOM     18  C   UNL     1     -35.792  24.525   4.467  0.00  0.00    +0.149 C 
BRANCH  16  19
ATOM     19  O   UNL     1     -35.038  22.384   1.648  0.00  0.00    -0.380 OA
ATOM     20  H   UNL     1     -34.928  22.667   0.726  0.00  0.00    +0.211 HD
ENDBRANCH  16  19
BRANCH  18  21
ATOM     21  C   UNL     1     -36.160  25.985   4.239  0.00  0.00    +0.167 C 
BRANCH  21  22
ATOM     22  O   UNL     1     -36.593  26.547   5.466  0.00  0.00    -0.379 OA
ATOM     23  H   UNL     1     -36.797  25.836   6.094  0.00  0.00    +0.211 HD
ENDBRANCH  21  22
ENDBRANCH  18  21
ENDBRANCH   2  15
TORSDOF 4
ENDMDL
MODEL 6
REMARK VINA RESULT:      -5.9      2.389      2.871
REMARK  Name = 196710
REMARK  4 active torsions:
REMARK  status: ('A' for Active; 'I' for Inactive)
REMARK    1  A    between atoms: N_2  and  C_12
REMARK    2  A    between atoms: C_13  and  O_16
REMARK    3  A    between atoms: C_15  and  C_18
REMARK    4  A    between atoms: C_18  and  O_19
REMARK                            x       y       z     vdW  Elec       q    Type
REMARK                         _______ _______ _______ _____ _____    ______ ____
ROOT
ATOM      1  I   UNL     1     -39.995  27.227   0.070  0.00  0.00    +0.072 I 
ATOM      2  N   UNL     1     -37.487  23.187   2.598  0.00  0.00    -0.236 N 
ATOM      3  N   UNL     1     -38.771  21.514   1.876  0.00  0.00    -0.240 NA
ATOM      4  N   UNL     1     -38.575  25.055   1.490  0.00  0.00    -0.318 NA
ATOM      5  N   UNL     1     -40.478  24.309   0.158  0.00  0.00    -0.319 NA
ATOM      6  C   UNL     1     -38.433  23.756   1.794  0.00  0.00    +0.221 C 
ATOM      7  C   UNL     1     -37.731  21.839   2.616  0.00  0.00    +0.224 C 
ATOM      8  C   UNL     1     -39.219  22.702   1.357  0.00  0.00    +0.167 C 
ATOM      9  C   UNL     1     -40.276  23.015   0.508  0.00  0.00    +0.211 C 
ATOM     10  C   UNL     1     -39.628  25.234   0.663  0.00  0.00    +0.170 C 
ATOM     11  N   UNL     1     -41.126  22.009   0.018  0.00  0.00    -0.331 N 
ATOM     12  H   UNL     1     -41.871  22.243  -0.583  0.00  0.00    +0.145 HD
ATOM     13  H   UNL     1     -40.978  21.071   0.275  0.00  0.00    +0.145 HD
ENDROOT
BRANCH   2  15
ATOM     14  O   UNL     1     -35.469  22.909   3.809  0.00  0.00    -0.335 OA
ATOM     15  C   UNL     1     -36.411  23.875   3.307  0.00  0.00    +0.223 C 
ATOM     16  C   UNL     1     -36.878  24.687   4.504  0.00  0.00    +0.160 C 
ATOM     17  C   UNL     1     -35.629  24.708   5.356  0.00  0.00    +0.066 C 
ATOM     18  C   UNL     1     -35.026  23.333   5.112  0.00  0.00    +0.149 C 
BRANCH  16  19
ATOM     19  O   UNL     1     -37.275  25.987   4.119  0.00  0.00    -0.380 OA
ATOM     20  H   UNL     1     -36.915  26.189   3.241  0.00  0.00    +0.211 HD
ENDBRANCH  16  19
BRANCH  18  21
ATOM     21  C   UNL     1     -35.471  22.299   6.138  0.00  0.00    +0.167 C 
BRANCH  21  22
ATOM     22  O   UNL     1     -35.267  21.002   5.602  0.00  0.00    -0.379 OA
ATOM     23  H   UNL     1     -35.661  20.342   6.194  0.00  0.00    +0.211 HD
ENDBRANCH  21  22
ENDBRANCH  18  21
ENDBRANCH   2  15
TORSDOF 4
ENDMDL
MODEL 7
REMARK VINA RESULT:      -5.8      2.200      3.511
REMARK  Name = 196710
REMARK  4 active torsions:
REMARK  status: ('A' for Active; 'I' for Inactive)
REMARK    1  A    between atoms: N_2  and  C_12
REMARK    2  A    between atoms: C_13  and  O_16
REMARK    3  A    between atoms: C_15  and  C_18
REMARK    4  A    between atoms: C_18  and  O_19
REMARK                            x       y       z     vdW  Elec       q    Type
REMARK                         _______ _______ _______ _____ _____    ______ ____
ROOT
ATOM      1  I   UNL     1     -40.404  21.591  -0.244  0.00  0.00    +0.072 I 
ATOM      2  N   UNL     1     -36.143  21.702   3.047  0.00  0.00    -0.236 N 
ATOM      3  N   UNL     1     -35.084  19.906   2.258  0.00  0.00    -0.240 NA
ATOM      4  N   UNL     1     -38.092  21.707   1.598  0.00  0.00    -0.318 NA
ATOM      5  N   UNL     1     -38.025  19.850   0.016  0.00  0.00    -0.319 NA
ATOM      6  C   UNL     1     -36.924  21.215   2.038  0.00  0.00    +0.221 C 
ATOM      7  C   UNL     1     -35.050  20.882   3.141  0.00  0.00    +0.224 C 
ATOM      8  C   UNL     1     -36.251  20.102   1.562  0.00  0.00    +0.167 C 
ATOM      9  C   UNL     1     -36.843  19.410   0.511  0.00  0.00    +0.211 C 
ATOM     10  C   UNL     1     -38.568  20.954   0.582  0.00  0.00    +0.170 C 
ATOM     11  N   UNL     1     -36.231  18.267  -0.033  0.00  0.00    -0.331 N 
ATOM     12  H   UNL     1     -36.660  17.785  -0.777  0.00  0.00    +0.145 HD
ATOM     13  H   UNL     1     -35.373  17.949   0.330  0.00  0.00    +0.145 HD
ENDROOT
BRANCH   2  15
ATOM     14  O   UNL     1     -36.132  24.070   3.121  0.00  0.00    -0.335 OA
ATOM     15  C   UNL     1     -36.411  22.875   3.874  0.00  0.00    +0.223 C 
ATOM     16  C   UNL     1     -35.564  22.951   5.134  0.00  0.00    +0.160 C 
ATOM     17  C   UNL     1     -35.551  24.439   5.398  0.00  0.00    +0.066 C 
ATOM     18  C   UNL     1     -35.517  25.034   3.998  0.00  0.00    +0.149 C 
BRANCH  16  19
ATOM     19  O   UNL     1     -36.158  22.232   6.197  0.00  0.00    -0.380 OA
ATOM     20  H   UNL     1     -35.468  21.937   6.813  0.00  0.00    +0.211 HD
ENDBRANCH  16  19
BRANCH  18  21
ATOM     21  C   UNL     1     -34.104  25.309   3.504  0.00  0.00    +0.167 C 
BRANCH  21  22
ATOM     22  O   UNL     1     -33.238  25.411   4.623  0.00  0.00    -0.379 OA
ATOM     23  H   UNL     1     -33.642  25.985   5.293  0.00  0.00    +0.211 HD
ENDBRANCH  21  22
ENDBRANCH  18  21
ENDBRANCH   2  15
TORSDOF 4
ENDMDL
MODEL 8
REMARK VINA RESULT:      -5.7      3.639      6.076
REMARK  Name = 196710
REMARK  4 active torsions:
REMARK  status: ('A' for Active; 'I' for Inactive)
REMARK    1  A    between atoms: N_2  and  C_12
REMARK    2  A    between atoms: C_13  and  O_16
REMARK    3  A    between atoms: C_15  and  C_18
REMARK    4  A    between atoms: C_18  and  O_19
REMARK                            x       y       z     vdW  Elec       q    Type
REMARK                         _______ _______ _______ _____ _____    ______ ____
ROOT
ATOM      1  I   UNL     1     -32.075  26.974   1.270  0.00  0.00    +0.072 I 
ATOM      2  N   UNL     1     -35.363  23.357   3.530  0.00  0.00    -0.236 N 
ATOM      3  N   UNL     1     -35.308  24.137   5.617  0.00  0.00    -0.240 NA
ATOM      4  N   UNL     1     -33.885  24.953   2.450  0.00  0.00    -0.318 NA
ATOM      5  N   UNL     1     -33.048  26.603   4.041  0.00  0.00    -0.319 NA
ATOM      6  C   UNL     1     -34.537  24.444   3.506  0.00  0.00    +0.221 C 
ATOM      7  C   UNL     1     -35.802  23.212   4.819  0.00  0.00    +0.224 C 
ATOM      8  C   UNL     1     -34.517  24.913   4.809  0.00  0.00    +0.167 C 
ATOM      9  C   UNL     1     -33.735  26.036   5.062  0.00  0.00    +0.211 C 
ATOM     10  C   UNL     1     -33.164  26.035   2.817  0.00  0.00    +0.170 C 
ATOM     11  N   UNL     1     -33.654  26.578   6.356  0.00  0.00    -0.331 N 
ATOM     12  H   UNL     1     -33.097  27.374   6.522  0.00  0.00    +0.145 HD
ATOM     13  H   UNL     1     -34.152  26.163   7.096  0.00  0.00    +0.145 HD
ENDROOT
BRANCH   2  15
ATOM     14  O   UNL     1     -36.854  23.065   1.711  0.00  0.00    -0.335 OA
ATOM     15  C   UNL     1     -35.722  22.504   2.399  0.00  0.00    +0.223 C 
ATOM     16  C   UNL     1     -36.112  21.088   2.792  0.00  0.00    +0.160 C 
ATOM     17  C   UNL     1     -37.005  20.693   1.638  0.00  0.00    +0.066 C 
ATOM     18  C   UNL     1     -37.722  21.992   1.300  0.00  0.00    +0.149 C 
BRANCH  16  19
ATOM     19  O   UNL     1     -34.978  20.251   2.892  0.00  0.00    -0.380 OA
ATOM     20  H   UNL     1     -34.255  20.622   2.361  0.00  0.00    +0.211 HD
ENDBRANCH  16  19
BRANCH  18  21
ATOM     21  C   UNL     1     -39.054  22.138   2.023  0.00  0.00    +0.167 C 
BRANCH  21  22
ATOM     22  O   UNL     1     -39.611  20.850   2.228  0.00  0.00    -0.379 OA
ATOM     23  H   UNL     1     -39.949  20.506   1.387  0.00  0.00    +0.211 HD
ENDBRANCH  21  22
ENDBRANCH  18  21
ENDBRANCH   2  15
TORSDOF 4
ENDMDL
MODEL 9
REMARK VINA RESULT:      -5.7      3.335      4.734
REMARK  Name = 196710
REMARK  4 active torsions:
REMARK  status: ('A' for Active; 'I' for Inactive)
REMARK    1  A    between atoms: N_2  and  C_12
REMARK    2  A    between atoms: C_13  and  O_16
REMARK    3  A    between atoms: C_15  and  C_18
REMARK    4  A    between atoms: C_18  and  O_19
REMARK                            x       y       z     vdW  Elec       q    Type
REMARK                         _______ _______ _______ _____ _____    ______ ____
ROOT
ATOM      1  I   UNL     1     -34.673  20.045   1.091  0.00  0.00    +0.072 I 
ATOM      2  N   UNL     1     -36.256  24.784   3.098  0.00  0.00    -0.236 N 
ATOM      3  N   UNL     1     -36.278  24.224   5.256  0.00  0.00    -0.240 NA
ATOM      4  N   UNL     1     -35.549  22.673   2.128  0.00  0.00    -0.318 NA
ATOM      5  N   UNL     1     -35.199  20.979   3.849  0.00  0.00    -0.319 NA
ATOM      6  C   UNL     1     -35.875  23.474   3.153  0.00  0.00    +0.221 C 
ATOM      7  C   UNL     1     -36.487  25.190   4.386  0.00  0.00    +0.224 C 
ATOM      8  C   UNL     1     -35.895  23.146   4.499  0.00  0.00    +0.167 C 
ATOM      9  C   UNL     1     -35.540  21.844   4.835  0.00  0.00    +0.211 C 
ATOM     10  C   UNL     1     -35.224  21.440   2.576  0.00  0.00    +0.170 C 
ATOM     11  N   UNL     1     -35.536  21.423   6.177  0.00  0.00    -0.331 N 
ATOM     12  H   UNL     1     -35.282  20.498   6.402  0.00  0.00    +0.145 HD
ATOM     13  H   UNL     1     -35.785  22.053   6.891  0.00  0.00    +0.145 HD
ENDROOT
BRANCH   2  15
ATOM     14  O   UNL     1     -35.264  26.497   1.796  0.00  0.00    -0.335 OA
ATOM     15  C   UNL     1     -36.391  25.608   1.900  0.00  0.00    +0.223 C 
ATOM     16  C   UNL     1     -37.634  26.482   1.887  0.00  0.00    +0.160 C 
ATOM     17  C   UNL     1     -37.200  27.606   0.973  0.00  0.00    +0.066 C 
ATOM     18  C   UNL     1     -35.727  27.773   1.314  0.00  0.00    +0.149 C 
BRANCH  16  19
ATOM     19  O   UNL     1     -38.748  25.783   1.369  0.00  0.00    -0.380 OA
ATOM     20  H   UNL     1     -38.489  24.871   1.160  0.00  0.00    +0.211 HD
ENDBRANCH  16  19
BRANCH  18  21
ATOM     21  C   UNL     1     -35.483  28.819   2.392  0.00  0.00    +0.167 C 
BRANCH  21  22
ATOM     22  O   UNL     1     -34.976  28.176   3.551  0.00  0.00    -0.379 OA
ATOM     23  H   UNL     1     -34.239  28.693   3.911  0.00  0.00    +0.211 HD
ENDBRANCH  21  22
ENDBRANCH  18  21
ENDBRANCH   2  15
TORSDOF 4
ENDMDL
