MODEL 1
REMARK VINA RESULT:      -6.3      0.000      0.000
REMARK  Name = 189745
REMARK  8 active torsions:
REMARK  status: ('A' for Active; 'I' for Inactive)
REMARK    1  A    between atoms: C_3  and  C_17
REMARK    2  A    between atoms: C_4  and  O_15
REMARK    3  A    between atoms: C_6  and  C_7
REMARK    4  A    between atoms: C_12  and  O_13
REMARK    5  A    between atoms: C_17  and  O_18
REMARK    6  A    between atoms: C_17  and  CA_20
REMARK    7  A    between atoms: CA_20  and  N_22
REMARK    8  A    between atoms: CA_20  and  C_27
REMARK                            x       y       z     vdW  Elec       q    Type
REMARK                         _______ _______ _______ _____ _____    ______ ____
ROOT
ATOM      1  O   UNL     1     -34.718  21.030   1.893  0.00  0.00    -0.324 OA
ATOM      2  O   UNL     1     -33.413  22.283   0.341  0.00  0.00    -0.324 OA
ATOM      3  C   UNL     1     -35.742  22.027   1.937  0.00  0.00    +0.176 C 
ATOM      4  C   UNL     1     -35.136  23.399   1.624  0.00  0.00    +0.170 C 
ATOM      5  C   UNL     1     -34.368  23.340   0.307  0.00  0.00    +0.177 C 
ATOM      6  C   UNL     1     -34.045  21.032   0.629  0.00  0.00    +0.260 C 
ENDROOT
BRANCH   6   7
ATOM      7  C   UNL     1     -32.980  19.965   0.666  0.00  0.00    +0.034 C 
ATOM      8  C   UNL     1     -31.753  20.179   0.035  0.00  0.00    +0.004 C 
ATOM      9  C   UNL     1     -33.215  18.761   1.332  0.00  0.00    +0.004 C 
ATOM     10  C   UNL     1     -30.766  19.193   0.068  0.00  0.00    +0.036 C 
ATOM     11  C   UNL     1     -32.230  17.774   1.366  0.00  0.00    +0.036 C 
ATOM     12  C   UNL     1     -31.005  17.991   0.735  0.00  0.00    +0.134 C 
BRANCH  12  13
ATOM     13  O   UNL     1     -30.043  17.029   0.767  0.00  0.00    -0.506 OA
ATOM     14  H   UNL     1     -29.150  17.264   0.928  0.00  0.00    +0.292 HD
ENDBRANCH  12  13
ENDBRANCH   6   7
BRANCH   4  15
ATOM     15  O   UNL     1     -36.157  24.380   1.547  0.00  0.00    -0.379 OA
ATOM     16  H   UNL     1     -36.345  24.722   2.435  0.00  0.00    +0.211 HD
ENDBRANCH   4  15
BRANCH   3  17
ATOM     17  C   UNL     1     -36.377  21.986   3.322  0.00  0.00    +0.166 C 
BRANCH  17  18
ATOM     18  O   UNL     1     -37.616  22.693   3.287  0.00  0.00    -0.380 OA
ATOM     19  H   UNL     1     -37.526  23.527   3.774  0.00  0.00    +0.211 HD
ENDBRANCH  17  18
BRANCH  17  20
ATOM     20  CA  UNL     1     -35.472  22.591   4.398  0.00  0.00    +0.166 C 
BRANCH  20  22
ATOM     21  O   UNL     1     -33.893  24.973   4.906  0.00  0.00    -0.275 OA
ATOM     22  N   UNL     1     -35.940  23.864   4.881  0.00  0.00    -0.297 N 
ATOM     23  C   UNL     1     -35.107  24.951   5.096  0.00  0.00    +0.223 C 
ATOM     24  C   UNL     1     -35.857  26.164   5.578  0.00  0.00    +0.095 C 
ATOM     25  H   UNL     1     -36.901  23.967   5.070  0.00  0.00    +0.150 HD
ENDBRANCH  20  22
BRANCH  20  27
ATOM     26  O   UNL     1     -35.964  21.886   6.659  0.00  0.00    -0.286 OA
ATOM     27  C   UNL     1     -35.347  21.695   5.613  0.00  0.00    +0.229 C 
ENDBRANCH  20  27
ENDBRANCH  17  20
ENDBRANCH   3  17
TORSDOF 8
ENDMDL
MODEL 2
REMARK VINA RESULT:      -6.2      2.666      6.734
REMARK  Name = 189745
REMARK  8 active torsions:
REMARK  status: ('A' for Active; 'I' for Inactive)
REMARK    1  A    between atoms: C_3  and  C_17
REMARK    2  A    between atoms: C_4  and  O_15
REMARK    3  A    between atoms: C_6  and  C_7
REMARK    4  A    between atoms: C_12  and  O_13
REMARK    5  A    between atoms: C_17  and  O_18
REMARK    6  A    between atoms: C_17  and  CA_20
REMARK    7  A    between atoms: CA_20  and  N_22
REMARK    8  A    between atoms: CA_20  and  C_27
REMARK                            x       y       z     vdW  Elec       q    Type
REMARK                         _______ _______ _______ _____ _____    ______ ____
ROOT
ATOM      1  O   UNL     1     -36.755  22.300   2.665  0.00  0.00    -0.324 OA
ATOM      2  O   UNL     1     -38.532  23.825   3.116  0.00  0.00    -0.324 OA
ATOM      3  C   UNL     1     -37.563  21.520   1.778  0.00  0.00    +0.176 C 
ATOM      4  C   UNL     1     -39.036  21.651   2.177  0.00  0.00    +0.170 C 
ATOM      5  C   UNL     1     -39.425  23.124   2.255  0.00  0.00    +0.177 C 
ATOM      6  C   UNL     1     -37.176  23.668   2.683  0.00  0.00    +0.260 C 
ENDROOT
BRANCH   6   7
ATOM      7  C   UNL     1     -36.287  24.417   3.644  0.00  0.00    +0.034 C 
ATOM      8  C   UNL     1     -34.901  24.253   3.588  0.00  0.00    +0.004 C 
ATOM      9  C   UNL     1     -36.845  25.277   4.592  0.00  0.00    +0.004 C 
ATOM     10  C   UNL     1     -34.078  24.945   4.476  0.00  0.00    +0.036 C 
ATOM     11  C   UNL     1     -36.023  25.969   5.480  0.00  0.00    +0.036 C 
ATOM     12  C   UNL     1     -34.639  25.804   5.422  0.00  0.00    +0.134 C 
BRANCH  12  13
ATOM     13  O   UNL     1     -33.836  26.479   6.289  0.00  0.00    -0.506 OA
ATOM     14  H   UNL     1     -34.015  26.456   7.208  0.00  0.00    +0.292 HD
ENDBRANCH  12  13
ENDBRANCH   6   7
BRANCH   4  15
ATOM     15  O   UNL     1     -39.860  20.980   1.237  0.00  0.00    -0.379 OA
ATOM     16  H   UNL     1     -39.441  20.145   0.978  0.00  0.00    +0.211 HD
ENDBRANCH   4  15
BRANCH   3  17
ATOM     17  C   UNL     1     -37.077  20.078   1.849  0.00  0.00    +0.166 C 
BRANCH  17  18
ATOM     18  O   UNL     1     -36.184  19.940   2.953  0.00  0.00    -0.380 OA
ATOM     19  H   UNL     1     -36.329  20.667   3.578  0.00  0.00    +0.211 HD
ENDBRANCH  17  18
BRANCH  17  20
ATOM     20  CA  UNL     1     -36.374  19.634   0.563  0.00  0.00    +0.166 C 
BRANCH  20  22
ATOM     21  O   UNL     1     -33.679  20.610   1.022  0.00  0.00    -0.275 OA
ATOM     22  N   UNL     1     -35.190  18.852   0.806  0.00  0.00    -0.297 N 
ATOM     23  C   UNL     1     -33.938  19.409   1.015  0.00  0.00    +0.223 C 
ATOM     24  C   UNL     1     -32.881  18.368   1.271  0.00  0.00    +0.095 C 
ATOM     25  H   UNL     1     -35.274  17.871   0.824  0.00  0.00    +0.150 HD
ENDBRANCH  20  22
BRANCH  20  27
ATOM     26  O   UNL     1     -38.495  18.868  -0.311  0.00  0.00    -0.286 OA
ATOM     27  C   UNL     1     -37.269  18.787  -0.318  0.00  0.00    +0.229 C 
ENDBRANCH  20  27
ENDBRANCH  17  20
ENDBRANCH   3  17
TORSDOF 8
ENDMDL
MODEL 3
REMARK VINA RESULT:      -6.1      1.393      2.076
REMARK  Name = 189745
REMARK  8 active torsions:
REMARK  status: ('A' for Active; 'I' for Inactive)
REMARK    1  A    between atoms: C_3  and  C_17
REMARK    2  A    between atoms: C_4  and  O_15
REMARK    3  A    between atoms: C_6  and  C_7
REMARK    4  A    between atoms: C_12  and  O_13
REMARK    5  A    between atoms: C_17  and  O_18
REMARK    6  A    between atoms: C_17  and  CA_20
REMARK    7  A    between atoms: CA_20  and  N_22
REMARK    8  A    between atoms: CA_20  and  C_27
REMARK                            x       y       z     vdW  Elec       q    Type
REMARK                         _______ _______ _______ _____ _____    ______ ____
ROOT
ATOM      1  O   UNL     1     -34.914  21.124   2.365  0.00  0.00    -0.324 OA
ATOM      2  O   UNL     1     -35.841  19.879   0.555  0.00  0.00    -0.324 OA
ATOM      3  C   UNL     1     -36.204  21.442   2.893  0.00  0.00    +0.176 C 
ATOM      4  C   UNL     1     -37.234  21.452   1.759  0.00  0.00    +0.170 C 
ATOM      5  C   UNL     1     -37.174  20.136   0.991  0.00  0.00    +0.177 C 
ATOM      6  C   UNL     1     -34.934  19.876   1.662  0.00  0.00    +0.260 C 
ENDROOT
BRANCH   6   7
ATOM      7  C   UNL     1     -33.546  19.618   1.131  0.00  0.00    +0.034 C 
ATOM      8  C   UNL     1     -32.887  18.426   1.443  0.00  0.00    +0.004 C 
ATOM      9  C   UNL     1     -32.915  20.567   0.325  0.00  0.00    +0.004 C 
ATOM     10  C   UNL     1     -31.604  18.187   0.952  0.00  0.00    +0.036 C 
ATOM     11  C   UNL     1     -31.632  20.329  -0.167  0.00  0.00    +0.036 C 
ATOM     12  C   UNL     1     -30.976  19.137   0.146  0.00  0.00    +0.134 C 
BRANCH  12  13
ATOM     13  O   UNL     1     -29.724  18.904  -0.332  0.00  0.00    -0.506 OA
ATOM     14  H   UNL     1     -28.981  19.277   0.098  0.00  0.00    +0.292 HD
ENDBRANCH  12  13
ENDBRANCH   6   7
BRANCH   4  15
ATOM     15  O   UNL     1     -38.537  21.650   2.282  0.00  0.00    -0.379 OA
ATOM     16  H   UNL     1     -38.479  21.853   3.229  0.00  0.00    +0.211 HD
ENDBRANCH   4  15
BRANCH   3  17
ATOM     17  C   UNL     1     -36.105  22.796   3.587  0.00  0.00    +0.166 C 
BRANCH  17  18
ATOM     18  O   UNL     1     -35.820  23.798   2.612  0.00  0.00    -0.380 OA
ATOM     19  H   UNL     1     -36.223  24.637   2.884  0.00  0.00    +0.211 HD
ENDBRANCH  17  18
BRANCH  17  20
ATOM     20  CA  UNL     1     -35.028  22.817   4.674  0.00  0.00    +0.166 C 
BRANCH  20  22
ATOM     21  O   UNL     1     -33.308  25.057   4.003  0.00  0.00    -0.275 OA
ATOM     22  N   UNL     1     -34.935  24.084   5.354  0.00  0.00    -0.297 N 
ATOM     23  C   UNL     1     -34.078  25.100   4.958  0.00  0.00    +0.223 C 
ATOM     24  C   UNL     1     -34.200  26.323   5.827  0.00  0.00    +0.095 C 
ATOM     25  H   UNL     1     -35.508  24.235   6.140  0.00  0.00    +0.150 HD
ENDBRANCH  20  22
BRANCH  20  27
ATOM     26  O   UNL     1     -36.049  21.945   6.685  0.00  0.00    -0.286 OA
ATOM     27  C   UNL     1     -35.274  21.777   5.747  0.00  0.00    +0.229 C 
ENDBRANCH  20  27
ENDBRANCH  17  20
ENDBRANCH   3  17
TORSDOF 8
ENDMDL
MODEL 4
REMARK VINA RESULT:      -6.0      2.701      6.412
REMARK  Name = 189745
REMARK  8 active torsions:
REMARK  status: ('A' for Active; 'I' for Inactive)
REMARK    1  A    between atoms: C_3  and  C_17
REMARK    2  A    between atoms: C_4  and  O_15
REMARK    3  A    between atoms: C_6  and  C_7
REMARK    4  A    between atoms: C_12  and  O_13
REMARK    5  A    between atoms: C_17  and  O_18
REMARK    6  A    between atoms: C_17  and  CA_20
REMARK    7  A    between atoms: CA_20  and  N_22
REMARK    8  A    between atoms: CA_20  and  C_27
REMARK                            x       y       z     vdW  Elec       q    Type
REMARK                         _______ _______ _______ _____ _____    ______ ____
ROOT
ATOM      1  O   UNL     1     -36.580  22.407   2.438  0.00  0.00    -0.324 OA
ATOM      2  O   UNL     1     -38.452  23.689   3.171  0.00  0.00    -0.324 OA
ATOM      3  C   UNL     1     -37.379  21.634   1.539  0.00  0.00    +0.176 C 
ATOM      4  C   UNL     1     -38.820  21.571   2.057  0.00  0.00    +0.170 C 
ATOM      5  C   UNL     1     -39.342  22.981   2.312  0.00  0.00    +0.177 C 
ATOM      6  C   UNL     1     -37.129  23.717   2.625  0.00  0.00    +0.260 C 
ENDROOT
BRANCH   6   7
ATOM      7  C   UNL     1     -36.239  24.462   3.588  0.00  0.00    +0.034 C 
ATOM      8  C   UNL     1     -36.801  25.200   4.633  0.00  0.00    +0.004 C 
ATOM      9  C   UNL     1     -34.852  24.418   3.440  0.00  0.00    +0.004 C 
ATOM     10  C   UNL     1     -35.979  25.889   5.524  0.00  0.00    +0.036 C 
ATOM     11  C   UNL     1     -34.029  25.107   4.330  0.00  0.00    +0.036 C 
ATOM     12  C   UNL     1     -34.593  25.842   5.374  0.00  0.00    +0.134 C 
BRANCH  12  13
ATOM     13  O   UNL     1     -33.791  26.516   6.243  0.00  0.00    -0.506 OA
ATOM     14  H   UNL     1     -32.916  26.740   5.995  0.00  0.00    +0.292 HD
ENDBRANCH  12  13
ENDBRANCH   6   7
BRANCH   4  15
ATOM     15  O   UNL     1     -39.650  20.908   1.118  0.00  0.00    -0.379 OA
ATOM     16  H   UNL     1     -40.552  20.848   1.468  0.00  0.00    +0.211 HD
ENDBRANCH   4  15
BRANCH   3  17
ATOM     17  C   UNL     1     -36.751  20.250   1.427  0.00  0.00    +0.166 C 
BRANCH  17  18
ATOM     18  O   UNL     1     -36.417  19.783   2.733  0.00  0.00    -0.380 OA
ATOM     19  H   UNL     1     -36.233  20.540   3.310  0.00  0.00    +0.211 HD
ENDBRANCH  17  18
BRANCH  17  20
ATOM     20  CA  UNL     1     -35.499  20.246   0.546  0.00  0.00    +0.166 C 
BRANCH  20  22
ATOM     21  O   UNL     1     -34.534  22.018  -1.541  0.00  0.00    -0.275 OA
ATOM     22  N   UNL     1     -34.691  21.427   0.705  0.00  0.00    -0.297 N 
ATOM     23  C   UNL     1     -34.275  22.215  -0.357  0.00  0.00    +0.223 C 
ATOM     24  C   UNL     1     -33.464  23.401   0.092  0.00  0.00    +0.095 C 
ATOM     25  H   UNL     1     -34.419  21.686   1.615  0.00  0.00    +0.150 HD
ENDBRANCH  20  22
BRANCH  20  27
ATOM     26  O   UNL     1     -33.692  19.102   1.675  0.00  0.00    -0.286 OA
ATOM     27  C   UNL     1     -34.594  19.068   0.841  0.00  0.00    +0.229 C 
ENDBRANCH  20  27
ENDBRANCH  17  20
ENDBRANCH   3  17
TORSDOF 8
ENDMDL
MODEL 5
REMARK VINA RESULT:      -5.8      4.504      6.716
REMARK  Name = 189745
REMARK  8 active torsions:
REMARK  status: ('A' for Active; 'I' for Inactive)
REMARK    1  A    between atoms: C_3  and  C_17
REMARK    2  A    between atoms: C_4  and  O_15
REMARK    3  A    between atoms: C_6  and  C_7
REMARK    4  A    between atoms: C_12  and  O_13
REMARK    5  A    between atoms: C_17  and  O_18
REMARK    6  A    between atoms: C_17  and  CA_20
REMARK    7  A    between atoms: CA_20  and  N_22
REMARK    8  A    between atoms: CA_20  and  C_27
REMARK                            x       y       z     vdW  Elec       q    Type
REMARK                         _______ _______ _______ _____ _____    ______ ____
ROOT
ATOM      1  O   UNL     1     -35.596  26.017   3.483  0.00  0.00    -0.324 OA
ATOM      2  O   UNL     1     -35.333  28.175   2.503  0.00  0.00    -0.324 OA
ATOM      3  C   UNL     1     -36.525  25.602   2.478  0.00  0.00    +0.176 C 
ATOM      4  C   UNL     1     -37.257  26.827   1.919  0.00  0.00    +0.170 C 
ATOM      5  C   UNL     1     -36.246  27.869   1.453  0.00  0.00    +0.177 C 
ATOM      6  C   UNL     1     -34.679  26.991   2.972  0.00  0.00    +0.260 C 
ENDROOT
BRANCH   6   7
ATOM      7  C   UNL     1     -33.744  27.383   4.090  0.00  0.00    +0.034 C 
ATOM      8  C   UNL     1     -32.871  28.461   3.927  0.00  0.00    +0.004 C 
ATOM      9  C   UNL     1     -33.748  26.670   5.290  0.00  0.00    +0.004 C 
ATOM     10  C   UNL     1     -32.007  28.824   4.960  0.00  0.00    +0.036 C 
ATOM     11  C   UNL     1     -32.884  27.032   6.323  0.00  0.00    +0.036 C 
ATOM     12  C   UNL     1     -32.013  28.110   6.158  0.00  0.00    +0.134 C 
BRANCH  12  13
ATOM     13  O   UNL     1     -31.169  28.463   7.165  0.00  0.00    -0.506 OA
ATOM     14  H   UNL     1     -31.340  29.233   7.671  0.00  0.00    +0.292 HD
ENDBRANCH  12  13
ENDBRANCH   6   7
BRANCH   4  15
ATOM     15  O   UNL     1     -38.095  26.447   0.840  0.00  0.00    -0.379 OA
ATOM     16  H   UNL     1     -39.020  26.633   1.067  0.00  0.00    +0.211 HD
ENDBRANCH   4  15
BRANCH   3  17
ATOM     17  C   UNL     1     -37.485  24.602   3.111  0.00  0.00    +0.166 C 
BRANCH  17  18
ATOM     18  O   UNL     1     -37.733  24.987   4.462  0.00  0.00    -0.380 OA
ATOM     19  H   UNL     1     -37.251  24.396   5.061  0.00  0.00    +0.211 HD
ENDBRANCH  17  18
BRANCH  17  20
ATOM     20  CA  UNL     1     -36.943  23.171   3.077  0.00  0.00    +0.166 C 
BRANCH  20  22
ATOM     21  O   UNL     1     -34.460  23.328   4.572  0.00  0.00    -0.275 OA
ATOM     22  N   UNL     1     -36.675  22.636   4.387  0.00  0.00    -0.297 N 
ATOM     23  C   UNL     1     -35.450  22.761   5.025  0.00  0.00    +0.223 C 
ATOM     24  C   UNL     1     -35.450  22.134   6.394  0.00  0.00    +0.095 C 
ATOM     25  H   UNL     1     -37.398  22.157   4.853  0.00  0.00    +0.150 HD
ENDBRANCH  20  22
BRANCH  20  27
ATOM     26  O   UNL     1     -38.982  22.554   1.933  0.00  0.00    -0.286 OA
ATOM     27  C   UNL     1     -37.906  22.208   2.415  0.00  0.00    +0.229 C 
ENDBRANCH  20  27
ENDBRANCH  17  20
ENDBRANCH   3  17
TORSDOF 8
ENDMDL
MODEL 6
REMARK VINA RESULT:      -5.8      2.610      4.166
REMARK  Name = 189745
REMARK  8 active torsions:
REMARK  status: ('A' for Active; 'I' for Inactive)
REMARK    1  A    between atoms: C_3  and  C_17
REMARK    2  A    between atoms: C_4  and  O_15
REMARK    3  A    between atoms: C_6  and  C_7
REMARK    4  A    between atoms: C_12  and  O_13
REMARK    5  A    between atoms: C_17  and  O_18
REMARK    6  A    between atoms: C_17  and  CA_20
REMARK    7  A    between atoms: CA_20  and  N_22
REMARK    8  A    between atoms: CA_20  and  C_27
REMARK                            x       y       z     vdW  Elec       q    Type
REMARK                         _______ _______ _______ _____ _____    ______ ____
ROOT
ATOM      1  O   UNL     1     -35.808  23.854   3.429  0.00  0.00    -0.324 OA
ATOM      2  O   UNL     1     -37.185  23.630   1.496  0.00  0.00    -0.324 OA
ATOM      3  C   UNL     1     -36.703  24.789   4.038  0.00  0.00    +0.176 C 
ATOM      4  C   UNL     1     -37.475  25.543   2.950  0.00  0.00    +0.170 C 
ATOM      5  C   UNL     1     -38.145  24.551   2.006  0.00  0.00    +0.177 C 
ATOM      6  C   UNL     1     -36.507  22.955   2.561  0.00  0.00    +0.260 C 
ENDROOT
BRANCH   6   7
ATOM      7  C   UNL     1     -35.498  22.013   1.954  0.00  0.00    +0.034 C 
ATOM      8  C   UNL     1     -35.410  20.695   2.407  0.00  0.00    +0.004 C 
ATOM      9  C   UNL     1     -34.649  22.455   0.938  0.00  0.00    +0.004 C 
ATOM     10  C   UNL     1     -34.477  19.823   1.846  0.00  0.00    +0.036 C 
ATOM     11  C   UNL     1     -33.715  21.584   0.377  0.00  0.00    +0.036 C 
ATOM     12  C   UNL     1     -33.630  20.267   0.830  0.00  0.00    +0.134 C 
BRANCH  12  13
ATOM     13  O   UNL     1     -32.719  19.417   0.283  0.00  0.00    -0.506 OA
ATOM     14  H   UNL     1     -32.898  19.004  -0.538  0.00  0.00    +0.292 HD
ENDBRANCH  12  13
ENDBRANCH   6   7
BRANCH   4  15
ATOM     15  O   UNL     1     -38.450  26.389   3.539  0.00  0.00    -0.379 OA
ATOM     16  H   UNL     1     -39.105  26.642   2.870  0.00  0.00    +0.211 HD
ENDBRANCH   4  15
BRANCH   3  17
ATOM     17  C   UNL     1     -35.878  25.729   4.909  0.00  0.00    +0.166 C 
BRANCH  17  18
ATOM     18  O   UNL     1     -36.749  26.671   5.532  0.00  0.00    -0.380 OA
ATOM     19  H   UNL     1     -37.336  27.060   4.865  0.00  0.00    +0.211 HD
ENDBRANCH  17  18
BRANCH  17  20
ATOM     20  CA  UNL     1     -34.804  26.473   4.111  0.00  0.00    +0.166 C 
BRANCH  20  22
ATOM     21  O   UNL     1     -34.484  27.716   1.507  0.00  0.00    -0.275 OA
ATOM     22  N   UNL     1     -35.208  27.798   3.718  0.00  0.00    -0.297 N 
ATOM     23  C   UNL     1     -35.011  28.309   2.444  0.00  0.00    +0.223 C 
ATOM     24  C   UNL     1     -35.549  29.707   2.297  0.00  0.00    +0.095 C 
ATOM     25  H   UNL     1     -35.644  28.371   4.390  0.00  0.00    +0.150 HD
ENDBRANCH  20  22
BRANCH  20  27
ATOM     26  O   UNL     1     -33.483  26.925   6.086  0.00  0.00    -0.286 OA
ATOM     27  C   UNL     1     -33.517  26.635   4.892  0.00  0.00    +0.229 C 
ENDBRANCH  20  27
ENDBRANCH  17  20
ENDBRANCH   3  17
TORSDOF 8
ENDMDL
MODEL 7
REMARK VINA RESULT:      -5.8      1.626      2.848
REMARK  Name = 189745
REMARK  8 active torsions:
REMARK  status: ('A' for Active; 'I' for Inactive)
REMARK    1  A    between atoms: C_3  and  C_17
REMARK    2  A    between atoms: C_4  and  O_15
REMARK    3  A    between atoms: C_6  and  C_7
REMARK    4  A    between atoms: C_12  and  O_13
REMARK    5  A    between atoms: C_17  and  O_18
REMARK    6  A    between atoms: C_17  and  CA_20
REMARK    7  A    between atoms: CA_20  and  N_22
REMARK    8  A    between atoms: CA_20  and  C_27
REMARK                            x       y       z     vdW  Elec       q    Type
REMARK                         _______ _______ _______ _____ _____    ______ ____
ROOT
ATOM      1  O   UNL     1     -34.824  21.049   1.551  0.00  0.00    -0.324 OA
ATOM      2  O   UNL     1     -35.490  19.067   0.406  0.00  0.00    -0.324 OA
ATOM      3  C   UNL     1     -36.165  21.352   1.942  0.00  0.00    +0.176 C 
ATOM      4  C   UNL     1     -37.143  20.758   0.923  0.00  0.00    +0.170 C 
ATOM      5  C   UNL     1     -36.861  19.271   0.738  0.00  0.00    +0.177 C 
ATOM      6  C   UNL     1     -34.633  19.637   1.401  0.00  0.00    +0.260 C 
ENDROOT
BRANCH   6   7
ATOM      7  C   UNL     1     -33.204  19.402   0.980  0.00  0.00    +0.034 C 
ATOM      8  C   UNL     1     -32.542  18.236   1.373  0.00  0.00    +0.004 C 
ATOM      9  C   UNL     1     -32.538  20.347   0.198  0.00  0.00    +0.004 C 
ATOM     10  C   UNL     1     -31.220  18.017   0.984  0.00  0.00    +0.036 C 
ATOM     11  C   UNL     1     -31.217  20.129  -0.191  0.00  0.00    +0.036 C 
ATOM     12  C   UNL     1     -30.557  18.963   0.202  0.00  0.00    +0.134 C 
BRANCH  12  13
ATOM     13  O   UNL     1     -29.268  18.750  -0.176  0.00  0.00    -0.506 OA
ATOM     14  H   UNL     1     -28.977  17.884  -0.382  0.00  0.00    +0.292 HD
ENDBRANCH  12  13
ENDBRANCH   6   7
BRANCH   4  15
ATOM     15  O   UNL     1     -38.480  20.948   1.358  0.00  0.00    -0.379 OA
ATOM     16  H   UNL     1     -39.064  21.020   0.587  0.00  0.00    +0.211 HD
ENDBRANCH   4  15
BRANCH   3  17
ATOM     17  C   UNL     1     -36.293  22.868   2.040  0.00  0.00    +0.166 C 
BRANCH  17  18
ATOM     18  O   UNL     1     -34.993  23.450   1.972  0.00  0.00    -0.380 OA
ATOM     19  H   UNL     1     -34.464  23.152   2.728  0.00  0.00    +0.211 HD
ENDBRANCH  17  18
BRANCH  17  20
ATOM     20  CA  UNL     1     -36.987  23.313   3.331  0.00  0.00    +0.166 C 
BRANCH  20  22
ATOM     21  O   UNL     1     -34.542  23.722   4.840  0.00  0.00    -0.275 OA
ATOM     22  N   UNL     1     -36.543  22.585   4.492  0.00  0.00    -0.297 N 
ATOM     23  C   UNL     1     -35.352  22.853   5.150  0.00  0.00    +0.223 C 
ATOM     24  C   UNL     1     -35.145  21.962   6.345  0.00  0.00    +0.095 C 
ATOM     25  H   UNL     1     -37.114  21.860   4.834  0.00  0.00    +0.150 HD
ENDBRANCH  20  22
BRANCH  20  27
ATOM     26  O   UNL     1     -36.963  25.678   2.823  0.00  0.00    -0.286 OA
ATOM     27  C   UNL     1     -36.751  24.778   3.633  0.00  0.00    +0.229 C 
ENDBRANCH  20  27
ENDBRANCH  17  20
ENDBRANCH   3  17
TORSDOF 8
ENDMDL
MODEL 8
REMARK VINA RESULT:      -5.7      1.728      2.705
REMARK  Name = 189745
REMARK  8 active torsions:
REMARK  status: ('A' for Active; 'I' for Inactive)
REMARK    1  A    between atoms: C_3  and  C_17
REMARK    2  A    between atoms: C_4  and  O_15
REMARK    3  A    between atoms: C_6  and  C_7
REMARK    4  A    between atoms: C_12  and  O_13
REMARK    5  A    between atoms: C_17  and  O_18
REMARK    6  A    between atoms: C_17  and  CA_20
REMARK    7  A    between atoms: CA_20  and  N_22
REMARK    8  A    between atoms: CA_20  and  C_27
REMARK                            x       y       z     vdW  Elec       q    Type
REMARK                         _______ _______ _______ _____ _____    ______ ____
ROOT
ATOM      1  O   UNL     1     -34.759  22.472   1.059  0.00  0.00    -0.324 OA
ATOM      2  O   UNL     1     -32.776  23.137  -0.085  0.00  0.00    -0.324 OA
ATOM      3  C   UNL     1     -35.399  23.728   0.815  0.00  0.00    +0.176 C 
ATOM      4  C   UNL     1     -34.339  24.824   0.672  0.00  0.00    +0.170 C 
ATOM      5  C   UNL     1     -33.315  24.422  -0.385  0.00  0.00    +0.177 C 
ATOM      6  C   UNL     1     -33.817  22.160   0.027  0.00  0.00    +0.260 C 
ENDROOT
BRANCH   6   7
ATOM      7  C   UNL     1     -33.181  20.834   0.360  0.00  0.00    +0.034 C 
ATOM      8  C   UNL     1     -33.884  19.891   1.114  0.00  0.00    +0.004 C 
ATOM      9  C   UNL     1     -31.890  20.544  -0.083  0.00  0.00    +0.004 C 
ATOM     10  C   UNL     1     -33.297  18.663   1.423  0.00  0.00    +0.036 C 
ATOM     11  C   UNL     1     -31.302  19.317   0.226  0.00  0.00    +0.036 C 
ATOM     12  C   UNL     1     -32.006  18.376   0.978  0.00  0.00    +0.134 C 
BRANCH  12  13
ATOM     13  O   UNL     1     -31.433  17.179   1.280  0.00  0.00    -0.506 OA
ATOM     14  H   UNL     1     -31.383  16.896   2.171  0.00  0.00    +0.292 HD
ENDBRANCH  12  13
ENDBRANCH   6   7
BRANCH   4  15
ATOM     15  O   UNL     1     -34.950  26.053   0.313  0.00  0.00    -0.379 OA
ATOM     16  H   UNL     1     -35.174  26.040  -0.631  0.00  0.00    +0.211 HD
ENDBRANCH   4  15
BRANCH   3  17
ATOM     17  C   UNL     1     -36.351  24.001   1.974  0.00  0.00    +0.166 C 
BRANCH  17  18
ATOM     18  O   UNL     1     -35.722  24.895   2.892  0.00  0.00    -0.380 OA
ATOM     19  H   UNL     1     -35.357  25.651   2.408  0.00  0.00    +0.211 HD
ENDBRANCH  17  18
BRANCH  17  20
ATOM     20  CA  UNL     1     -36.762  22.721   2.706  0.00  0.00    +0.166 C 
BRANCH  20  22
ATOM     21  O   UNL     1     -35.145  20.788   4.145  0.00  0.00    -0.275 OA
ATOM     22  N   UNL     1     -36.421  22.734   4.105  0.00  0.00    -0.297 N 
ATOM     23  C   UNL     1     -35.638  21.761   4.707  0.00  0.00    +0.223 C 
ATOM     24  C   UNL     1     -35.415  22.030   6.172  0.00  0.00    +0.095 C 
ATOM     25  H   UNL     1     -36.762  23.471   4.662  0.00  0.00    +0.150 HD
ENDBRANCH  20  22
BRANCH  20  27
ATOM     26  O   UNL     1     -38.754  21.509   2.063  0.00  0.00    -0.286 OA
ATOM     27  C   UNL     1     -38.255  22.475   2.635  0.00  0.00    +0.229 C 
ENDBRANCH  20  27
ENDBRANCH  17  20
ENDBRANCH   3  17
TORSDOF 8
ENDMDL
MODEL 9
REMARK VINA RESULT:      -5.6      3.455      7.213
REMARK  Name = 189745
REMARK  8 active torsions:
REMARK  status: ('A' for Active; 'I' for Inactive)
REMARK    1  A    between atoms: C_3  and  C_17
REMARK    2  A    between atoms: C_4  and  O_15
REMARK    3  A    between atoms: C_6  and  C_7
REMARK    4  A    between atoms: C_12  and  O_13
REMARK    5  A    between atoms: C_17  and  O_18
REMARK    6  A    between atoms: C_17  and  CA_20
REMARK    7  A    between atoms: CA_20  and  N_22
REMARK    8  A    between atoms: CA_20  and  C_27
REMARK                            x       y       z     vdW  Elec       q    Type
REMARK                         _______ _______ _______ _____ _____    ______ ____
ROOT
ATOM      1  O   UNL     1     -36.541  22.244   2.594  0.00  0.00    -0.324 OA
ATOM      2  O   UNL     1     -38.398  23.650   3.105  0.00  0.00    -0.324 OA
ATOM      3  C   UNL     1     -37.304  21.460   1.673  0.00  0.00    +0.176 C 
ATOM      4  C   UNL     1     -38.783  21.494   2.073  0.00  0.00    +0.170 C 
ATOM      5  C   UNL     1     -39.251  22.938   2.212  0.00  0.00    +0.177 C 
ATOM      6  C   UNL     1     -37.036  23.586   2.669  0.00  0.00    +0.260 C 
ENDROOT
BRANCH   6   7
ATOM      7  C   UNL     1     -36.189  24.341   3.663  0.00  0.00    +0.034 C 
ATOM      8  C   UNL     1     -36.781  25.266   4.527  0.00  0.00    +0.004 C 
ATOM      9  C   UNL     1     -34.812  24.118   3.725  0.00  0.00    +0.004 C 
ATOM     10  C   UNL     1     -35.999  25.964   5.447  0.00  0.00    +0.036 C 
ATOM     11  C   UNL     1     -34.030  24.816   4.644  0.00  0.00    +0.036 C 
ATOM     12  C   UNL     1     -34.623  25.739   5.506  0.00  0.00    +0.134 C 
BRANCH  12  13
ATOM     13  O   UNL     1     -33.860  26.421   6.403  0.00  0.00    -0.506 OA
ATOM     14  H   UNL     1     -32.955  26.582   6.222  0.00  0.00    +0.292 HD
ENDBRANCH  12  13
ENDBRANCH   6   7
BRANCH   4  15
ATOM     15  O   UNL     1     -39.568  20.819   1.103  0.00  0.00    -0.379 OA
ATOM     16  H   UNL     1     -40.203  20.238   1.548  0.00  0.00    +0.211 HD
ENDBRANCH   4  15
BRANCH   3  17
ATOM     17  C   UNL     1     -36.740  20.045   1.684  0.00  0.00    +0.166 C 
BRANCH  17  18
ATOM     18  O   UNL     1     -35.598  20.005   2.537  0.00  0.00    -0.380 OA
ATOM     19  H   UNL     1     -35.799  19.474   3.323  0.00  0.00    +0.211 HD
ENDBRANCH  17  18
BRANCH  17  20
ATOM     20  CA  UNL     1     -36.352  19.560   0.284  0.00  0.00    +0.166 C 
BRANCH  20  22
ATOM     21  O   UNL     1     -37.601  16.953   0.029  0.00  0.00    -0.275 OA
ATOM     22  N   UNL     1     -37.487  19.210  -0.529  0.00  0.00    -0.297 N 
ATOM     23  C   UNL     1     -38.017  17.930  -0.588  0.00  0.00    +0.223 C 
ATOM     24  C   UNL     1     -39.216  17.846  -1.495  0.00  0.00    +0.095 C 
ATOM     25  H   UNL     1     -37.908  19.915  -1.072  0.00  0.00    +0.150 HD
ENDBRANCH  20  22
BRANCH  20  27
ATOM     26  O   UNL     1     -34.475  20.402  -0.987  0.00  0.00    -0.286 OA
ATOM     27  C   UNL     1     -35.580  20.607  -0.492  0.00  0.00    +0.229 C 
ENDBRANCH  20  27
ENDBRANCH  17  20
ENDBRANCH   3  17
TORSDOF 8
ENDMDL
