MODEL 1
REMARK VINA RESULT:      -6.2      0.000      0.000
REMARK  Name = 54684614
REMARK  9 active torsions:
REMARK  status: ('A' for Active; 'I' for Inactive)
REMARK    1  A    between atoms: C_1  and  C_4
REMARK    2  A    between atoms: C_1  and  C_16
REMARK    3  A    between atoms: C_1  and  O_22
REMARK    4  A    between atoms: C_6  and  O_10
REMARK    5  A    between atoms: C_8  and  C_13
REMARK    6  A    between atoms: C_13  and  O_14
REMARK    7  A    between atoms: O_22  and  C_24
REMARK    8  A    between atoms: C_24  and  C_25
REMARK    9  A    between atoms: C_25  and  C_26
REMARK                            x       y       z     vdW  Elec       q    Type
REMARK                         _______ _______ _______ _____ _____    ______ ____
ROOT
ATOM      1  C   UNL     1     -35.948  21.734   1.307  0.00  0.00    +0.227 C 
ENDROOT
BRANCH   1   4
ATOM      2  O   UNL     1     -35.260  26.262   2.525  0.00  0.00    -0.269 OA
ATOM      3  N   UNL     1     -35.598  24.049   2.014  0.00  0.00    -0.280 N 
ATOM      4  C   UNL     1     -35.813  22.744   2.400  0.00  0.00    +0.075 C 
ATOM      5  C   UNL     1     -35.892  22.446   3.705  0.00  0.00    +0.051 C 
ATOM      6  C   UNL     1     -35.752  23.480   4.707  0.00  0.00    +0.145 C 
ATOM      7  C   UNL     1     -35.452  25.105   2.896  0.00  0.00    +0.259 C 
ATOM      8  C   UNL     1     -35.540  24.766   4.360  0.00  0.00    +0.162 C 
ATOM      9  H   UNL     1     -35.543  24.241   1.050  0.00  0.00    +0.155 HD
BRANCH   6  10
ATOM     10  O   UNL     1     -35.859  22.991   5.988  0.00  0.00    -0.505 OA
ATOM     11  H   UNL     1     -35.260  22.338   6.292  0.00  0.00    +0.292 HD
ENDBRANCH   6  10
BRANCH   8  13
ATOM     12  O   UNL     1     -34.447  25.932   6.119  0.00  0.00    -0.245 OA
ATOM     13  C   UNL     1     -35.395  25.828   5.368  0.00  0.00    +0.346 C 
BRANCH  13  14
ATOM     14  O   UNL     1     -36.467  26.642   5.316  0.00  0.00    -0.477 OA
ATOM     15  H   UNL     1     -37.310  26.323   5.571  0.00  0.00    +0.295 HD
ENDBRANCH  13  14
ENDBRANCH   8  13
ENDBRANCH   1   4
BRANCH   1  16
ATOM     16  C   UNL     1     -34.678  20.948   1.080  0.00  0.00    +0.023 C 
ATOM     17  C   UNL     1     -33.660  21.483   0.290  0.00  0.00    -0.000 C 
ATOM     18  C   UNL     1     -34.523  19.690   1.660  0.00  0.00    -0.000 C 
ATOM     19  C   UNL     1     -32.486  20.758   0.080  0.00  0.00    -0.000 C 
ATOM     20  C   UNL     1     -33.350  18.965   1.450  0.00  0.00    -0.000 C 
ATOM     21  C   UNL     1     -32.332  19.498   0.659  0.00  0.00    -0.000 C 
ENDBRANCH   1  16
BRANCH   1  22
ATOM     22  O   UNL     1     -37.009  20.824   1.616  0.00  0.00    -0.442 OA
BRANCH  22  24
ATOM     23  O   UNL     1     -38.309  20.665  -0.283  0.00  0.00    -0.250 OA
ATOM     24  C   UNL     1     -38.153  20.986   0.887  0.00  0.00    +0.318 C 
BRANCH  24  25
ATOM     25  C   UNL     1     -39.195  21.665   1.750  0.00  0.00    +0.110 C 
BRANCH  25  26
ATOM     26  C   UNL     1     -39.346  23.164   1.446  0.00  0.00    +0.011 C 
ATOM     27  C   UNL     1     -40.626  23.449   0.656  0.00  0.00    +0.001 C 
ATOM     28  C   UNL     1     -39.353  23.965   2.749  0.00  0.00    +0.001 C 
ENDBRANCH  25  26
ENDBRANCH  24  25
ENDBRANCH  22  24
ENDBRANCH   1  22
TORSDOF 9
ENDMDL
MODEL 2
REMARK VINA RESULT:      -6.2      2.113      5.227
REMARK  Name = 54684614
REMARK  9 active torsions:
REMARK  status: ('A' for Active; 'I' for Inactive)
REMARK    1  A    between atoms: C_1  and  C_4
REMARK    2  A    between atoms: C_1  and  C_16
REMARK    3  A    between atoms: C_1  and  O_22
REMARK    4  A    between atoms: C_6  and  O_10
REMARK    5  A    between atoms: C_8  and  C_13
REMARK    6  A    between atoms: C_13  and  O_14
REMARK    7  A    between atoms: O_22  and  C_24
REMARK    8  A    between atoms: C_24  and  C_25
REMARK    9  A    between atoms: C_25  and  C_26
REMARK                            x       y       z     vdW  Elec       q    Type
REMARK                         _______ _______ _______ _____ _____    ______ ____
ROOT
ATOM      1  C   UNL     1     -36.117  22.180   3.271  0.00  0.00    +0.227 C 
ENDROOT
BRANCH   1   4
ATOM      2  O   UNL     1     -40.428  21.062   1.651  0.00  0.00    -0.269 OA
ATOM      3  N   UNL     1     -38.354  21.682   2.418  0.00  0.00    -0.280 N 
ATOM      4  C   UNL     1     -37.407  22.647   2.677  0.00  0.00    +0.075 C 
ATOM      5  C   UNL     1     -37.676  23.929   2.394  0.00  0.00    +0.051 C 
ATOM      6  C   UNL     1     -38.949  24.306   1.819  0.00  0.00    +0.145 C 
ATOM      7  C   UNL     1     -39.599  21.943   1.872  0.00  0.00    +0.259 C 
ATOM      8  C   UNL     1     -39.897  23.383   1.554  0.00  0.00    +0.162 C 
ATOM      9  H   UNL     1     -38.132  20.748   2.635  0.00  0.00    +0.155 HD
BRANCH   6  10
ATOM     10  O   UNL     1     -39.047  25.660   1.595  0.00  0.00    -0.505 OA
ATOM     11  H   UNL     1     -39.889  26.057   1.492  0.00  0.00    +0.292 HD
ENDBRANCH   6  10
BRANCH   8  13
ATOM     12  O   UNL     1     -41.899  24.652   1.382  0.00  0.00    -0.245 OA
ATOM     13  C   UNL     1     -41.196  23.751   0.970  0.00  0.00    +0.346 C 
BRANCH  13  14
ATOM     14  O   UNL     1     -41.464  22.939  -0.070  0.00  0.00    -0.477 OA
ATOM     15  H   UNL     1     -41.291  22.021  -0.004  0.00  0.00    +0.295 HD
ENDBRANCH  13  14
ENDBRANCH   8  13
ENDBRANCH   1   4
BRANCH   1  16
ATOM     16  C   UNL     1     -35.190  21.572   2.246  0.00  0.00    +0.023 C 
ATOM     17  C   UNL     1     -34.608  22.378   1.266  0.00  0.00    -0.000 C 
ATOM     18  C   UNL     1     -34.914  20.205   2.278  0.00  0.00    -0.000 C 
ATOM     19  C   UNL     1     -33.752  21.816   0.319  0.00  0.00    -0.000 C 
ATOM     20  C   UNL     1     -34.059  19.643   1.331  0.00  0.00    -0.000 C 
ATOM     21  C   UNL     1     -33.477  20.449   0.351  0.00  0.00    -0.000 C 
ENDBRANCH   1  16
BRANCH   1  22
ATOM     22  O   UNL     1     -35.452  23.276   3.909  0.00  0.00    -0.442 OA
BRANCH  22  24
ATOM     23  O   UNL     1     -35.971  22.548   6.035  0.00  0.00    -0.250 OA
ATOM     24  C   UNL     1     -35.732  23.442   5.235  0.00  0.00    +0.318 C 
BRANCH  24  25
ATOM     25  C   UNL     1     -35.739  24.922   5.556  0.00  0.00    +0.110 C 
BRANCH  25  26
ATOM     26  C   UNL     1     -34.557  25.680   4.931  0.00  0.00    +0.011 C 
ATOM     27  C   UNL     1     -35.033  26.712   3.906  0.00  0.00    +0.001 C 
ATOM     28  C   UNL     1     -33.743  26.374   6.024  0.00  0.00    +0.001 C 
ENDBRANCH  25  26
ENDBRANCH  24  25
ENDBRANCH  22  24
ENDBRANCH   1  22
TORSDOF 9
ENDMDL
MODEL 3
REMARK VINA RESULT:      -6.2      1.750      3.005
REMARK  Name = 54684614
REMARK  9 active torsions:
REMARK  status: ('A' for Active; 'I' for Inactive)
REMARK    1  A    between atoms: C_1  and  C_4
REMARK    2  A    between atoms: C_1  and  C_16
REMARK    3  A    between atoms: C_1  and  O_22
REMARK    4  A    between atoms: C_6  and  O_10
REMARK    5  A    between atoms: C_8  and  C_13
REMARK    6  A    between atoms: C_13  and  O_14
REMARK    7  A    between atoms: O_22  and  C_24
REMARK    8  A    between atoms: C_24  and  C_25
REMARK    9  A    between atoms: C_25  and  C_26
REMARK                            x       y       z     vdW  Elec       q    Type
REMARK                         _______ _______ _______ _____ _____    ______ ____
ROOT
ATOM      1  C   UNL     1     -35.290  21.040   1.064  0.00  0.00    +0.227 C 
ENDROOT
BRANCH   1   4
ATOM      2  O   UNL     1     -34.146  25.429   2.439  0.00  0.00    -0.269 OA
ATOM      3  N   UNL     1     -34.726  23.287   1.849  0.00  0.00    -0.280 N 
ATOM      4  C   UNL     1     -35.249  22.052   2.163  0.00  0.00    +0.075 C 
ATOM      5  C   UNL     1     -35.689  21.819   3.408  0.00  0.00    +0.051 C 
ATOM      6  C   UNL     1     -35.617  22.849   4.421  0.00  0.00    +0.145 C 
ATOM      7  C   UNL     1     -34.617  24.335   2.746  0.00  0.00    +0.259 C 
ATOM      8  C   UNL     1     -35.110  24.069   4.143  0.00  0.00    +0.162 C 
ATOM      9  H   UNL     1     -34.410  23.433   0.928  0.00  0.00    +0.155 HD
BRANCH   6  10
ATOM     10  O   UNL     1     -36.110  22.432   5.635  0.00  0.00    -0.505 OA
ATOM     11  H   UNL     1     -37.035  22.410   5.782  0.00  0.00    +0.292 HD
ENDBRANCH   6  10
BRANCH   8  13
ATOM     12  O   UNL     1     -35.990  25.573   5.759  0.00  0.00    -0.245 OA
ATOM     13  C   UNL     1     -35.031  25.126   5.162  0.00  0.00    +0.346 C 
BRANCH  13  14
ATOM     14  O   UNL     1     -33.747  25.504   5.315  0.00  0.00    -0.477 OA
ATOM     15  H   UNL     1     -33.243  25.169   6.030  0.00  0.00    +0.295 HD
ENDBRANCH  13  14
ENDBRANCH   8  13
ENDBRANCH   1   4
BRANCH   1  16
ATOM     16  C   UNL     1     -33.980  20.308   0.898  0.00  0.00    +0.023 C 
ATOM     17  C   UNL     1     -33.774  19.090   1.548  0.00  0.00    -0.000 C 
ATOM     18  C   UNL     1     -32.976  20.848   0.094  0.00  0.00    -0.000 C 
ATOM     19  C   UNL     1     -32.563  18.414   1.394  0.00  0.00    -0.000 C 
ATOM     20  C   UNL     1     -31.766  20.172  -0.059  0.00  0.00    -0.000 C 
ATOM     21  C   UNL     1     -31.559  18.955   0.592  0.00  0.00    -0.000 C 
ENDBRANCH   1  16
BRANCH   1  22
ATOM     22  O   UNL     1     -36.327  20.087   1.320  0.00  0.00    -0.442 OA
BRANCH  22  24
ATOM     23  O   UNL     1     -38.383  21.025   0.860  0.00  0.00    -0.250 OA
ATOM     24  C   UNL     1     -37.471  20.254   0.594  0.00  0.00    +0.318 C 
BRANCH  24  25
ATOM     25  C   UNL     1     -37.453  19.301  -0.582  0.00  0.00    +0.110 C 
BRANCH  25  26
ATOM     26  C   UNL     1     -36.799  17.950  -0.253  0.00  0.00    +0.011 C 
ATOM     27  C   UNL     1     -37.816  16.808  -0.304  0.00  0.00    +0.001 C 
ATOM     28  C   UNL     1     -35.656  17.669  -1.231  0.00  0.00    +0.001 C 
ENDBRANCH  25  26
ENDBRANCH  24  25
ENDBRANCH  22  24
ENDBRANCH   1  22
TORSDOF 9
ENDMDL
MODEL 4
REMARK VINA RESULT:      -6.2      2.852      6.205
REMARK  Name = 54684614
REMARK  9 active torsions:
REMARK  status: ('A' for Active; 'I' for Inactive)
REMARK    1  A    between atoms: C_1  and  C_4
REMARK    2  A    between atoms: C_1  and  C_16
REMARK    3  A    between atoms: C_1  and  O_22
REMARK    4  A    between atoms: C_6  and  O_10
REMARK    5  A    between atoms: C_8  and  C_13
REMARK    6  A    between atoms: C_13  and  O_14
REMARK    7  A    between atoms: O_22  and  C_24
REMARK    8  A    between atoms: C_24  and  C_25
REMARK    9  A    between atoms: C_25  and  C_26
REMARK                            x       y       z     vdW  Elec       q    Type
REMARK                         _______ _______ _______ _____ _____    ______ ____
ROOT
ATOM      1  C   UNL     1     -35.746  21.634   2.297  0.00  0.00    +0.227 C 
ENDROOT
BRANCH   1   4
ATOM      2  O   UNL     1     -40.450  21.052   2.260  0.00  0.00    -0.269 OA
ATOM      3  N   UNL     1     -38.179  21.387   2.216  0.00  0.00    -0.280 N 
ATOM      4  C   UNL     1     -37.064  22.005   1.695  0.00  0.00    +0.075 C 
ATOM      5  C   UNL     1     -37.205  22.891   0.698  0.00  0.00    +0.051 C 
ATOM      6  C   UNL     1     -38.514  23.200   0.167  0.00  0.00    +0.145 C 
ATOM      7  C   UNL     1     -39.470  21.618   1.777  0.00  0.00    +0.259 C 
ATOM      8  C   UNL     1     -39.625  22.611   0.657  0.00  0.00    +0.162 C 
ATOM      9  H   UNL     1     -38.048  20.741   2.948  0.00  0.00    +0.155 HD
BRANCH   6  10
ATOM     10  O   UNL     1     -38.466  24.126  -0.850  0.00  0.00    -0.505 OA
ATOM     11  H   UNL     1     -37.650  24.520  -1.086  0.00  0.00    +0.292 HD
ENDBRANCH   6  10
BRANCH   8  13
ATOM     12  O   UNL     1     -41.417  24.037   0.022  0.00  0.00    -0.245 OA
ATOM     13  C   UNL     1     -40.962  22.916   0.126  0.00  0.00    +0.346 C 
BRANCH  13  14
ATOM     14  O   UNL     1     -41.580  21.768  -0.214  0.00  0.00    -0.477 OA
ATOM     15  H   UNL     1     -41.744  21.114   0.437  0.00  0.00    +0.295 HD
ENDBRANCH  13  14
ENDBRANCH   8  13
ENDBRANCH   1   4
BRANCH   1  16
ATOM     16  C   UNL     1     -35.597  22.124   3.718  0.00  0.00    +0.023 C 
ATOM     17  C   UNL     1     -35.244  21.232   4.730  0.00  0.00    -0.000 C 
ATOM     18  C   UNL     1     -35.811  23.469   4.018  0.00  0.00    -0.000 C 
ATOM     19  C   UNL     1     -35.106  21.684   6.043  0.00  0.00    -0.000 C 
ATOM     20  C   UNL     1     -35.674  23.922   5.329  0.00  0.00    -0.000 C 
ATOM     21  C   UNL     1     -35.322  23.029   6.342  0.00  0.00    -0.000 C 
ENDBRANCH   1  16
BRANCH   1  22
ATOM     22  O   UNL     1     -35.585  20.212   2.275  0.00  0.00    -0.442 OA
BRANCH  22  24
ATOM     23  O   UNL     1     -35.651  18.881   0.393  0.00  0.00    -0.250 OA
ATOM     24  C   UNL     1     -35.089  19.694   1.114  0.00  0.00    +0.318 C 
BRANCH  24  25
ATOM     25  C   UNL     1     -33.705  20.260   0.873  0.00  0.00    +0.110 C 
BRANCH  25  26
ATOM     26  C   UNL     1     -32.701  19.207   0.379  0.00  0.00    +0.011 C 
ATOM     27  C   UNL     1     -31.356  19.842   0.017  0.00  0.00    +0.001 C 
ATOM     28  C   UNL     1     -32.495  18.135   1.451  0.00  0.00    +0.001 C 
ENDBRANCH  25  26
ENDBRANCH  24  25
ENDBRANCH  22  24
ENDBRANCH   1  22
TORSDOF 9
ENDMDL
MODEL 5
REMARK VINA RESULT:      -6.2      2.422      5.383
REMARK  Name = 54684614
REMARK  9 active torsions:
REMARK  status: ('A' for Active; 'I' for Inactive)
REMARK    1  A    between atoms: C_1  and  C_4
REMARK    2  A    between atoms: C_1  and  C_16
REMARK    3  A    between atoms: C_1  and  O_22
REMARK    4  A    between atoms: C_6  and  O_10
REMARK    5  A    between atoms: C_8  and  C_13
REMARK    6  A    between atoms: C_13  and  O_14
REMARK    7  A    between atoms: O_22  and  C_24
REMARK    8  A    between atoms: C_24  and  C_25
REMARK    9  A    between atoms: C_25  and  C_26
REMARK                            x       y       z     vdW  Elec       q    Type
REMARK                         _______ _______ _______ _____ _____    ______ ____
ROOT
ATOM      1  C   UNL     1     -36.967  22.614   3.540  0.00  0.00    +0.227 C 
ENDROOT
BRANCH   1   4
ATOM      2  O   UNL     1     -39.932  26.270   2.993  0.00  0.00    -0.269 OA
ATOM      3  N   UNL     1     -38.541  24.456   3.205  0.00  0.00    -0.280 N 
ATOM      4  C   UNL     1     -38.185  23.167   2.874  0.00  0.00    +0.075 C 
ATOM      5  C   UNL     1     -38.927  22.485   1.990  0.00  0.00    +0.051 C 
ATOM      6  C   UNL     1     -40.094  23.088   1.384  0.00  0.00    +0.145 C 
ATOM      7  C   UNL     1     -39.637  25.118   2.680  0.00  0.00    +0.259 C 
ATOM      8  C   UNL     1     -40.467  24.348   1.689  0.00  0.00    +0.162 C 
ATOM      9  H   UNL     1     -37.980  24.936   3.857  0.00  0.00    +0.155 HD
BRANCH   6  10
ATOM     10  O   UNL     1     -40.730  22.242   0.506  0.00  0.00    -0.505 OA
ATOM     11  H   UNL     1     -41.610  21.967   0.674  0.00  0.00    +0.292 HD
ENDBRANCH   6  10
BRANCH   8  13
ATOM     12  O   UNL     1     -42.757  24.472   1.066  0.00  0.00    -0.245 OA
ATOM     13  C   UNL     1     -41.651  24.974   1.081  0.00  0.00    +0.346 C 
BRANCH  13  14
ATOM     14  O   UNL     1     -41.308  26.167   0.559  0.00  0.00    -0.477 OA
ATOM     15  H   UNL     1     -41.787  26.937   0.794  0.00  0.00    +0.295 HD
ENDBRANCH  13  14
ENDBRANCH   8  13
ENDBRANCH   1   4
BRANCH   1  16
ATOM     16  C   UNL     1     -35.940  22.113   2.552  0.00  0.00    +0.023 C 
ATOM     17  C   UNL     1     -35.330  23.004   1.669  0.00  0.00    -0.000 C 
ATOM     18  C   UNL     1     -35.601  20.761   2.523  0.00  0.00    -0.000 C 
ATOM     19  C   UNL     1     -34.382  22.543   0.756  0.00  0.00    -0.000 C 
ATOM     20  C   UNL     1     -34.653  20.299   1.611  0.00  0.00    -0.000 C 
ATOM     21  C   UNL     1     -34.044  21.190   0.726  0.00  0.00    -0.000 C 
ENDBRANCH   1  16
BRANCH   1  22
ATOM     22  O   UNL     1     -36.368  23.616   4.368  0.00  0.00    -0.442 OA
BRANCH  22  24
ATOM     23  O   UNL     1     -35.961  22.308   6.223  0.00  0.00    -0.250 OA
ATOM     24  C   UNL     1     -35.613  23.148   5.405  0.00  0.00    +0.318 C 
BRANCH  24  25
ATOM     25  C   UNL     1     -34.279  23.865   5.406  0.00  0.00    +0.110 C 
BRANCH  25  26
ATOM     26  C   UNL     1     -34.379  25.326   4.942  0.00  0.00    +0.011 C 
ATOM     27  C   UNL     1     -33.868  26.291   6.014  0.00  0.00    +0.001 C 
ATOM     28  C   UNL     1     -33.583  25.520   3.650  0.00  0.00    +0.001 C 
ENDBRANCH  25  26
ENDBRANCH  24  25
ENDBRANCH  22  24
ENDBRANCH   1  22
TORSDOF 9
ENDMDL
MODEL 6
REMARK VINA RESULT:      -6.1      2.314      5.580
REMARK  Name = 54684614
REMARK  9 active torsions:
REMARK  status: ('A' for Active; 'I' for Inactive)
REMARK    1  A    between atoms: C_1  and  C_4
REMARK    2  A    between atoms: C_1  and  C_16
REMARK    3  A    between atoms: C_1  and  O_22
REMARK    4  A    between atoms: C_6  and  O_10
REMARK    5  A    between atoms: C_8  and  C_13
REMARK    6  A    between atoms: C_13  and  O_14
REMARK    7  A    between atoms: O_22  and  C_24
REMARK    8  A    between atoms: C_24  and  C_25
REMARK    9  A    between atoms: C_25  and  C_26
REMARK                            x       y       z     vdW  Elec       q    Type
REMARK                         _______ _______ _______ _____ _____    ______ ____
ROOT
ATOM      1  C   UNL     1     -35.971  20.879   2.612  0.00  0.00    +0.227 C 
ENDROOT
BRANCH   1   4
ATOM      2  O   UNL     1     -38.664  19.237  -0.925  0.00  0.00    -0.269 OA
ATOM      3  N   UNL     1     -37.418  20.087   0.806  0.00  0.00    -0.280 N 
ATOM      4  C   UNL     1     -37.257  20.964   1.855  0.00  0.00    +0.075 C 
ATOM      5  C   UNL     1     -38.237  21.832   2.147  0.00  0.00    +0.051 C 
ATOM      6  C   UNL     1     -39.457  21.855   1.369  0.00  0.00    +0.145 C 
ATOM      7  C   UNL     1     -38.547  20.031   0.007  0.00  0.00    +0.259 C 
ATOM      8  C   UNL     1     -39.643  21.008   0.335  0.00  0.00    +0.162 C 
ATOM      9  H   UNL     1     -36.684  19.460   0.613  0.00  0.00    +0.155 HD
BRANCH   6  10
ATOM     10  O   UNL     1     -40.346  22.808   1.809  0.00  0.00    -0.505 OA
ATOM     11  H   UNL     1     -40.045  23.522   2.335  0.00  0.00    +0.292 HD
ENDBRANCH   6  10
BRANCH   8  13
ATOM     12  O   UNL     1     -41.980  20.759  -0.023  0.00  0.00    -0.245 OA
ATOM     13  C   UNL     1     -40.878  21.020  -0.464  0.00  0.00    +0.346 C 
BRANCH  13  14
ATOM     14  O   UNL     1     -40.585  21.358  -1.734  0.00  0.00    -0.477 OA
ATOM     15  H   UNL     1     -40.903  22.164  -2.089  0.00  0.00    +0.295 HD
ENDBRANCH  13  14
ENDBRANCH   8  13
ENDBRANCH   1   4
BRANCH   1  16
ATOM     16  C   UNL     1     -34.768  20.775   1.704  0.00  0.00    +0.023 C 
ATOM     17  C   UNL     1     -34.393  21.863   0.915  0.00  0.00    -0.000 C 
ATOM     18  C   UNL     1     -34.031  19.592   1.656  0.00  0.00    -0.000 C 
ATOM     19  C   UNL     1     -33.283  21.767   0.076  0.00  0.00    -0.000 C 
ATOM     20  C   UNL     1     -32.921  19.496   0.818  0.00  0.00    -0.000 C 
ATOM     21  C   UNL     1     -32.547  20.583   0.027  0.00  0.00    -0.000 C 
ENDBRANCH   1  16
BRANCH   1  22
ATOM     22  O   UNL     1     -35.824  22.030   3.450  0.00  0.00    -0.442 OA
BRANCH  22  24
ATOM     23  O   UNL     1     -35.103  20.687   5.181  0.00  0.00    -0.250 OA
ATOM     24  C   UNL     1     -35.320  21.789   4.696  0.00  0.00    +0.318 C 
BRANCH  24  25
ATOM     25  C   UNL     1     -35.106  23.110   5.406  0.00  0.00    +0.110 C 
BRANCH  25  26
ATOM     26  C   UNL     1     -35.315  24.327   4.491  0.00  0.00    +0.011 C 
ATOM     27  C   UNL     1     -36.213  25.375   5.152  0.00  0.00    +0.001 C 
ATOM     28  C   UNL     1     -33.965  24.952   4.134  0.00  0.00    +0.001 C 
ENDBRANCH  25  26
ENDBRANCH  24  25
ENDBRANCH  22  24
ENDBRANCH   1  22
TORSDOF 9
ENDMDL
MODEL 7
REMARK VINA RESULT:      -6.0      1.570      2.931
REMARK  Name = 54684614
REMARK  9 active torsions:
REMARK  status: ('A' for Active; 'I' for Inactive)
REMARK    1  A    between atoms: C_1  and  C_4
REMARK    2  A    between atoms: C_1  and  C_16
REMARK    3  A    between atoms: C_1  and  O_22
REMARK    4  A    between atoms: C_6  and  O_10
REMARK    5  A    between atoms: C_8  and  C_13
REMARK    6  A    between atoms: C_13  and  O_14
REMARK    7  A    between atoms: O_22  and  C_24
REMARK    8  A    between atoms: C_24  and  C_25
REMARK    9  A    between atoms: C_25  and  C_26
REMARK                            x       y       z     vdW  Elec       q    Type
REMARK                         _______ _______ _______ _____ _____    ______ ____
ROOT
ATOM      1  C   UNL     1     -35.525  21.432   1.196  0.00  0.00    +0.227 C 
ENDROOT
BRANCH   1   4
ATOM      2  O   UNL     1     -36.130  22.752   5.707  0.00  0.00    -0.269 OA
ATOM      3  N   UNL     1     -35.807  22.186   3.505  0.00  0.00    -0.280 N 
ATOM      4  C   UNL     1     -35.387  22.500   2.232  0.00  0.00    +0.075 C 
ATOM      5  C   UNL     1     -34.883  23.718   1.984  0.00  0.00    +0.051 C 
ATOM      6  C   UNL     1     -34.779  24.701   3.040  0.00  0.00    +0.145 C 
ATOM      7  C   UNL     1     -35.747  23.057   4.579  0.00  0.00    +0.259 C 
ATOM      8  C   UNL     1     -35.183  24.424   4.297  0.00  0.00    +0.162 C 
ATOM      9  H   UNL     1     -36.173  21.286   3.661  0.00  0.00    +0.155 HD
BRANCH   6  10
ATOM     10  O   UNL     1     -34.242  25.890   2.603  0.00  0.00    -0.505 OA
ATOM     11  H   UNL     1     -33.373  26.132   2.855  0.00  0.00    +0.292 HD
ENDBRANCH   6  10
BRANCH   8  13
ATOM     12  O   UNL     1     -34.036  25.842   5.820  0.00  0.00    -0.245 OA
ATOM     13  C   UNL     1     -35.084  25.414   5.380  0.00  0.00    +0.346 C 
BRANCH  13  14
ATOM     14  O   UNL     1     -36.321  25.753   5.790  0.00  0.00    -0.477 OA
ATOM     15  H   UNL     1     -36.958  25.087   5.958  0.00  0.00    +0.295 HD
ENDBRANCH  13  14
ENDBRANCH   8  13
ENDBRANCH   1   4
BRANCH   1  16
ATOM     16  C   UNL     1     -34.247  20.653   0.989  0.00  0.00    +0.023 C 
ATOM     17  C   UNL     1     -33.245  21.164   0.163  0.00  0.00    -0.000 C 
ATOM     18  C   UNL     1     -34.068  19.425   1.623  0.00  0.00    -0.000 C 
ATOM     19  C   UNL     1     -32.065  20.446  -0.029  0.00  0.00    -0.000 C 
ATOM     20  C   UNL     1     -32.889  18.706   1.432  0.00  0.00    -0.000 C 
ATOM     21  C   UNL     1     -31.887  19.216   0.605  0.00  0.00    -0.000 C 
ENDBRANCH   1  16
BRANCH   1  22
ATOM     22  O   UNL     1     -36.568  20.525   1.569  0.00  0.00    -0.442 OA
BRANCH  22  24
ATOM     23  O   UNL     1     -38.736  21.294   1.404  0.00  0.00    -0.250 OA
ATOM     24  C   UNL     1     -37.764  20.713   0.939  0.00  0.00    +0.318 C 
BRANCH  24  25
ATOM     25  C   UNL     1     -37.715  20.053  -0.422  0.00  0.00    +0.110 C 
BRANCH  25  26
ATOM     26  C   UNL     1     -37.257  18.587  -0.365  0.00  0.00    +0.011 C 
ATOM     27  C   UNL     1     -38.385  17.632  -0.764  0.00  0.00    +0.001 C 
ATOM     28  C   UNL     1     -36.052  18.378  -1.284  0.00  0.00    +0.001 C 
ENDBRANCH  25  26
ENDBRANCH  24  25
ENDBRANCH  22  24
ENDBRANCH   1  22
TORSDOF 9
ENDMDL
MODEL 8
REMARK VINA RESULT:      -6.0      1.265      2.008
REMARK  Name = 54684614
REMARK  9 active torsions:
REMARK  status: ('A' for Active; 'I' for Inactive)
REMARK    1  A    between atoms: C_1  and  C_4
REMARK    2  A    between atoms: C_1  and  C_16
REMARK    3  A    between atoms: C_1  and  O_22
REMARK    4  A    between atoms: C_6  and  O_10
REMARK    5  A    between atoms: C_8  and  C_13
REMARK    6  A    between atoms: C_13  and  O_14
REMARK    7  A    between atoms: O_22  and  C_24
REMARK    8  A    between atoms: C_24  and  C_25
REMARK    9  A    between atoms: C_25  and  C_26
REMARK                            x       y       z     vdW  Elec       q    Type
REMARK                         _______ _______ _______ _____ _____    ______ ____
ROOT
ATOM      1  C   UNL     1     -35.184  20.775   1.064  0.00  0.00    +0.227 C 
ENDROOT
BRANCH   1   4
ATOM      2  O   UNL     1     -34.232  25.242   2.329  0.00  0.00    -0.269 OA
ATOM      3  N   UNL     1     -34.718  23.063   1.793  0.00  0.00    -0.280 N 
ATOM      4  C   UNL     1     -35.180  21.813   2.140  0.00  0.00    +0.075 C 
ATOM      5  C   UNL     1     -35.597  21.588   3.394  0.00  0.00    +0.051 C 
ATOM      6  C   UNL     1     -35.564  22.644   4.383  0.00  0.00    +0.145 C 
ATOM      7  C   UNL     1     -34.650  24.135   2.665  0.00  0.00    +0.259 C 
ATOM      8  C   UNL     1     -35.116  23.879   4.073  0.00  0.00    +0.162 C 
ATOM      9  H   UNL     1     -34.418  23.203   0.866  0.00  0.00    +0.155 HD
BRANCH   6  10
ATOM     10  O   UNL     1     -36.026  22.232   5.611  0.00  0.00    -0.505 OA
ATOM     11  H   UNL     1     -35.423  22.079   6.311  0.00  0.00    +0.292 HD
ENDBRANCH   6  10
BRANCH   8  13
ATOM     12  O   UNL     1     -36.056  25.407   5.632  0.00  0.00    -0.245 OA
ATOM     13  C   UNL     1     -35.077  24.962   5.067  0.00  0.00    +0.346 C 
BRANCH  13  14
ATOM     14  O   UNL     1     -33.804  25.365   5.238  0.00  0.00    -0.477 OA
ATOM     15  H   UNL     1     -33.305  25.047   5.965  0.00  0.00    +0.295 HD
ENDBRANCH  13  14
ENDBRANCH   8  13
ENDBRANCH   1   4
BRANCH   1  16
ATOM     16  C   UNL     1     -33.842  20.102   0.900  0.00  0.00    +0.023 C 
ATOM     17  C   UNL     1     -33.598  18.874   1.515  0.00  0.00    -0.000 C 
ATOM     18  C   UNL     1     -32.848  20.708   0.132  0.00  0.00    -0.000 C 
ATOM     19  C   UNL     1     -32.358  18.252   1.363  0.00  0.00    -0.000 C 
ATOM     20  C   UNL     1     -31.609  20.087  -0.020  0.00  0.00    -0.000 C 
ATOM     21  C   UNL     1     -31.363  18.859   0.596  0.00  0.00    -0.000 C 
ENDBRANCH   1  16
BRANCH   1  22
ATOM     22  O   UNL     1     -36.172  19.781   1.353  0.00  0.00    -0.442 OA
BRANCH  22  24
ATOM     23  O   UNL     1     -37.233  18.463  -0.214  0.00  0.00    -0.250 OA
ATOM     24  C   UNL     1     -37.068  19.534   0.353  0.00  0.00    +0.318 C 
BRANCH  24  25
ATOM     25  C   UNL     1     -37.807  20.815   0.027  0.00  0.00    +0.110 C 
BRANCH  25  26
ATOM     26  C   UNL     1     -39.110  20.980   0.824  0.00  0.00    +0.011 C 
ATOM     27  C   UNL     1     -38.948  21.995   1.958  0.00  0.00    +0.001 C 
ATOM     28  C   UNL     1     -40.242  21.419  -0.106  0.00  0.00    +0.001 C 
ENDBRANCH  25  26
ENDBRANCH  24  25
ENDBRANCH  22  24
ENDBRANCH   1  22
TORSDOF 9
ENDMDL
MODEL 9
REMARK VINA RESULT:      -5.9      2.799      5.973
REMARK  Name = 54684614
REMARK  9 active torsions:
REMARK  status: ('A' for Active; 'I' for Inactive)
REMARK    1  A    between atoms: C_1  and  C_4
REMARK    2  A    between atoms: C_1  and  C_16
REMARK    3  A    between atoms: C_1  and  O_22
REMARK    4  A    between atoms: C_6  and  O_10
REMARK    5  A    between atoms: C_8  and  C_13
REMARK    6  A    between atoms: C_13  and  O_14
REMARK    7  A    between atoms: O_22  and  C_24
REMARK    8  A    between atoms: C_24  and  C_25
REMARK    9  A    between atoms: C_25  and  C_26
REMARK                            x       y       z     vdW  Elec       q    Type
REMARK                         _______ _______ _______ _____ _____    ______ ____
ROOT
ATOM      1  C   UNL     1     -35.686  21.689   2.262  0.00  0.00    +0.227 C 
ENDROOT
BRANCH   1   4
ATOM      2  O   UNL     1     -38.358  23.918  -0.955  0.00  0.00    -0.269 OA
ATOM      3  N   UNL     1     -37.131  22.804   0.634  0.00  0.00    -0.280 N 
ATOM      4  C   UNL     1     -37.048  21.935   1.699  0.00  0.00    +0.075 C 
ATOM      5  C   UNL     1     -38.164  21.361   2.171  0.00  0.00    +0.051 C 
ATOM      6  C   UNL     1     -39.450  21.647   1.573  0.00  0.00    +0.145 C 
ATOM      7  C   UNL     1     -38.312  23.139  -0.005  0.00  0.00    +0.259 C 
ATOM      8  C   UNL     1     -39.563  22.494   0.529  0.00  0.00    +0.162 C 
ATOM      9  H   UNL     1     -36.297  23.212   0.306  0.00  0.00    +0.155 HD
BRANCH   6  10
ATOM     10  O   UNL     1     -40.480  20.973   2.187  0.00  0.00    -0.505 OA
ATOM     11  H   UNL     1     -41.282  21.417   2.380  0.00  0.00    +0.292 HD
ENDBRANCH   6  10
BRANCH   8  13
ATOM     12  O   UNL     1     -41.683  21.954  -0.399  0.00  0.00    -0.245 OA
ATOM     13  C   UNL     1     -40.864  22.795  -0.089  0.00  0.00    +0.346 C 
BRANCH  13  14
ATOM     14  O   UNL     1     -40.985  24.126  -0.250  0.00  0.00    -0.477 OA
ATOM     15  H   UNL     1     -41.834  24.523  -0.246  0.00  0.00    +0.295 HD
ENDBRANCH  13  14
ENDBRANCH   8  13
ENDBRANCH   1   4
BRANCH   1  16
ATOM     16  C   UNL     1     -35.536  22.211   3.672  0.00  0.00    +0.023 C 
ATOM     17  C   UNL     1     -35.700  23.572   3.933  0.00  0.00    -0.000 C 
ATOM     18  C   UNL     1     -35.234  21.333   4.712  0.00  0.00    -0.000 C 
ATOM     19  C   UNL     1     -35.561  24.054   5.235  0.00  0.00    -0.000 C 
ATOM     20  C   UNL     1     -35.094  21.815   6.013  0.00  0.00    -0.000 C 
ATOM     21  C   UNL     1     -35.258  23.176   6.275  0.00  0.00    -0.000 C 
ENDBRANCH   1  16
BRANCH   1  22
ATOM     22  O   UNL     1     -35.402  20.286   2.252  0.00  0.00    -0.442 OA
BRANCH  22  24
ATOM     23  O   UNL     1     -35.529  19.027   0.324  0.00  0.00    -0.250 OA
ATOM     24  C   UNL     1     -34.931  19.790   1.070  0.00  0.00    +0.318 C 
BRANCH  24  25
ATOM     25  C   UNL     1     -33.526  20.307   0.844  0.00  0.00    +0.110 C 
BRANCH  25  26
ATOM     26  C   UNL     1     -32.560  19.225   0.336  0.00  0.00    +0.011 C 
ATOM     27  C   UNL     1     -31.210  19.823  -0.066  0.00  0.00    +0.001 C 
ATOM     28  C   UNL     1     -32.354  18.159   1.413  0.00  0.00    +0.001 C 
ENDBRANCH  25  26
ENDBRANCH  24  25
ENDBRANCH  22  24
ENDBRANCH   1  22
TORSDOF 9
ENDMDL
