MODEL 1
REMARK VINA RESULT:      -5.9      0.000      0.000
REMARK  Name = 189729
REMARK  16 active torsions:
REMARK  status: ('A' for Active; 'I' for Inactive)
REMARK    1  A    between atoms: C_1  and  C_8
REMARK    2  A    between atoms: C_1  and  O_13
REMARK    3  A    between atoms: C_1  and  C_28
REMARK    4  A    between atoms: C_4  and  C_10
REMARK    5  A    between atoms: C_10  and  O_11
REMARK    6  A    between atoms: O_13  and  P_14
REMARK    7  A    between atoms: P_14  and  O_16
REMARK    8  A    between atoms: P_14  and  C_18
REMARK    9  A    between atoms: C_18  and  C_19
REMARK   10  A    between atoms: C_19  and  C_20
REMARK   11  A    between atoms: C_20  and  C_21
REMARK   12  A    between atoms: C_21  and  C_22
REMARK   13  A    between atoms: C_28  and  C_29
REMARK   14  A    between atoms: C_29  and  C_30
REMARK   15  A    between atoms: C_30  and  C_31
REMARK   16  A    between atoms: C_31  and  N_32
REMARK                            x       y       z     vdW  Elec       q    Type
REMARK                         _______ _______ _______ _____ _____    ______ ____
ROOT
ATOM      1  C   UNL     1     -36.608  24.763   3.165  0.00  0.00    +0.200 C 
ENDROOT
BRANCH   1   8
ATOM      2  O   UNL     1     -37.922  22.778   3.156  0.00  0.00    -0.272 OA
ATOM      3  N   UNL     1     -35.963  22.754   1.924  0.00  0.00    -0.269 N 
ATOM      4  C   UNL     1     -36.171  21.452   1.304  0.00  0.00    +0.175 C 
ATOM      5  C   UNL     1     -35.165  21.401   0.160  0.00  0.00    +0.033 C 
ATOM      6  C   UNL     1     -34.744  23.386   1.424  0.00  0.00    +0.094 C 
ATOM      7  C   UNL     1     -34.025  22.292   0.651  0.00  0.00    +0.024 C 
ATOM      8  C   UNL     1     -36.904  23.344   2.753  0.00  0.00    +0.254 C 
BRANCH   4  10
ATOM      9  O   UNL     1     -34.784  20.207   2.844  0.00  0.00    -0.248 OA
ATOM     10  C   UNL     1     -35.881  20.415   2.347  0.00  0.00    +0.332 C 
BRANCH  10  11
ATOM     11  O   UNL     1     -37.006  19.729   2.666  0.00  0.00    -0.479 OA
ATOM     12  H   UNL     1     -37.735  19.725   2.078  0.00  0.00    +0.295 HD
ENDBRANCH  10  11
ENDBRANCH   4  10
ENDBRANCH   1   8
BRANCH   1  13
ATOM     13  O   UNL     1     -37.690  25.546   2.691  0.00  0.00    -0.287 OA
BRANCH  13  14
ATOM     14  P   UNL     1     -37.559  26.408   1.329  0.00  0.00    +0.340 P 
ATOM     15  O   UNL     1     -38.494  27.579   1.248  0.00  0.00    -0.258 OA
BRANCH  14  16
ATOM     16  O   UNL     1     -37.756  25.322   0.147  0.00  0.00    -0.323 OA
ATOM     17  H   UNL     1     -37.422  24.460   0.442  0.00  0.00    +0.220 HD
ENDBRANCH  14  16
BRANCH  14  18
ATOM     18  C   UNL     1     -35.839  26.855   1.208  0.00  0.00    +0.116 C 
BRANCH  18  19
ATOM     19  C   UNL     1     -35.401  27.880   2.246  0.00  0.00    +0.013 C 
BRANCH  19  20
ATOM     20  C   UNL     1     -33.996  27.590   2.785  0.00  0.00    +0.005 C 
BRANCH  20  21
ATOM     21  C   UNL     1     -33.121  28.845   2.881  0.00  0.00    +0.026 C 
BRANCH  21  22
ATOM     22  C   UNL     1     -32.593  29.112   4.268  0.00  0.00    -0.022 C 
ATOM     23  C   UNL     1     -32.317  30.420   4.668  0.00  0.00    -0.004 C 
ATOM     24  C   UNL     1     -32.379  28.053   5.149  0.00  0.00    -0.004 C 
ATOM     25  C   UNL     1     -31.828  30.668   5.951  0.00  0.00    -0.000 C 
ATOM     26  C   UNL     1     -31.890  28.302   6.432  0.00  0.00    -0.000 C 
ATOM     27  C   UNL     1     -31.614  29.609   6.832  0.00  0.00    -0.000 C 
ENDBRANCH  21  22
ENDBRANCH  20  21
ENDBRANCH  19  20
ENDBRANCH  18  19
ENDBRANCH  14  18
ENDBRANCH  13  14
ENDBRANCH   1  13
BRANCH   1  28
ATOM     28  C   UNL     1     -36.510  24.869   4.684  0.00  0.00    +0.039 C 
BRANCH  28  29
ATOM     29  C   UNL     1     -35.056  24.875   5.165  0.00  0.00    +0.001 C 
BRANCH  29  30
ATOM     30  C   UNL     1     -34.523  23.451   5.342  0.00  0.00    -0.024 C 
BRANCH  30  31
ATOM     31  C   UNL     1     -35.526  22.575   6.092  0.00  0.00    -0.086 C 
BRANCH  31  32
ATOM     32  N   UNL     1     -35.256  21.165   5.836  0.00  0.00    +0.380 N 
ATOM     33  H   UNL     1     -36.086  20.728   5.433  0.00  0.00    -0.089 HD
ATOM     34  H   UNL     1     -35.018  20.700   6.711  0.00  0.00    -0.089 HD
ATOM     35  H   UNL     1     -34.478  21.081   5.183  0.00  0.00    -0.089 HD
ENDBRANCH  31  32
ENDBRANCH  30  31
ENDBRANCH  29  30
ENDBRANCH  28  29
ENDBRANCH   1  28
TORSDOF 16
ENDMDL
MODEL 2
REMARK VINA RESULT:      -5.7      3.206      7.307
REMARK  Name = 189729
REMARK  16 active torsions:
REMARK  status: ('A' for Active; 'I' for Inactive)
REMARK    1  A    between atoms: C_1  and  C_8
REMARK    2  A    between atoms: C_1  and  O_13
REMARK    3  A    between atoms: C_1  and  C_28
REMARK    4  A    between atoms: C_4  and  C_10
REMARK    5  A    between atoms: C_10  and  O_11
REMARK    6  A    between atoms: O_13  and  P_14
REMARK    7  A    between atoms: P_14  and  O_16
REMARK    8  A    between atoms: P_14  and  C_18
REMARK    9  A    between atoms: C_18  and  C_19
REMARK   10  A    between atoms: C_19  and  C_20
REMARK   11  A    between atoms: C_20  and  C_21
REMARK   12  A    between atoms: C_21  and  C_22
REMARK   13  A    between atoms: C_28  and  C_29
REMARK   14  A    between atoms: C_29  and  C_30
REMARK   15  A    between atoms: C_30  and  C_31
REMARK   16  A    between atoms: C_31  and  N_32
REMARK                            x       y       z     vdW  Elec       q    Type
REMARK                         _______ _______ _______ _____ _____    ______ ____
ROOT
ATOM      1  C   UNL     1     -37.725  23.974   2.855  0.00  0.00    +0.200 C 
ENDROOT
BRANCH   1   8
ATOM      2  O   UNL     1     -36.668  23.749   4.976  0.00  0.00    -0.272 OA
ATOM      3  N   UNL     1     -35.558  24.992   3.370  0.00  0.00    -0.269 N 
ATOM      4  C   UNL     1     -34.331  25.188   4.128  0.00  0.00    +0.175 C 
ATOM      5  C   UNL     1     -33.313  25.675   3.103  0.00  0.00    +0.033 C 
ATOM      6  C   UNL     1     -35.447  25.566   2.031  0.00  0.00    +0.094 C 
ATOM      7  C   UNL     1     -34.173  26.395   2.066  0.00  0.00    +0.024 C 
ATOM      8  C   UNL     1     -36.608  24.218   3.838  0.00  0.00    +0.254 C 
BRANCH   4  10
ATOM      9  O   UNL     1     -33.792  26.688   5.946  0.00  0.00    -0.248 OA
ATOM     10  C   UNL     1     -34.615  26.230   5.168  0.00  0.00    +0.332 C 
BRANCH  10  11
ATOM     11  O   UNL     1     -35.919  26.598   5.133  0.00  0.00    -0.479 OA
ATOM     12  H   UNL     1     -36.350  26.720   4.310  0.00  0.00    +0.295 HD
ENDBRANCH  10  11
ENDBRANCH   4  10
ENDBRANCH   1   8
BRANCH   1  13
ATOM     13  O   UNL     1     -38.022  22.590   2.929  0.00  0.00    -0.287 OA
BRANCH  13  14
ATOM     14  P   UNL     1     -38.362  21.740   1.596  0.00  0.00    +0.340 P 
ATOM     15  O   UNL     1     -38.434  22.561   0.342  0.00  0.00    -0.258 OA
BRANCH  14  16
ATOM     16  O   UNL     1     -39.734  20.963   1.957  0.00  0.00    -0.323 OA
ATOM     17  H   UNL     1     -40.373  21.084   1.236  0.00  0.00    +0.220 HD
ENDBRANCH  14  16
BRANCH  14  18
ATOM     18  C   UNL     1     -37.145  20.440   1.532  0.00  0.00    +0.116 C 
BRANCH  18  19
ATOM     19  C   UNL     1     -35.926  20.703   2.407  0.00  0.00    +0.013 C 
BRANCH  19  20
ATOM     20  C   UNL     1     -34.624  20.681   1.600  0.00  0.00    +0.005 C 
BRANCH  20  21
ATOM     21  C   UNL     1     -34.065  19.267   1.406  0.00  0.00    +0.026 C 
BRANCH  21  22
ATOM     22  C   UNL     1     -32.662  19.239   0.855  0.00  0.00    -0.022 C 
ATOM     23  C   UNL     1     -31.823  18.160   1.137  0.00  0.00    -0.004 C 
ATOM     24  C   UNL     1     -32.202  20.292   0.063  0.00  0.00    -0.004 C 
ATOM     25  C   UNL     1     -30.525  18.133   0.628  0.00  0.00    -0.000 C 
ATOM     26  C   UNL     1     -30.903  20.264  -0.447  0.00  0.00    -0.000 C 
ATOM     27  C   UNL     1     -30.065  19.186  -0.164  0.00  0.00    -0.000 C 
ENDBRANCH  21  22
ENDBRANCH  20  21
ENDBRANCH  19  20
ENDBRANCH  18  19
ENDBRANCH  14  18
ENDBRANCH  13  14
ENDBRANCH   1  13
BRANCH   1  28
ATOM     28  C   UNL     1     -38.955  24.796   3.230  0.00  0.00    +0.039 C 
BRANCH  28  29
ATOM     29  C   UNL     1     -39.126  26.017   2.321  0.00  0.00    +0.001 C 
BRANCH  29  30
ATOM     30  C   UNL     1     -40.062  25.711   1.150  0.00  0.00    -0.024 C 
BRANCH  30  31
ATOM     31  C   UNL     1     -41.223  24.818   1.588  0.00  0.00    -0.086 C 
BRANCH  31  32
ATOM     32  N   UNL     1     -41.278  23.618   0.762  0.00  0.00    +0.380 N 
ATOM     33  H   UNL     1     -40.586  23.689   0.015  0.00  0.00    -0.089 HD
ATOM     34  H   UNL     1     -42.209  23.528   0.356  0.00  0.00    -0.089 HD
ATOM     35  H   UNL     1     -41.076  22.801   1.336  0.00  0.00    -0.089 HD
ENDBRANCH  31  32
ENDBRANCH  30  31
ENDBRANCH  29  30
ENDBRANCH  28  29
ENDBRANCH   1  28
TORSDOF 16
ENDMDL
MODEL 3
REMARK VINA RESULT:      -5.7      4.913      8.533
REMARK  Name = 189729
REMARK  16 active torsions:
REMARK  status: ('A' for Active; 'I' for Inactive)
REMARK    1  A    between atoms: C_1  and  C_8
REMARK    2  A    between atoms: C_1  and  O_13
REMARK    3  A    between atoms: C_1  and  C_28
REMARK    4  A    between atoms: C_4  and  C_10
REMARK    5  A    between atoms: C_10  and  O_11
REMARK    6  A    between atoms: O_13  and  P_14
REMARK    7  A    between atoms: P_14  and  O_16
REMARK    8  A    between atoms: P_14  and  C_18
REMARK    9  A    between atoms: C_18  and  C_19
REMARK   10  A    between atoms: C_19  and  C_20
REMARK   11  A    between atoms: C_20  and  C_21
REMARK   12  A    between atoms: C_21  and  C_22
REMARK   13  A    between atoms: C_28  and  C_29
REMARK   14  A    between atoms: C_29  and  C_30
REMARK   15  A    between atoms: C_30  and  C_31
REMARK   16  A    between atoms: C_31  and  N_32
REMARK                            x       y       z     vdW  Elec       q    Type
REMARK                         _______ _______ _______ _____ _____    ______ ____
ROOT
ATOM      1  C   UNL     1     -31.745  29.348   4.481  0.00  0.00    +0.200 C 
ENDROOT
BRANCH   1   8
ATOM      2  O   UNL     1     -31.621  29.422   6.858  0.00  0.00    -0.272 OA
ATOM      3  N   UNL     1     -29.780  28.589   5.729  0.00  0.00    -0.269 N 
ATOM      4  C   UNL     1     -29.040  28.161   6.909  0.00  0.00    +0.175 C 
ATOM      5  C   UNL     1     -27.948  27.242   6.371  0.00  0.00    +0.033 C 
ATOM      6  C   UNL     1     -29.074  28.223   4.504  0.00  0.00    +0.094 C 
ATOM      7  C   UNL     1     -27.694  27.782   4.965  0.00  0.00    +0.024 C 
ATOM      8  C   UNL     1     -31.056  29.125   5.804  0.00  0.00    +0.254 C 
BRANCH   4  10
ATOM      9  O   UNL     1     -28.084  30.381   6.935  0.00  0.00    -0.248 OA
ATOM     10  C   UNL     1     -28.468  29.393   7.543  0.00  0.00    +0.332 C 
BRANCH  10  11
ATOM     11  O   UNL     1     -28.431  29.265   8.892  0.00  0.00    -0.479 OA
ATOM     12  H   UNL     1     -29.084  29.682   9.419  0.00  0.00    +0.295 HD
ENDBRANCH  10  11
ENDBRANCH   4  10
ENDBRANCH   1   8
BRANCH   1  13
ATOM     13  O   UNL     1     -33.024  28.749   4.597  0.00  0.00    -0.287 OA
BRANCH  13  14
ATOM     14  P   UNL     1     -33.245  27.186   4.249  0.00  0.00    +0.340 P 
ATOM     15  O   UNL     1     -33.340  26.293   5.451  0.00  0.00    -0.258 OA
BRANCH  14  16
ATOM     16  O   UNL     1     -32.025  26.822   3.251  0.00  0.00    -0.323 OA
ATOM     17  H   UNL     1     -31.821  27.591   2.696  0.00  0.00    +0.220 HD
ENDBRANCH  14  16
BRANCH  14  18
ATOM     18  C   UNL     1     -34.681  27.126   3.196  0.00  0.00    +0.116 C 
BRANCH  18  19
ATOM     19  C   UNL     1     -34.699  25.928   2.256  0.00  0.00    +0.013 C 
BRANCH  19  20
ATOM     20  C   UNL     1     -36.070  25.244   2.222  0.00  0.00    +0.005 C 
BRANCH  20  21
ATOM     21  C   UNL     1     -36.635  24.967   3.620  0.00  0.00    +0.026 C 
BRANCH  21  22
ATOM     22  C   UNL     1     -36.079  23.723   4.265  0.00  0.00    -0.022 C 
ATOM     23  C   UNL     1     -35.719  23.739   5.613  0.00  0.00    -0.004 C 
ATOM     24  C   UNL     1     -35.925  22.557   3.515  0.00  0.00    -0.004 C 
ATOM     25  C   UNL     1     -35.204  22.588   6.210  0.00  0.00    -0.000 C 
ATOM     26  C   UNL     1     -35.411  21.407   4.113  0.00  0.00    -0.000 C 
ATOM     27  C   UNL     1     -35.049  21.423   5.460  0.00  0.00    -0.000 C 
ENDBRANCH  21  22
ENDBRANCH  20  21
ENDBRANCH  19  20
ENDBRANCH  18  19
ENDBRANCH  14  18
ENDBRANCH  13  14
ENDBRANCH   1  13
BRANCH   1  28
ATOM     28  C   UNL     1     -31.888  30.841   4.199  0.00  0.00    +0.039 C 
BRANCH  28  29
ATOM     29  C   UNL     1     -32.323  31.111   2.756  0.00  0.00    +0.001 C 
BRANCH  29  30
ATOM     30  C   UNL     1     -33.583  31.978   2.708  0.00  0.00    -0.024 C 
BRANCH  30  31
ATOM     31  C   UNL     1     -34.828  31.130   2.447  0.00  0.00    -0.086 C 
BRANCH  31  32
ATOM     32  N   UNL     1     -35.384  30.647   3.706  0.00  0.00    +0.380 N 
ATOM     33  H   UNL     1     -35.741  29.699   3.577  0.00  0.00    -0.089 HD
ATOM     34  H   UNL     1     -36.145  31.260   3.998  0.00  0.00    -0.089 HD
ATOM     35  H   UNL     1     -34.657  30.642   4.419  0.00  0.00    -0.089 HD
ENDBRANCH  31  32
ENDBRANCH  30  31
ENDBRANCH  29  30
ENDBRANCH  28  29
ENDBRANCH   1  28
TORSDOF 16
ENDMDL
MODEL 4
REMARK VINA RESULT:      -5.7      3.297      7.076
REMARK  Name = 189729
REMARK  16 active torsions:
REMARK  status: ('A' for Active; 'I' for Inactive)
REMARK    1  A    between atoms: C_1  and  C_8
REMARK    2  A    between atoms: C_1  and  O_13
REMARK    3  A    between atoms: C_1  and  C_28
REMARK    4  A    between atoms: C_4  and  C_10
REMARK    5  A    between atoms: C_10  and  O_11
REMARK    6  A    between atoms: O_13  and  P_14
REMARK    7  A    between atoms: P_14  and  O_16
REMARK    8  A    between atoms: P_14  and  C_18
REMARK    9  A    between atoms: C_18  and  C_19
REMARK   10  A    between atoms: C_19  and  C_20
REMARK   11  A    between atoms: C_20  and  C_21
REMARK   12  A    between atoms: C_21  and  C_22
REMARK   13  A    between atoms: C_28  and  C_29
REMARK   14  A    between atoms: C_29  and  C_30
REMARK   15  A    between atoms: C_30  and  C_31
REMARK   16  A    between atoms: C_31  and  N_32
REMARK                            x       y       z     vdW  Elec       q    Type
REMARK                         _______ _______ _______ _____ _____    ______ ____
ROOT
ATOM      1  C   UNL     1     -37.579  23.803   2.060  0.00  0.00    +0.200 C 
ENDROOT
BRANCH   1   8
ATOM      2  O   UNL     1     -37.507  25.577   3.646  0.00  0.00    -0.272 OA
ATOM      3  N   UNL     1     -36.279  23.676   4.131  0.00  0.00    -0.269 N 
ATOM      4  C   UNL     1     -35.881  24.073   5.475  0.00  0.00    +0.175 C 
ATOM      5  C   UNL     1     -35.366  22.792   6.122  0.00  0.00    +0.033 C 
ATOM      6  C   UNL     1     -35.807  22.330   3.818  0.00  0.00    +0.094 C 
ATOM      7  C   UNL     1     -34.836  21.987   4.937  0.00  0.00    +0.024 C 
ATOM      8  C   UNL     1     -37.129  24.442   3.349  0.00  0.00    +0.254 C 
BRANCH   4  10
ATOM      9  O   UNL     1     -33.654  24.865   4.969  0.00  0.00    -0.248 OA
ATOM     10  C   UNL     1     -34.798  25.099   5.331  0.00  0.00    +0.332 C 
BRANCH  10  11
ATOM     11  O   UNL     1     -35.258  26.331   5.660  0.00  0.00    -0.479 OA
ATOM     12  H   UNL     1     -35.121  27.052   5.079  0.00  0.00    +0.295 HD
ENDBRANCH  10  11
ENDBRANCH   4  10
ENDBRANCH   1   8
BRANCH   1  13
ATOM     13  O   UNL     1     -38.801  23.147   2.350  0.00  0.00    -0.287 OA
BRANCH  13  14
ATOM     14  P   UNL     1     -39.283  21.867   1.487  0.00  0.00    +0.340 P 
ATOM     15  O   UNL     1     -39.989  22.214   0.209  0.00  0.00    -0.258 OA
BRANCH  14  16
ATOM     16  O   UNL     1     -40.175  21.000   2.521  0.00  0.00    -0.323 OA
ATOM     17  H   UNL     1     -40.664  20.319   2.032  0.00  0.00    +0.220 HD
ENDBRANCH  14  16
BRANCH  14  18
ATOM     18  C   UNL     1     -37.825  20.870   1.252  0.00  0.00    +0.116 C 
BRANCH  18  19
ATOM     19  C   UNL     1     -37.123  21.121  -0.077  0.00  0.00    +0.013 C 
BRANCH  19  20
ATOM     20  C   UNL     1     -35.598  21.135   0.071  0.00  0.00    +0.005 C 
BRANCH  20  21
ATOM     21  C   UNL     1     -35.088  20.117   1.098  0.00  0.00    +0.026 C 
BRANCH  21  22
ATOM     22  C   UNL     1     -33.659  19.691   0.872  0.00  0.00    -0.022 C 
ATOM     23  C   UNL     1     -32.801  20.499   0.126  0.00  0.00    -0.004 C 
ATOM     24  C   UNL     1     -33.196  18.490   1.409  0.00  0.00    -0.004 C 
ATOM     25  C   UNL     1     -31.479  20.106  -0.084  0.00  0.00    -0.000 C 
ATOM     26  C   UNL     1     -31.873  18.097   1.200  0.00  0.00    -0.000 C 
ATOM     27  C   UNL     1     -31.016  18.905   0.453  0.00  0.00    -0.000 C 
ENDBRANCH  21  22
ENDBRANCH  20  21
ENDBRANCH  19  20
ENDBRANCH  18  19
ENDBRANCH  14  18
ENDBRANCH  13  14
ENDBRANCH   1  13
BRANCH   1  28
ATOM     28  C   UNL     1     -37.795  24.864   0.985  0.00  0.00    +0.039 C 
BRANCH  28  29
ATOM     29  C   UNL     1     -36.543  25.073   0.127  0.00  0.00    +0.001 C 
BRANCH  29  30
ATOM     30  C   UNL     1     -36.141  26.548   0.081  0.00  0.00    -0.024 C 
BRANCH  30  31
ATOM     31  C   UNL     1     -37.046  27.396   0.973  0.00  0.00    -0.086 C 
BRANCH  31  32
ATOM     32  N   UNL     1     -36.290  27.930   2.099  0.00  0.00    +0.380 N 
ATOM     33  H   UNL     1     -36.143  28.931   1.966  0.00  0.00    -0.089 HD
ATOM     34  H   UNL     1     -35.388  27.459   2.157  0.00  0.00    -0.089 HD
ATOM     35  H   UNL     1     -36.811  27.775   2.962  0.00  0.00    -0.089 HD
ENDBRANCH  31  32
ENDBRANCH  30  31
ENDBRANCH  29  30
ENDBRANCH  28  29
ENDBRANCH   1  28
TORSDOF 16
ENDMDL
MODEL 5
REMARK VINA RESULT:      -5.6      3.253      7.276
REMARK  Name = 189729
REMARK  16 active torsions:
REMARK  status: ('A' for Active; 'I' for Inactive)
REMARK    1  A    between atoms: C_1  and  C_8
REMARK    2  A    between atoms: C_1  and  O_13
REMARK    3  A    between atoms: C_1  and  C_28
REMARK    4  A    between atoms: C_4  and  C_10
REMARK    5  A    between atoms: C_10  and  O_11
REMARK    6  A    between atoms: O_13  and  P_14
REMARK    7  A    between atoms: P_14  and  O_16
REMARK    8  A    between atoms: P_14  and  C_18
REMARK    9  A    between atoms: C_18  and  C_19
REMARK   10  A    between atoms: C_19  and  C_20
REMARK   11  A    between atoms: C_20  and  C_21
REMARK   12  A    between atoms: C_21  and  C_22
REMARK   13  A    between atoms: C_28  and  C_29
REMARK   14  A    between atoms: C_29  and  C_30
REMARK   15  A    between atoms: C_30  and  C_31
REMARK   16  A    between atoms: C_31  and  N_32
REMARK                            x       y       z     vdW  Elec       q    Type
REMARK                         _______ _______ _______ _____ _____    ______ ____
ROOT
ATOM      1  C   UNL     1     -37.692  23.921   2.890  0.00  0.00    +0.200 C 
ENDROOT
BRANCH   1   8
ATOM      2  O   UNL     1     -36.645  23.682   5.015  0.00  0.00    -0.272 OA
ATOM      3  N   UNL     1     -35.546  24.968   3.436  0.00  0.00    -0.269 N 
ATOM      4  C   UNL     1     -34.327  25.174   4.205  0.00  0.00    +0.175 C 
ATOM      5  C   UNL     1     -33.311  25.694   3.194  0.00  0.00    +0.033 C 
ATOM      6  C   UNL     1     -35.437  25.565   2.106  0.00  0.00    +0.094 C 
ATOM      7  C   UNL     1     -34.177  26.416   2.163  0.00  0.00    +0.024 C 
ATOM      8  C   UNL     1     -36.586  24.169   3.884  0.00  0.00    +0.254 C 
BRANCH   4  10
ATOM      9  O   UNL     1     -33.856  26.575   6.119  0.00  0.00    -0.248 OA
ATOM     10  C   UNL     1     -34.637  26.195   5.259  0.00  0.00    +0.332 C 
BRANCH  10  11
ATOM     11  O   UNL     1     -35.910  26.643   5.132  0.00  0.00    -0.479 OA
ATOM     12  H   UNL     1     -36.219  26.947   4.302  0.00  0.00    +0.295 HD
ENDBRANCH  10  11
ENDBRANCH   4  10
ENDBRANCH   1   8
BRANCH   1  13
ATOM     13  O   UNL     1     -38.013  22.545   2.992  0.00  0.00    -0.287 OA
BRANCH  13  14
ATOM     14  P   UNL     1     -37.784  21.543   1.743  0.00  0.00    +0.340 P 
ATOM     15  O   UNL     1     -39.011  21.298   0.915  0.00  0.00    -0.258 OA
BRANCH  14  16
ATOM     16  O   UNL     1     -37.160  20.208   2.410  0.00  0.00    -0.323 OA
ATOM     17  H   UNL     1     -36.264  20.396   2.732  0.00  0.00    +0.220 HD
ENDBRANCH  14  16
BRANCH  14  18
ATOM     18  C   UNL     1     -36.422  22.229   0.821  0.00  0.00    +0.116 C 
BRANCH  18  19
ATOM     19  C   UNL     1     -35.056  21.805   1.345  0.00  0.00    +0.013 C 
BRANCH  19  20
ATOM     20  C   UNL     1     -34.377  20.786   0.425  0.00  0.00    +0.005 C 
BRANCH  20  21
ATOM     21  C   UNL     1     -33.789  19.592   1.186  0.00  0.00    +0.026 C 
BRANCH  21  22
ATOM     22  C   UNL     1     -32.375  19.255   0.788  0.00  0.00    -0.022 C 
ATOM     23  C   UNL     1     -31.654  20.127  -0.028  0.00  0.00    -0.004 C 
ATOM     24  C   UNL     1     -31.787  18.071   1.235  0.00  0.00    -0.004 C 
ATOM     25  C   UNL     1     -30.345  19.816  -0.398  0.00  0.00    -0.000 C 
ATOM     26  C   UNL     1     -30.478  17.760   0.865  0.00  0.00    -0.000 C 
ATOM     27  C   UNL     1     -29.758  18.632   0.049  0.00  0.00    -0.000 C 
ENDBRANCH  21  22
ENDBRANCH  20  21
ENDBRANCH  19  20
ENDBRANCH  18  19
ENDBRANCH  14  18
ENDBRANCH  13  14
ENDBRANCH   1  13
BRANCH   1  28
ATOM     28  C   UNL     1     -38.913  24.772   3.227  0.00  0.00    +0.039 C 
BRANCH  28  29
ATOM     29  C   UNL     1     -39.035  25.989   2.305  0.00  0.00    +0.001 C 
BRANCH  29  30
ATOM     30  C   UNL     1     -39.968  25.702   1.127  0.00  0.00    -0.024 C 
BRANCH  30  31
ATOM     31  C   UNL     1     -41.114  24.779   1.542  0.00  0.00    -0.086 C 
BRANCH  31  32
ATOM     32  N   UNL     1     -41.015  23.504   0.842  0.00  0.00    +0.380 N 
ATOM     33  H   UNL     1     -41.414  22.766   1.422  0.00  0.00    -0.089 HD
ATOM     34  H   UNL     1     -40.035  23.295   0.653  0.00  0.00    -0.089 HD
ATOM     35  H   UNL     1     -41.527  23.559  -0.038  0.00  0.00    -0.089 HD
ENDBRANCH  31  32
ENDBRANCH  30  31
ENDBRANCH  29  30
ENDBRANCH  28  29
ENDBRANCH   1  28
TORSDOF 16
ENDMDL
MODEL 6
REMARK VINA RESULT:      -5.5      2.795      6.939
REMARK  Name = 189729
REMARK  16 active torsions:
REMARK  status: ('A' for Active; 'I' for Inactive)
REMARK    1  A    between atoms: C_1  and  C_8
REMARK    2  A    between atoms: C_1  and  O_13
REMARK    3  A    between atoms: C_1  and  C_28
REMARK    4  A    between atoms: C_4  and  C_10
REMARK    5  A    between atoms: C_10  and  O_11
REMARK    6  A    between atoms: O_13  and  P_14
REMARK    7  A    between atoms: P_14  and  O_16
REMARK    8  A    between atoms: P_14  and  C_18
REMARK    9  A    between atoms: C_18  and  C_19
REMARK   10  A    between atoms: C_19  and  C_20
REMARK   11  A    between atoms: C_20  and  C_21
REMARK   12  A    between atoms: C_21  and  C_22
REMARK   13  A    between atoms: C_28  and  C_29
REMARK   14  A    between atoms: C_29  and  C_30
REMARK   15  A    between atoms: C_30  and  C_31
REMARK   16  A    between atoms: C_31  and  N_32
REMARK                            x       y       z     vdW  Elec       q    Type
REMARK                         _______ _______ _______ _____ _____    ______ ____
ROOT
ATOM      1  C   UNL     1     -35.600  26.528   4.196  0.00  0.00    +0.200 C 
ENDROOT
BRANCH   1   8
ATOM      2  O   UNL     1     -33.330  25.835   4.375  0.00  0.00    -0.272 OA
ATOM      3  N   UNL     1     -33.722  27.968   3.566  0.00  0.00    -0.269 N 
ATOM      4  C   UNL     1     -32.341  28.271   3.217  0.00  0.00    +0.175 C 
ATOM      5  C   UNL     1     -32.428  29.501   2.320  0.00  0.00    +0.033 C 
ATOM      6  C   UNL     1     -34.615  29.056   3.177  0.00  0.00    +0.094 C 
ATOM      7  C   UNL     1     -33.691  30.207   2.809  0.00  0.00    +0.024 C 
ATOM      8  C   UNL     1     -34.113  26.732   4.056  0.00  0.00    +0.254 C 
BRANCH   4  10
ATOM      9  O   UNL     1     -32.089  29.172   5.446  0.00  0.00    -0.248 OA
ATOM     10  C   UNL     1     -31.617  28.566   4.496  0.00  0.00    +0.332 C 
BRANCH  10  11
ATOM     11  O   UNL     1     -30.356  28.069   4.458  0.00  0.00    -0.479 OA
ATOM     12  H   UNL     1     -29.849  28.138   3.673  0.00  0.00    +0.295 HD
ENDBRANCH  10  11
ENDBRANCH   4  10
ENDBRANCH   1   8
BRANCH   1  13
ATOM     13  O   UNL     1     -36.022  25.870   3.015  0.00  0.00    -0.287 OA
BRANCH  13  14
ATOM     14  P   UNL     1     -37.343  26.356   2.218  0.00  0.00    +0.340 P 
ATOM     15  O   UNL     1     -37.193  27.678   1.523  0.00  0.00    -0.258 OA
BRANCH  14  16
ATOM     16  O   UNL     1     -38.516  26.325   3.331  0.00  0.00    -0.323 OA
ATOM     17  H   UNL     1     -39.248  26.894   3.045  0.00  0.00    +0.220 HD
ENDBRANCH  14  16
BRANCH  14  18
ATOM     18  C   UNL     1     -37.765  25.015   1.123  0.00  0.00    +0.116 C 
BRANCH  18  19
ATOM     19  C   UNL     1     -37.572  23.638   1.745  0.00  0.00    +0.013 C 
BRANCH  19  20
ATOM     20  C   UNL     1     -36.390  22.887   1.125  0.00  0.00    +0.005 C 
BRANCH  20  21
ATOM     21  C   UNL     1     -35.934  21.690   1.968  0.00  0.00    +0.026 C 
BRANCH  21  22
ATOM     22  C   UNL     1     -34.711  20.995   1.425  0.00  0.00    -0.022 C 
ATOM     23  C   UNL     1     -34.402  19.700   1.842  0.00  0.00    -0.004 C 
ATOM     24  C   UNL     1     -33.888  21.647   0.506  0.00  0.00    -0.004 C 
ATOM     25  C   UNL     1     -33.270  19.057   1.341  0.00  0.00    -0.000 C 
ATOM     26  C   UNL     1     -32.756  21.003   0.004  0.00  0.00    -0.000 C 
ATOM     27  C   UNL     1     -32.447  19.709   0.422  0.00  0.00    -0.000 C 
ENDBRANCH  21  22
ENDBRANCH  20  21
ENDBRANCH  19  20
ENDBRANCH  18  19
ENDBRANCH  14  18
ENDBRANCH  13  14
ENDBRANCH   1  13
BRANCH   1  28
ATOM     28  C   UNL     1     -35.908  25.666   5.417  0.00  0.00    +0.039 C 
BRANCH  28  29
ATOM     29  C   UNL     1     -36.116  24.196   5.041  0.00  0.00    +0.001 C 
BRANCH  29  30
ATOM     30  C   UNL     1     -34.987  23.318   5.584  0.00  0.00    -0.024 C 
BRANCH  30  31
ATOM     31  C   UNL     1     -35.540  22.115   6.348  0.00  0.00    -0.086 C 
BRANCH  31  32
ATOM     32  N   UNL     1     -35.167  20.875   5.678  0.00  0.00    +0.380 N 
ATOM     33  H   UNL     1     -35.508  20.080   6.220  0.00  0.00    -0.089 HD
ATOM     34  H   UNL     1     -34.152  20.823   5.600  0.00  0.00    -0.089 HD
ATOM     35  H   UNL     1     -35.582  20.854   4.747  0.00  0.00    -0.089 HD
ENDBRANCH  31  32
ENDBRANCH  30  31
ENDBRANCH  29  30
ENDBRANCH  28  29
ENDBRANCH   1  28
TORSDOF 16
ENDMDL
MODEL 7
REMARK VINA RESULT:      -5.5      3.469      6.816
REMARK  Name = 189729
REMARK  16 active torsions:
REMARK  status: ('A' for Active; 'I' for Inactive)
REMARK    1  A    between atoms: C_1  and  C_8
REMARK    2  A    between atoms: C_1  and  O_13
REMARK    3  A    between atoms: C_1  and  C_28
REMARK    4  A    between atoms: C_4  and  C_10
REMARK    5  A    between atoms: C_10  and  O_11
REMARK    6  A    between atoms: O_13  and  P_14
REMARK    7  A    between atoms: P_14  and  O_16
REMARK    8  A    between atoms: P_14  and  C_18
REMARK    9  A    between atoms: C_18  and  C_19
REMARK   10  A    between atoms: C_19  and  C_20
REMARK   11  A    between atoms: C_20  and  C_21
REMARK   12  A    between atoms: C_21  and  C_22
REMARK   13  A    between atoms: C_28  and  C_29
REMARK   14  A    between atoms: C_29  and  C_30
REMARK   15  A    between atoms: C_30  and  C_31
REMARK   16  A    between atoms: C_31  and  N_32
REMARK                            x       y       z     vdW  Elec       q    Type
REMARK                         _______ _______ _______ _____ _____    ______ ____
ROOT
ATOM      1  C   UNL     1     -37.408  23.041   1.871  0.00  0.00    +0.200 C 
ENDROOT
BRANCH   1   8
ATOM      2  O   UNL     1     -35.992  21.285   2.632  0.00  0.00    -0.272 OA
ATOM      3  N   UNL     1     -36.002  23.244   3.866  0.00  0.00    -0.269 N 
ATOM      4  C   UNL     1     -34.922  22.877   4.771  0.00  0.00    +0.175 C 
ATOM      5  C   UNL     1     -34.513  24.185   5.440  0.00  0.00    +0.033 C 
ATOM      6  C   UNL     1     -36.461  24.607   4.119  0.00  0.00    +0.094 C 
ATOM      7  C   UNL     1     -35.803  25.003   5.432  0.00  0.00    +0.024 C 
ATOM      8  C   UNL     1     -36.401  22.434   2.815  0.00  0.00    +0.254 C 
BRANCH   4  10
ATOM      9  O   UNL     1     -36.175  22.196   6.723  0.00  0.00    -0.248 OA
ATOM     10  C   UNL     1     -35.486  21.899   5.758  0.00  0.00    +0.332 C 
BRANCH  10  11
ATOM     11  O   UNL     1     -35.124  20.633   5.439  0.00  0.00    -0.479 OA
ATOM     12  H   UNL     1     -35.719  20.080   4.971  0.00  0.00    +0.295 HD
ENDBRANCH  10  11
ENDBRANCH   4  10
ENDBRANCH   1   8
BRANCH   1  13
ATOM     13  O   UNL     1     -37.110  22.522   0.587  0.00  0.00    -0.287 OA
BRANCH  13  14
ATOM     14  P   UNL     1     -37.436  23.371  -0.750  0.00  0.00    +0.340 P 
ATOM     15  O   UNL     1     -37.406  24.859  -0.558  0.00  0.00    -0.258 OA
BRANCH  14  16
ATOM     16  O   UNL     1     -38.863  22.799  -1.251  0.00  0.00    -0.323 OA
ATOM     17  H   UNL     1     -38.937  22.911  -2.212  0.00  0.00    +0.220 HD
ENDBRANCH  14  16
BRANCH  14  18
ATOM     18  C   UNL     1     -36.291  22.784  -1.982  0.00  0.00    +0.116 C 
BRANCH  18  19
ATOM     19  C   UNL     1     -35.513  21.547  -1.551  0.00  0.00    +0.013 C 
BRANCH  19  20
ATOM     20  C   UNL     1     -34.022  21.843  -1.360  0.00  0.00    +0.005 C 
BRANCH  20  21
ATOM     21  C   UNL     1     -33.568  21.709   0.098  0.00  0.00    +0.026 C 
BRANCH  21  22
ATOM     22  C   UNL     1     -32.839  20.423   0.392  0.00  0.00    -0.022 C 
ATOM     23  C   UNL     1     -31.537  20.238  -0.075  0.00  0.00    -0.004 C 
ATOM     24  C   UNL     1     -33.465  19.418   1.129  0.00  0.00    -0.004 C 
ATOM     25  C   UNL     1     -30.861  19.048   0.196  0.00  0.00    -0.000 C 
ATOM     26  C   UNL     1     -32.789  18.228   1.400  0.00  0.00    -0.000 C 
ATOM     27  C   UNL     1     -31.488  18.043   0.933  0.00  0.00    -0.000 C 
ENDBRANCH  21  22
ENDBRANCH  20  21
ENDBRANCH  19  20
ENDBRANCH  18  19
ENDBRANCH  14  18
ENDBRANCH  13  14
ENDBRANCH   1  13
BRANCH   1  28
ATOM     28  C   UNL     1     -38.825  22.651   2.280  0.00  0.00    +0.039 C 
BRANCH  28  29
ATOM     29  C   UNL     1     -39.689  23.877   2.593  0.00  0.00    +0.001 C 
BRANCH  29  30
ATOM     30  C   UNL     1     -40.642  24.195   1.439  0.00  0.00    -0.024 C 
BRANCH  30  31
ATOM     31  C   UNL     1     -40.527  25.659   1.015  0.00  0.00    -0.086 C 
BRANCH  31  32
ATOM     32  N   UNL     1     -39.241  26.207   1.429  0.00  0.00    +0.380 N 
ATOM     33  H   UNL     1     -38.993  25.833   2.346  0.00  0.00    -0.089 HD
ATOM     34  H   UNL     1     -39.306  27.223   1.483  0.00  0.00    -0.089 HD
ATOM     35  H   UNL     1     -38.526  25.946   0.751  0.00  0.00    -0.089 HD
ENDBRANCH  31  32
ENDBRANCH  30  31
ENDBRANCH  29  30
ENDBRANCH  28  29
ENDBRANCH   1  28
TORSDOF 16
ENDMDL
MODEL 8
REMARK VINA RESULT:      -5.5      3.298      7.623
REMARK  Name = 189729
REMARK  16 active torsions:
REMARK  status: ('A' for Active; 'I' for Inactive)
REMARK    1  A    between atoms: C_1  and  C_8
REMARK    2  A    between atoms: C_1  and  O_13
REMARK    3  A    between atoms: C_1  and  C_28
REMARK    4  A    between atoms: C_4  and  C_10
REMARK    5  A    between atoms: C_10  and  O_11
REMARK    6  A    between atoms: O_13  and  P_14
REMARK    7  A    between atoms: P_14  and  O_16
REMARK    8  A    between atoms: P_14  and  C_18
REMARK    9  A    between atoms: C_18  and  C_19
REMARK   10  A    between atoms: C_19  and  C_20
REMARK   11  A    between atoms: C_20  and  C_21
REMARK   12  A    between atoms: C_21  and  C_22
REMARK   13  A    between atoms: C_28  and  C_29
REMARK   14  A    between atoms: C_29  and  C_30
REMARK   15  A    between atoms: C_30  and  C_31
REMARK   16  A    between atoms: C_31  and  N_32
REMARK                            x       y       z     vdW  Elec       q    Type
REMARK                         _______ _______ _______ _____ _____    ______ ____
ROOT
ATOM      1  C   UNL     1     -36.667  22.957   1.746  0.00  0.00    +0.200 C 
ENDROOT
BRANCH   1   8
ATOM      2  O   UNL     1     -36.738  25.051   2.876  0.00  0.00    -0.272 OA
ATOM      3  N   UNL     1     -35.852  23.255   4.036  0.00  0.00    -0.269 N 
ATOM      4  C   UNL     1     -35.704  23.938   5.314  0.00  0.00    +0.175 C 
ATOM      5  C   UNL     1     -35.477  22.821   6.328  0.00  0.00    +0.033 C 
ATOM      6  C   UNL     1     -35.472  21.849   4.144  0.00  0.00    +0.094 C 
ATOM      7  C   UNL     1     -34.800  21.728   5.503  0.00  0.00    +0.024 C 
ATOM      8  C   UNL     1     -36.431  23.859   2.931  0.00  0.00    +0.254 C 
BRANCH   4  10
ATOM      9  O   UNL     1     -33.513  24.598   4.536  0.00  0.00    -0.248 OA
ATOM     10  C   UNL     1     -34.511  24.837   5.200  0.00  0.00    +0.332 C 
BRANCH  10  11
ATOM     11  O   UNL     1     -34.684  25.960   5.939  0.00  0.00    -0.479 OA
ATOM     12  H   UNL     1     -33.981  26.288   6.465  0.00  0.00    +0.295 HD
ENDBRANCH  10  11
ENDBRANCH   4  10
ENDBRANCH   1   8
BRANCH   1  13
ATOM     13  O   UNL     1     -38.047  23.056   1.443  0.00  0.00    -0.287 OA
BRANCH  13  14
ATOM     14  P   UNL     1     -39.001  21.750   1.475  0.00  0.00    +0.340 P 
ATOM     15  O   UNL     1     -40.339  21.979   2.114  0.00  0.00    -0.258 OA
BRANCH  14  16
ATOM     16  O   UNL     1     -38.106  20.617   2.203  0.00  0.00    -0.323 OA
ATOM     17  H   UNL     1     -37.645  21.009   2.962  0.00  0.00    +0.220 HD
ENDBRANCH  14  16
BRANCH  14  18
ATOM     18  C   UNL     1     -39.101  21.188  -0.213  0.00  0.00    +0.116 C 
BRANCH  18  19
ATOM     19  C   UNL     1     -38.581  19.770  -0.414  0.00  0.00    +0.013 C 
BRANCH  19  20
ATOM     20  C   UNL     1     -37.174  19.753  -1.021  0.00  0.00    +0.005 C 
BRANCH  20  21
ATOM     21  C   UNL     1     -36.484  18.390  -0.891  0.00  0.00    +0.026 C 
BRANCH  21  22
ATOM     22  C   UNL     1     -35.223  18.424  -0.065  0.00  0.00    -0.022 C 
ATOM     23  C   UNL     1     -34.276  17.407  -0.196  0.00  0.00    -0.004 C 
ATOM     24  C   UNL     1     -35.003  19.470   0.830  0.00  0.00    -0.004 C 
ATOM     25  C   UNL     1     -33.110  17.437   0.568  0.00  0.00    -0.000 C 
ATOM     26  C   UNL     1     -33.836  19.501   1.594  0.00  0.00    -0.000 C 
ATOM     27  C   UNL     1     -32.890  18.484   1.463  0.00  0.00    -0.000 C 
ENDBRANCH  21  22
ENDBRANCH  20  21
ENDBRANCH  19  20
ENDBRANCH  18  19
ENDBRANCH  14  18
ENDBRANCH  13  14
ENDBRANCH   1  13
BRANCH   1  28
ATOM     28  C   UNL     1     -35.833  23.414   0.553  0.00  0.00    +0.039 C 
BRANCH  28  29
ATOM     29  C   UNL     1     -34.337  23.166   0.771  0.00  0.00    +0.001 C 
BRANCH  29  30
ATOM     30  C   UNL     1     -33.553  24.480   0.792  0.00  0.00    -0.024 C 
BRANCH  30  31
ATOM     31  C   UNL     1     -32.636  24.596  -0.426  0.00  0.00    -0.086 C 
BRANCH  31  32
ATOM     32  N   UNL     1     -31.759  23.434  -0.510  0.00  0.00    +0.380 N 
ATOM     33  H   UNL     1     -32.305  22.615  -0.780  0.00  0.00    -0.089 HD
ATOM     34  H   UNL     1     -31.325  23.270   0.397  0.00  0.00    -0.089 HD
ATOM     35  H   UNL     1     -31.036  23.605  -1.208  0.00  0.00    -0.089 HD
ENDBRANCH  31  32
ENDBRANCH  30  31
ENDBRANCH  29  30
ENDBRANCH  28  29
ENDBRANCH   1  28
TORSDOF 16
ENDMDL
MODEL 9
REMARK VINA RESULT:      -5.4      3.801      7.696
REMARK  Name = 189729
REMARK  16 active torsions:
REMARK  status: ('A' for Active; 'I' for Inactive)
REMARK    1  A    between atoms: C_1  and  C_8
REMARK    2  A    between atoms: C_1  and  O_13
REMARK    3  A    between atoms: C_1  and  C_28
REMARK    4  A    between atoms: C_4  and  C_10
REMARK    5  A    between atoms: C_10  and  O_11
REMARK    6  A    between atoms: O_13  and  P_14
REMARK    7  A    between atoms: P_14  and  O_16
REMARK    8  A    between atoms: P_14  and  C_18
REMARK    9  A    between atoms: C_18  and  C_19
REMARK   10  A    between atoms: C_19  and  C_20
REMARK   11  A    between atoms: C_20  and  C_21
REMARK   12  A    between atoms: C_21  and  C_22
REMARK   13  A    between atoms: C_28  and  C_29
REMARK   14  A    between atoms: C_29  and  C_30
REMARK   15  A    between atoms: C_30  and  C_31
REMARK   16  A    between atoms: C_31  and  N_32
REMARK                            x       y       z     vdW  Elec       q    Type
REMARK                         _______ _______ _______ _____ _____    ______ ____
ROOT
ATOM      1  C   UNL     1     -36.142  22.541   2.953  0.00  0.00    +0.200 C 
ENDROOT
BRANCH   1   8
ATOM      2  O   UNL     1     -35.494  24.557   1.867  0.00  0.00    -0.272 OA
ATOM      3  N   UNL     1     -37.762  24.123   2.021  0.00  0.00    -0.269 N 
ATOM      4  C   UNL     1     -38.203  25.241   1.199  0.00  0.00    +0.175 C 
ATOM      5  C   UNL     1     -39.657  24.928   0.864  0.00  0.00    +0.033 C 
ATOM      6  C   UNL     1     -38.892  23.293   2.431  0.00  0.00    +0.094 C 
ATOM      7  C   UNL     1     -40.125  24.102   2.060  0.00  0.00    +0.024 C 
ATOM      8  C   UNL     1     -36.423  23.832   2.228  0.00  0.00    +0.254 C 
BRANCH   4  10
ATOM      9  O   UNL     1     -37.555  27.522   1.672  0.00  0.00    -0.248 OA
ATOM     10  C   UNL     1     -38.079  26.480   2.035  0.00  0.00    +0.332 C 
BRANCH  10  11
ATOM     11  O   UNL     1     -38.627  26.288   3.260  0.00  0.00    -0.479 OA
ATOM     12  H   UNL     1     -38.822  27.024   3.806  0.00  0.00    +0.295 HD
ENDBRANCH  10  11
ENDBRANCH   4  10
ENDBRANCH   1   8
BRANCH   1  13
ATOM     13  O   UNL     1     -35.513  21.687   2.012  0.00  0.00    -0.287 OA
BRANCH  13  14
ATOM     14  P   UNL     1     -36.316  20.455   1.341  0.00  0.00    +0.340 P 
ATOM     15  O   UNL     1     -37.322  20.865   0.305  0.00  0.00    -0.258 OA
BRANCH  14  16
ATOM     16  O   UNL     1     -36.950  19.657   2.597  0.00  0.00    -0.323 OA
ATOM     17  H   UNL     1     -37.656  20.190   2.995  0.00  0.00    +0.220 HD
ENDBRANCH  14  16
BRANCH  14  18
ATOM     18  C   UNL     1     -35.065  19.345   0.725  0.00  0.00    +0.116 C 
BRANCH  18  19
ATOM     19  C   UNL     1     -33.812  19.299   1.590  0.00  0.00    +0.013 C 
BRANCH  19  20
ATOM     20  C   UNL     1     -32.532  19.390   0.754  0.00  0.00    +0.005 C 
BRANCH  20  21
ATOM     21  C   UNL     1     -31.665  18.129   0.849  0.00  0.00    +0.026 C 
BRANCH  21  22
ATOM     22  C   UNL     1     -30.212  18.365   0.522  0.00  0.00    -0.022 C 
ATOM     23  C   UNL     1     -29.232  17.534   1.066  0.00  0.00    -0.004 C 
ATOM     24  C   UNL     1     -29.848  19.412  -0.325  0.00  0.00    -0.004 C 
ATOM     25  C   UNL     1     -27.887  17.752   0.764  0.00  0.00    -0.000 C 
ATOM     26  C   UNL     1     -28.503  19.629  -0.627  0.00  0.00    -0.000 C 
ATOM     27  C   UNL     1     -27.524  18.799  -0.082  0.00  0.00    -0.000 C 
ENDBRANCH  21  22
ENDBRANCH  20  21
ENDBRANCH  19  20
ENDBRANCH  18  19
ENDBRANCH  14  18
ENDBRANCH  13  14
ENDBRANCH   1  13
BRANCH   1  28
ATOM     28  C   UNL     1     -35.216  22.786   4.141  0.00  0.00    +0.039 C 
BRANCH  28  29
ATOM     29  C   UNL     1     -35.889  23.631   5.227  0.00  0.00    +0.001 C 
BRANCH  29  30
ATOM     30  C   UNL     1     -35.060  24.873   5.558  0.00  0.00    -0.024 C 
BRANCH  30  31
ATOM     31  C   UNL     1     -35.905  26.143   5.463  0.00  0.00    -0.086 C 
BRANCH  31  32
ATOM     32  N   UNL     1     -35.630  26.841   4.213  0.00  0.00    +0.380 N 
ATOM     33  H   UNL     1     -35.545  27.842   4.395  0.00  0.00    -0.089 HD
ATOM     34  H   UNL     1     -36.395  26.679   3.558  0.00  0.00    -0.089 HD
ATOM     35  H   UNL     1     -34.760  26.493   3.814  0.00  0.00    -0.089 HD
ENDBRANCH  31  32
ENDBRANCH  30  31
ENDBRANCH  29  30
ENDBRANCH  28  29
ENDBRANCH   1  28
TORSDOF 16
ENDMDL
