MODEL 1
REMARK VINA RESULT:      -7.4      0.000      0.000
REMARK  Name = 5321954
REMARK  10 active torsions:
REMARK  status: ('A' for Active; 'I' for Inactive)
REMARK    1  A    between atoms: C_3  and  O_22
REMARK    2  A    between atoms: C_8  and  O_20
REMARK    3  A    between atoms: C_10  and  C_12
REMARK    4  A    between atoms: C_17  and  O_18
REMARK    5  A    between atoms: O_22  and  C_28
REMARK    6  A    between atoms: C_24  and  O_29
REMARK    7  A    between atoms: C_25  and  O_31
REMARK    8  A    between atoms: C_26  and  O_33
REMARK    9  A    between atoms: C_27  and  C_35
REMARK   10  A    between atoms: C_35  and  O_36
REMARK                            x       y       z     vdW  Elec       q    Type
REMARK                         _______ _______ _______ _____ _____    ______ ____
ROOT
ATOM      1  O   UNL     1     -35.592  19.604   0.985  0.00  0.00    -0.453 OA
ATOM      2  O   UNL     1     -38.632  18.297  -1.392  0.00  0.00    -0.286 OA
ATOM      3  C   UNL     1     -38.127  22.049   1.917  0.00  0.00    +0.147 C 
ATOM      4  C   UNL     1     -36.922  21.350   1.854  0.00  0.00    +0.075 C 
ATOM      5  C   UNL     1     -39.209  21.652   1.129  0.00  0.00    +0.074 C 
ATOM      6  C   UNL     1     -36.800  20.251   1.003  0.00  0.00    +0.154 C 
ATOM      7  C   UNL     1     -37.882  19.856   0.217  0.00  0.00    +0.107 C 
ATOM      8  C   UNL     1     -39.090  20.555   0.277  0.00  0.00    +0.143 C 
ATOM      9  C   UNL     1     -37.726  18.697  -0.673  0.00  0.00    +0.205 C 
ATOM     10  C   UNL     1     -35.444  18.505   0.153  0.00  0.00    +0.148 C 
ATOM     11  C   UNL     1     -36.408  18.033  -0.654  0.00  0.00    +0.080 C 
ENDROOT
BRANCH  10  12
ATOM     12  C   UNL     1     -34.104  17.887   0.206  0.00  0.00    +0.035 C 
ATOM     13  C   UNL     1     -33.861  16.678  -0.451  0.00  0.00    +0.006 C 
ATOM     14  C   UNL     1     -33.072  18.509   0.912  0.00  0.00    +0.006 C 
ATOM     15  C   UNL     1     -32.595  16.095  -0.400  0.00  0.00    +0.037 C 
ATOM     16  C   UNL     1     -31.805  17.927   0.964  0.00  0.00    +0.037 C 
ATOM     17  C   UNL     1     -31.567  16.719   0.308  0.00  0.00    +0.139 C 
BRANCH  17  18
ATOM     18  O   UNL     1     -30.331  16.150   0.357  0.00  0.00    -0.471 OA
ATOM     19  C   UNL     1     -29.235  17.005   0.678  0.00  0.00    +0.252 C 
ENDBRANCH  17  18
ENDBRANCH  10  12
BRANCH   8  20
ATOM     20  O   UNL     1     -40.176  20.208  -0.471  0.00  0.00    -0.505 OA
ATOM     21  H   UNL     1     -41.000  20.627  -0.321  0.00  0.00    +0.292 HD
ENDBRANCH   8  20
BRANCH   3  22
ATOM     22  O   UNL     1     -38.248  23.124   2.748  0.00  0.00    -0.450 OA
BRANCH  22  28
ATOM     23  O   UNL     1     -36.669  22.814   4.438  0.00  0.00    -0.316 OA
ATOM     24  C   UNL     1     -36.100  25.627   4.539  0.00  0.00    +0.173 C 
ATOM     25  C   UNL     1     -35.629  24.656   5.620  0.00  0.00    +0.169 C 
ATOM     26  C   UNL     1     -37.296  25.063   3.772  0.00  0.00    +0.210 C 
ATOM     27  C   UNL     1     -35.452  23.249   5.048  0.00  0.00    +0.177 C 
ATOM     28  C   UNL     1     -37.043  23.624   3.325  0.00  0.00    +0.318 C 
BRANCH  24  29
ATOM     29  O   UNL     1     -36.476  26.850   5.175  0.00  0.00    -0.379 OA
ATOM     30  H   UNL     1     -37.389  27.073   4.933  0.00  0.00    +0.211 HD
ENDBRANCH  24  29
BRANCH  25  31
ATOM     31  O   UNL     1     -34.385  25.108   6.151  0.00  0.00    -0.379 OA
ATOM     32  H   UNL     1     -33.756  25.244   5.426  0.00  0.00    +0.211 HD
ENDBRANCH  25  31
BRANCH  26  33
ATOM     33  O   UNL     1     -37.531  25.858   2.610  0.00  0.00    -0.377 OA
ATOM     34  H   UNL     1     -38.044  26.644   2.853  0.00  0.00    +0.211 HD
ENDBRANCH  26  33
BRANCH  27  35
ATOM     35  C   UNL     1     -35.096  22.237   6.133  0.00  0.00    +0.169 C 
BRANCH  35  36
ATOM     36  O   UNL     1     -35.283  20.933   5.614  0.00  0.00    -0.379 OA
ATOM     37  H   UNL     1     -36.162  20.608   5.863  0.00  0.00    +0.211 HD
ENDBRANCH  35  36
ENDBRANCH  27  35
ENDBRANCH  22  28
ENDBRANCH   3  22
TORSDOF 10
ENDMDL
MODEL 2
REMARK VINA RESULT:      -7.1      3.138      5.630
REMARK  Name = 5321954
REMARK  10 active torsions:
REMARK  status: ('A' for Active; 'I' for Inactive)
REMARK    1  A    between atoms: C_3  and  O_22
REMARK    2  A    between atoms: C_8  and  O_20
REMARK    3  A    between atoms: C_10  and  C_12
REMARK    4  A    between atoms: C_17  and  O_18
REMARK    5  A    between atoms: O_22  and  C_28
REMARK    6  A    between atoms: C_24  and  O_29
REMARK    7  A    between atoms: C_25  and  O_31
REMARK    8  A    between atoms: C_26  and  O_33
REMARK    9  A    between atoms: C_27  and  C_35
REMARK   10  A    between atoms: C_35  and  O_36
REMARK                            x       y       z     vdW  Elec       q    Type
REMARK                         _______ _______ _______ _____ _____    ______ ____
ROOT
ATOM      1  O   UNL     1     -35.011  22.184   2.982  0.00  0.00    -0.453 OA
ATOM      2  O   UNL     1     -38.706  23.807   2.424  0.00  0.00    -0.286 OA
ATOM      3  C   UNL     1     -34.683  25.092   5.152  0.00  0.00    +0.147 C 
ATOM      4  C   UNL     1     -34.392  23.914   4.465  0.00  0.00    +0.075 C 
ATOM      5  C   UNL     1     -35.931  25.699   5.006  0.00  0.00    +0.074 C 
ATOM      6  C   UNL     1     -35.354  23.342   3.631  0.00  0.00    +0.154 C 
ATOM      7  C   UNL     1     -36.601  23.949   3.487  0.00  0.00    +0.107 C 
ATOM      8  C   UNL     1     -36.894  25.130   4.173  0.00  0.00    +0.143 C 
ATOM      9  C   UNL     1     -37.594  23.327   2.600  0.00  0.00    +0.205 C 
ATOM     10  C   UNL     1     -35.949  21.589   2.151  0.00  0.00    +0.148 C 
ATOM     11  C   UNL     1     -37.178  22.081   1.927  0.00  0.00    +0.080 C 
ENDROOT
BRANCH  10  12
ATOM     12  C   UNL     1     -35.475  20.353   1.499  0.00  0.00    +0.035 C 
ATOM     13  C   UNL     1     -36.314  19.652   0.629  0.00  0.00    +0.006 C 
ATOM     14  C   UNL     1     -34.185  19.878   1.747  0.00  0.00    +0.006 C 
ATOM     15  C   UNL     1     -35.866  18.484   0.012  0.00  0.00    +0.037 C 
ATOM     16  C   UNL     1     -33.736  18.710   1.131  0.00  0.00    +0.037 C 
ATOM     17  C   UNL     1     -34.577  18.013   0.264  0.00  0.00    +0.139 C 
BRANCH  17  18
ATOM     18  O   UNL     1     -34.140  16.872  -0.338  0.00  0.00    -0.471 OA
ATOM     19  C   UNL     1     -34.993  15.732  -0.265  0.00  0.00    +0.252 C 
ENDBRANCH  17  18
ENDBRANCH  10  12
BRANCH   8  20
ATOM     20  O   UNL     1     -38.097  25.761   4.065  0.00  0.00    -0.505 OA
ATOM     21  H   UNL     1     -38.351  26.398   4.704  0.00  0.00    +0.292 HD
ENDBRANCH   8  20
BRANCH   3  22
ATOM     22  O   UNL     1     -33.744  25.653   5.967  0.00  0.00    -0.450 OA
BRANCH  22  28
ATOM     23  O   UNL     1     -32.787  26.978   4.301  0.00  0.00    -0.316 OA
ATOM     24  C   UNL     1     -31.598  28.720   6.250  0.00  0.00    +0.173 C 
ATOM     25  C   UNL     1     -31.199  28.745   4.775  0.00  0.00    +0.169 C 
ATOM     26  C   UNL     1     -32.228  27.380   6.629  0.00  0.00    +0.210 C 
ATOM     27  C   UNL     1     -32.355  28.276   3.891  0.00  0.00    +0.177 C 
ATOM     28  C   UNL     1     -33.308  26.969   5.629  0.00  0.00    +0.318 C 
BRANCH  24  29
ATOM     29  O   UNL     1     -30.421  28.930   7.031  0.00  0.00    -0.379 OA
ATOM     30  H   UNL     1     -30.532  28.515   7.901  0.00  0.00    +0.211 HD
ENDBRANCH  24  29
BRANCH  25  31
ATOM     31  O   UNL     1     -30.834  30.073   4.409  0.00  0.00    -0.379 OA
ATOM     32  H   UNL     1     -31.302  30.706   4.976  0.00  0.00    +0.211 HD
ENDBRANCH  25  31
BRANCH  26  33
ATOM     33  O   UNL     1     -32.832  27.488   7.919  0.00  0.00    -0.377 OA
ATOM     34  H   UNL     1     -32.174  27.284   8.602  0.00  0.00    +0.211 HD
ENDBRANCH  26  33
BRANCH  27  35
ATOM     35  C   UNL     1     -31.943  28.181   2.425  0.00  0.00    +0.169 C 
BRANCH  35  36
ATOM     36  O   UNL     1     -32.127  29.448   1.820  0.00  0.00    -0.379 OA
ATOM     37  H   UNL     1     -32.339  30.105   2.502  0.00  0.00    +0.211 HD
ENDBRANCH  35  36
ENDBRANCH  27  35
ENDBRANCH  22  28
ENDBRANCH   3  22
TORSDOF 10
ENDMDL
MODEL 3
REMARK VINA RESULT:      -6.9      1.524      2.102
REMARK  Name = 5321954
REMARK  10 active torsions:
REMARK  status: ('A' for Active; 'I' for Inactive)
REMARK    1  A    between atoms: C_3  and  O_22
REMARK    2  A    between atoms: C_8  and  O_20
REMARK    3  A    between atoms: C_10  and  C_12
REMARK    4  A    between atoms: C_17  and  O_18
REMARK    5  A    between atoms: O_22  and  C_28
REMARK    6  A    between atoms: C_24  and  O_29
REMARK    7  A    between atoms: C_25  and  O_31
REMARK    8  A    between atoms: C_26  and  O_33
REMARK    9  A    between atoms: C_27  and  C_35
REMARK   10  A    between atoms: C_35  and  O_36
REMARK                            x       y       z     vdW  Elec       q    Type
REMARK                         _______ _______ _______ _____ _____    ______ ____
ROOT
ATOM      1  O   UNL     1     -34.782  20.053   1.518  0.00  0.00    -0.453 OA
ATOM      2  O   UNL     1     -38.099  18.707  -0.428  0.00  0.00    -0.286 OA
ATOM      3  C   UNL     1     -37.197  22.471   2.782  0.00  0.00    +0.147 C 
ATOM      4  C   UNL     1     -36.004  21.786   2.558  0.00  0.00    +0.075 C 
ATOM      5  C   UNL     1     -38.371  22.060   2.148  0.00  0.00    +0.074 C 
ATOM      6  C   UNL     1     -35.985  20.687   1.698  0.00  0.00    +0.154 C 
ATOM      7  C   UNL     1     -37.158  20.278   1.066  0.00  0.00    +0.107 C 
ATOM      8  C   UNL     1     -38.355  20.962   1.287  0.00  0.00    +0.143 C 
ATOM      9  C   UNL     1     -37.109  19.118   0.163  0.00  0.00    +0.205 C 
ATOM     10  C   UNL     1     -34.735  18.954   0.674  0.00  0.00    +0.148 C 
ATOM     11  C   UNL     1     -35.793  18.470   0.004  0.00  0.00    +0.080 C 
ENDROOT
BRANCH  10  12
ATOM     12  C   UNL     1     -33.392  18.352   0.546  0.00  0.00    +0.035 C 
ATOM     13  C   UNL     1     -33.256  17.009   0.191  0.00  0.00    +0.006 C 
ATOM     14  C   UNL     1     -32.252  19.125   0.780  0.00  0.00    +0.006 C 
ATOM     15  C   UNL     1     -31.988  16.440   0.070  0.00  0.00    +0.037 C 
ATOM     16  C   UNL     1     -30.983  18.557   0.660  0.00  0.00    +0.037 C 
ATOM     17  C   UNL     1     -30.852  17.215   0.306  0.00  0.00    +0.139 C 
BRANCH  17  18
ATOM     18  O   UNL     1     -29.614  16.660   0.188  0.00  0.00    -0.471 OA
ATOM     19  C   UNL     1     -28.496  17.500   0.470  0.00  0.00    +0.252 C 
ENDBRANCH  17  18
ENDBRANCH  10  12
BRANCH   8  20
ATOM     20  O   UNL     1     -39.527  20.601   0.692  0.00  0.00    -0.505 OA
ATOM     21  H   UNL     1     -40.304  20.509   1.208  0.00  0.00    +0.292 HD
ENDBRANCH   8  20
BRANCH   3  22
ATOM     22  O   UNL     1     -37.218  23.545   3.621  0.00  0.00    -0.450 OA
BRANCH  22  28
ATOM     23  O   UNL     1     -35.660  24.918   4.687  0.00  0.00    -0.316 OA
ATOM     24  C   UNL     1     -35.851  26.891   2.608  0.00  0.00    +0.173 C 
ATOM     25  C   UNL     1     -35.172  27.174   3.948  0.00  0.00    +0.169 C 
ATOM     26  C   UNL     1     -36.836  25.728   2.722  0.00  0.00    +0.210 C 
ATOM     27  C   UNL     1     -34.617  25.886   4.559  0.00  0.00    +0.177 C 
ATOM     28  C   UNL     1     -36.202  24.528   3.426  0.00  0.00    +0.318 C 
BRANCH  24  29
ATOM     29  O   UNL     1     -36.551  28.071   2.210  0.00  0.00    -0.379 OA
ATOM     30  H   UNL     1     -36.490  28.173   1.248  0.00  0.00    +0.211 HD
ENDBRANCH  24  29
BRANCH  25  31
ATOM     31  O   UNL     1     -34.105  28.099   3.750  0.00  0.00    -0.379 OA
ATOM     32  H   UNL     1     -33.696  27.939   2.885  0.00  0.00    +0.211 HD
ENDBRANCH  25  31
BRANCH  26  33
ATOM     33  O   UNL     1     -37.239  25.318   1.416  0.00  0.00    -0.377 OA
ATOM     34  H   UNL     1     -37.524  26.093   0.907  0.00  0.00    +0.211 HD
ENDBRANCH  26  33
BRANCH  27  35
ATOM     35  C   UNL     1     -34.038  26.123   5.950  0.00  0.00    +0.169 C 
BRANCH  35  36
ATOM     36  O   UNL     1     -32.790  26.778   5.815  0.00  0.00    -0.379 OA
ATOM     37  H   UNL     1     -32.842  27.661   6.213  0.00  0.00    +0.211 HD
ENDBRANCH  35  36
ENDBRANCH  27  35
ENDBRANCH  22  28
ENDBRANCH   3  22
TORSDOF 10
ENDMDL
MODEL 4
REMARK VINA RESULT:      -6.9      1.968      3.074
REMARK  Name = 5321954
REMARK  10 active torsions:
REMARK  status: ('A' for Active; 'I' for Inactive)
REMARK    1  A    between atoms: C_3  and  O_22
REMARK    2  A    between atoms: C_8  and  O_20
REMARK    3  A    between atoms: C_10  and  C_12
REMARK    4  A    between atoms: C_17  and  O_18
REMARK    5  A    between atoms: O_22  and  C_28
REMARK    6  A    between atoms: C_24  and  O_29
REMARK    7  A    between atoms: C_25  and  O_31
REMARK    8  A    between atoms: C_26  and  O_33
REMARK    9  A    between atoms: C_27  and  C_35
REMARK   10  A    between atoms: C_35  and  O_36
REMARK                            x       y       z     vdW  Elec       q    Type
REMARK                         _______ _______ _______ _____ _____    ______ ____
ROOT
ATOM      1  O   UNL     1     -34.717  20.922   1.727  0.00  0.00    -0.453 OA
ATOM      2  O   UNL     1     -37.875  19.057  -0.046  0.00  0.00    -0.286 OA
ATOM      3  C   UNL     1     -37.402  23.030   3.000  0.00  0.00    +0.147 C 
ATOM      4  C   UNL     1     -36.133  22.508   2.755  0.00  0.00    +0.075 C 
ATOM      5  C   UNL     1     -38.527  22.437   2.425  0.00  0.00    +0.074 C 
ATOM      6  C   UNL     1     -35.989  21.390   1.932  0.00  0.00    +0.154 C 
ATOM      7  C   UNL     1     -37.114  20.799   1.358  0.00  0.00    +0.107 C 
ATOM      8  C   UNL     1     -38.387  21.320   1.602  0.00  0.00    +0.143 C 
ATOM      9  C   UNL     1     -36.934  19.624   0.493  0.00  0.00    +0.205 C 
ATOM     10  C   UNL     1     -34.544  19.808   0.919  0.00  0.00    +0.148 C 
ATOM     11  C   UNL     1     -35.546  19.157   0.307  0.00  0.00    +0.080 C 
ENDROOT
BRANCH  10  12
ATOM     12  C   UNL     1     -33.136  19.393   0.762  0.00  0.00    +0.035 C 
ATOM     13  C   UNL     1     -32.691  18.193   1.321  0.00  0.00    +0.006 C 
ATOM     14  C   UNL     1     -32.243  20.197   0.051  0.00  0.00    +0.006 C 
ATOM     15  C   UNL     1     -31.361  17.800   1.172  0.00  0.00    +0.037 C 
ATOM     16  C   UNL     1     -30.912  19.806  -0.099  0.00  0.00    +0.037 C 
ATOM     17  C   UNL     1     -30.471  18.607   0.462  0.00  0.00    +0.139 C 
BRANCH  17  18
ATOM     18  O   UNL     1     -29.173  18.224   0.317  0.00  0.00    -0.471 OA
ATOM     19  C   UNL     1     -28.598  17.462   1.377  0.00  0.00    +0.252 C 
ENDBRANCH  17  18
ENDBRANCH  10  12
BRANCH   8  20
ATOM     20  O   UNL     1     -39.516  20.778   1.064  0.00  0.00    -0.505 OA
ATOM     21  H   UNL     1     -39.714  19.873   1.206  0.00  0.00    +0.292 HD
ENDBRANCH   8  20
BRANCH   3  22
ATOM     22  O   UNL     1     -37.544  24.123   3.803  0.00  0.00    -0.450 OA
BRANCH  22  28
ATOM     23  O   UNL     1     -36.665  25.188   1.923  0.00  0.00    -0.316 OA
ATOM     24  C   UNL     1     -35.401  27.193   3.545  0.00  0.00    +0.173 C 
ATOM     25  C   UNL     1     -35.065  27.003   2.067  0.00  0.00    +0.169 C 
ATOM     26  C   UNL     1     -36.009  25.924   4.142  0.00  0.00    +0.210 C 
ATOM     27  C   UNL     1     -36.256  26.413   1.310  0.00  0.00    +0.177 C 
ATOM     28  C   UNL     1     -37.129  25.374   3.259  0.00  0.00    +0.318 C 
BRANCH  24  29
ATOM     29  O   UNL     1     -34.192  27.512   4.236  0.00  0.00    -0.379 OA
ATOM     30  H   UNL     1     -33.431  27.248   3.695  0.00  0.00    +0.211 HD
ENDBRANCH  24  29
BRANCH  25  31
ATOM     31  O   UNL     1     -34.722  28.263   1.495  0.00  0.00    -0.379 OA
ATOM     32  H   UNL     1     -34.098  28.127   0.765  0.00  0.00    +0.211 HD
ENDBRANCH  25  31
BRANCH  26  33
ATOM     33  O   UNL     1     -36.557  26.219   5.427  0.00  0.00    -0.377 OA
ATOM     34  H   UNL     1     -35.969  26.831   5.896  0.00  0.00    +0.211 HD
ENDBRANCH  26  33
BRANCH  27  35
ATOM     35  C   UNL     1     -35.907  26.104  -0.143  0.00  0.00    +0.169 C 
BRANCH  35  36
ATOM     36  O   UNL     1     -34.506  25.923  -0.242  0.00  0.00    -0.379 OA
ATOM     37  H   UNL     1     -34.315  25.002  -0.481  0.00  0.00    +0.211 HD
ENDBRANCH  35  36
ENDBRANCH  27  35
ENDBRANCH  22  28
ENDBRANCH   3  22
TORSDOF 10
ENDMDL
MODEL 5
REMARK VINA RESULT:      -6.9      1.959      8.122
REMARK  Name = 5321954
REMARK  10 active torsions:
REMARK  status: ('A' for Active; 'I' for Inactive)
REMARK    1  A    between atoms: C_3  and  O_22
REMARK    2  A    between atoms: C_8  and  O_20
REMARK    3  A    between atoms: C_10  and  C_12
REMARK    4  A    between atoms: C_17  and  O_18
REMARK    5  A    between atoms: O_22  and  C_28
REMARK    6  A    between atoms: C_24  and  O_29
REMARK    7  A    between atoms: C_25  and  O_31
REMARK    8  A    between atoms: C_26  and  O_33
REMARK    9  A    between atoms: C_27  and  C_35
REMARK   10  A    between atoms: C_35  and  O_36
REMARK                            x       y       z     vdW  Elec       q    Type
REMARK                         _______ _______ _______ _____ _____    ______ ____
ROOT
ATOM      1  O   UNL     1     -36.371  22.590   2.096  0.00  0.00    -0.453 OA
ATOM      2  O   UNL     1     -40.436  22.847   2.171  0.00  0.00    -0.286 OA
ATOM      3  C   UNL     1     -37.148  19.920  -0.259  0.00  0.00    +0.147 C 
ATOM      4  C   UNL     1     -36.437  20.811   0.544  0.00  0.00    +0.075 C 
ATOM      5  C   UNL     1     -38.544  19.957  -0.281  0.00  0.00    +0.074 C 
ATOM      6  C   UNL     1     -37.124  21.740   1.327  0.00  0.00    +0.154 C 
ATOM      7  C   UNL     1     -38.518  21.775   1.303  0.00  0.00    +0.107 C 
ATOM      8  C   UNL     1     -39.233  20.884   0.500  0.00  0.00    +0.143 C 
ATOM      9  C   UNL     1     -39.216  22.763   2.139  0.00  0.00    +0.205 C 
ATOM     10  C   UNL     1     -37.027  23.528   2.879  0.00  0.00    +0.148 C 
ATOM     11  C   UNL     1     -38.361  23.656   2.946  0.00  0.00    +0.080 C 
ENDROOT
BRANCH  10  12
ATOM     12  C   UNL     1     -36.123  24.386   3.670  0.00  0.00    +0.035 C 
ATOM     13  C   UNL     1     -34.764  24.454   3.355  0.00  0.00    +0.006 C 
ATOM     14  C   UNL     1     -36.623  25.136   4.738  0.00  0.00    +0.006 C 
ATOM     15  C   UNL     1     -33.910  25.266   4.102  0.00  0.00    +0.037 C 
ATOM     16  C   UNL     1     -35.771  25.948   5.486  0.00  0.00    +0.037 C 
ATOM     17  C   UNL     1     -34.414  26.012   5.169  0.00  0.00    +0.139 C 
BRANCH  17  18
ATOM     18  O   UNL     1     -33.581  26.804   5.899  0.00  0.00    -0.471 OA
ATOM     19  C   UNL     1     -32.661  27.619   5.175  0.00  0.00    +0.252 C 
ENDBRANCH  17  18
ENDBRANCH  10  12
BRANCH   8  20
ATOM     20  O   UNL     1     -40.594  20.879   0.443  0.00  0.00    -0.505 OA
ATOM     21  H   UNL     1     -41.048  21.581   0.018  0.00  0.00    +0.292 HD
ENDBRANCH   8  20
BRANCH   3  22
ATOM     22  O   UNL     1     -36.479  19.011  -1.024  0.00  0.00    -0.450 OA
BRANCH  22  28
ATOM     23  O   UNL     1     -34.237  18.379  -0.896  0.00  0.00    -0.316 OA
ATOM     24  C   UNL     1     -34.942  15.753   0.031  0.00  0.00    +0.173 C 
ATOM     25  C   UNL     1     -33.535  16.102  -0.453  0.00  0.00    +0.169 C 
ATOM     26  C   UNL     1     -35.978  16.725  -0.534  0.00  0.00    +0.210 C 
ATOM     27  C   UNL     1     -33.241  17.588  -0.245  0.00  0.00    +0.177 C 
ATOM     28  C   UNL     1     -35.539  18.177  -0.349  0.00  0.00    +0.318 C 
BRANCH  24  29
ATOM     29  O   UNL     1     -35.245  14.428  -0.406  0.00  0.00    -0.379 OA
ATOM     30  H   UNL     1     -35.761  13.972   0.277  0.00  0.00    +0.211 HD
ENDBRANCH  24  29
BRANCH  25  31
ATOM     31  O   UNL     1     -32.582  15.327   0.270  0.00  0.00    -0.379 OA
ATOM     32  H   UNL     1     -32.574  14.420  -0.074  0.00  0.00    +0.211 HD
ENDBRANCH  25  31
BRANCH  26  33
ATOM     33  O   UNL     1     -37.219  16.543   0.146  0.00  0.00    -0.377 OA
ATOM     34  H   UNL     1     -37.544  15.643  -0.008  0.00  0.00    +0.211 HD
ENDBRANCH  26  33
BRANCH  27  35
ATOM     35  C   UNL     1     -31.887  17.984  -0.827  0.00  0.00    +0.169 C 
BRANCH  35  36
ATOM     36  O   UNL     1     -31.541  17.054  -1.837  0.00  0.00    -0.379 OA
ATOM     37  H   UNL     1     -31.782  16.159  -1.551  0.00  0.00    +0.211 HD
ENDBRANCH  35  36
ENDBRANCH  27  35
ENDBRANCH  22  28
ENDBRANCH   3  22
TORSDOF 10
ENDMDL
MODEL 6
REMARK VINA RESULT:      -6.9      5.247     10.504
REMARK  Name = 5321954
REMARK  10 active torsions:
REMARK  status: ('A' for Active; 'I' for Inactive)
REMARK    1  A    between atoms: C_3  and  O_22
REMARK    2  A    between atoms: C_8  and  O_20
REMARK    3  A    between atoms: C_10  and  C_12
REMARK    4  A    between atoms: C_17  and  O_18
REMARK    5  A    between atoms: O_22  and  C_28
REMARK    6  A    between atoms: C_24  and  O_29
REMARK    7  A    between atoms: C_25  and  O_31
REMARK    8  A    between atoms: C_26  and  O_33
REMARK    9  A    between atoms: C_27  and  C_35
REMARK   10  A    between atoms: C_35  and  O_36
REMARK                            x       y       z     vdW  Elec       q    Type
REMARK                         _______ _______ _______ _____ _____    ______ ____
ROOT
ATOM      1  O   UNL     1     -41.903  26.598   3.447  0.00  0.00    -0.453 OA
ATOM      2  O   UNL     1     -44.167  24.926   0.502  0.00  0.00    -0.286 OA
ATOM      3  C   UNL     1     -39.303  24.687   1.754  0.00  0.00    +0.147 C 
ATOM      4  C   UNL     1     -39.952  25.527   2.659  0.00  0.00    +0.075 C 
ATOM      5  C   UNL     1     -40.021  24.084   0.720  0.00  0.00    +0.074 C 
ATOM      6  C   UNL     1     -41.321  25.763   2.529  0.00  0.00    +0.154 C 
ATOM      7  C   UNL     1     -42.036  25.160   1.494  0.00  0.00    +0.107 C 
ATOM      8  C   UNL     1     -41.389  24.318   0.587  0.00  0.00    +0.143 C 
ATOM      9  C   UNL     1     -43.478  25.424   1.381  0.00  0.00    +0.205 C 
ATOM     10  C   UNL     1     -43.261  26.856   3.338  0.00  0.00    +0.148 C 
ATOM     11  C   UNL     1     -44.056  26.331   2.393  0.00  0.00    +0.080 C 
ENDROOT
BRANCH  10  12
ATOM     12  C   UNL     1     -43.786  27.761   4.381  0.00  0.00    +0.035 C 
ATOM     13  C   UNL     1     -44.970  27.448   5.051  0.00  0.00    +0.006 C 
ATOM     14  C   UNL     1     -43.099  28.934   4.702  0.00  0.00    +0.006 C 
ATOM     15  C   UNL     1     -45.466  28.302   6.035  0.00  0.00    +0.037 C 
ATOM     16  C   UNL     1     -43.594  29.790   5.687  0.00  0.00    +0.037 C 
ATOM     17  C   UNL     1     -44.778  29.474   6.353  0.00  0.00    +0.139 C 
BRANCH  17  18
ATOM     18  O   UNL     1     -45.262  30.308   7.314  0.00  0.00    -0.471 OA
ATOM     19  C   UNL     1     -44.386  30.633   8.392  0.00  0.00    +0.252 C 
ENDBRANCH  17  18
ENDBRANCH  10  12
BRANCH   8  20
ATOM     20  O   UNL     1     -42.044  23.705  -0.439  0.00  0.00    -0.505 OA
ATOM     21  H   UNL     1     -42.904  23.989  -0.681  0.00  0.00    +0.292 HD
ENDBRANCH   8  20
BRANCH   3  22
ATOM     22  O   UNL     1     -37.966  24.454   1.881  0.00  0.00    -0.450 OA
BRANCH  22  28
ATOM     23  O   UNL     1     -36.573  24.943   3.688  0.00  0.00    -0.316 OA
ATOM     24  C   UNL     1     -36.213  22.154   4.274  0.00  0.00    +0.173 C 
ATOM     25  C   UNL     1     -35.337  23.243   4.894  0.00  0.00    +0.169 C 
ATOM     26  C   UNL     1     -36.861  22.639   2.977  0.00  0.00    +0.210 C 
ATOM     27  C   UNL     1     -36.097  24.568   4.982  0.00  0.00    +0.177 C 
ATOM     28  C   UNL     1     -37.513  24.010   3.158  0.00  0.00    +0.318 C 
BRANCH  24  29
ATOM     29  O   UNL     1     -35.384  21.024   3.998  0.00  0.00    -0.379 OA
ATOM     30  H   UNL     1     -34.458  21.307   3.947  0.00  0.00    +0.211 HD
ENDBRANCH  24  29
BRANCH  25  31
ATOM     31  O   UNL     1     -34.942  22.840   6.203  0.00  0.00    -0.379 OA
ATOM     32  H   UNL     1     -35.452  23.336   6.862  0.00  0.00    +0.211 HD
ENDBRANCH  25  31
BRANCH  26  33
ATOM     33  O   UNL     1     -37.871  21.713   2.578  0.00  0.00    -0.377 OA
ATOM     34  H   UNL     1     -37.562  20.808   2.737  0.00  0.00    +0.211 HD
ENDBRANCH  26  33
BRANCH  27  35
ATOM     35  C   UNL     1     -35.207  25.697   5.489  0.00  0.00    +0.169 C 
BRANCH  35  36
ATOM     36  O   UNL     1     -35.622  26.907   4.882  0.00  0.00    -0.379 OA
ATOM     37  H   UNL     1     -36.400  26.742   4.328  0.00  0.00    +0.211 HD
ENDBRANCH  35  36
ENDBRANCH  27  35
ENDBRANCH  22  28
ENDBRANCH   3  22
TORSDOF 10
ENDMDL
MODEL 7
REMARK VINA RESULT:      -6.8      2.783      9.302
REMARK  Name = 5321954
REMARK  10 active torsions:
REMARK  status: ('A' for Active; 'I' for Inactive)
REMARK    1  A    between atoms: C_3  and  O_22
REMARK    2  A    between atoms: C_8  and  O_20
REMARK    3  A    between atoms: C_10  and  C_12
REMARK    4  A    between atoms: C_17  and  O_18
REMARK    5  A    between atoms: O_22  and  C_28
REMARK    6  A    between atoms: C_24  and  O_29
REMARK    7  A    between atoms: C_25  and  O_31
REMARK    8  A    between atoms: C_26  and  O_33
REMARK    9  A    between atoms: C_27  and  C_35
REMARK   10  A    between atoms: C_35  and  O_36
REMARK                            x       y       z     vdW  Elec       q    Type
REMARK                         _______ _______ _______ _____ _____    ______ ____
ROOT
ATOM      1  O   UNL     1     -35.399  24.691   1.917  0.00  0.00    -0.453 OA
ATOM      2  O   UNL     1     -35.976  23.449   5.753  0.00  0.00    -0.286 OA
ATOM      3  C   UNL     1     -35.020  21.103   1.410  0.00  0.00    +0.147 C 
ATOM      4  C   UNL     1     -35.087  22.474   1.166  0.00  0.00    +0.075 C 
ATOM      5  C   UNL     1     -35.210  20.611   2.702  0.00  0.00    +0.074 C 
ATOM      6  C   UNL     1     -35.345  23.355   2.217  0.00  0.00    +0.154 C 
ATOM      7  C   UNL     1     -35.535  22.861   3.508  0.00  0.00    +0.107 C 
ATOM      8  C   UNL     1     -35.468  21.488   3.755  0.00  0.00    +0.143 C 
ATOM      9  C   UNL     1     -35.803  23.811   4.598  0.00  0.00    +0.205 C 
ATOM     10  C   UNL     1     -35.660  25.589   2.941  0.00  0.00    +0.148 C 
ATOM     11  C   UNL     1     -35.854  25.238   4.222  0.00  0.00    +0.080 C 
ENDROOT
BRANCH  10  12
ATOM     12  C   UNL     1     -35.691  27.000   2.509  0.00  0.00    +0.035 C 
ATOM     13  C   UNL     1     -34.829  27.932   3.093  0.00  0.00    +0.006 C 
ATOM     14  C   UNL     1     -36.580  27.411   1.513  0.00  0.00    +0.006 C 
ATOM     15  C   UNL     1     -34.857  29.265   2.685  0.00  0.00    +0.037 C 
ATOM     16  C   UNL     1     -36.610  28.744   1.104  0.00  0.00    +0.037 C 
ATOM     17  C   UNL     1     -35.748  29.671   1.691  0.00  0.00    +0.139 C 
BRANCH  17  18
ATOM     18  O   UNL     1     -35.776  30.973   1.292  0.00  0.00    -0.471 OA
ATOM     19  C   UNL     1     -36.774  31.809   1.875  0.00  0.00    +0.252 C 
ENDBRANCH  17  18
ENDBRANCH  10  12
BRANCH   8  20
ATOM     20  O   UNL     1     -35.646  20.958   4.998  0.00  0.00    -0.505 OA
ATOM     21  H   UNL     1     -35.007  20.370   5.351  0.00  0.00    +0.292 HD
ENDBRANCH   8  20
BRANCH   3  22
ATOM     22  O   UNL     1     -34.767  20.241   0.384  0.00  0.00    -0.450 OA
BRANCH  22  28
ATOM     23  O   UNL     1     -32.714  19.136   0.472  0.00  0.00    -0.316 OA
ATOM     24  C   UNL     1     -33.973  16.588   0.054  0.00  0.00    +0.173 C 
ATOM     25  C   UNL     1     -32.462  16.785  -0.063  0.00  0.00    +0.169 C 
ATOM     26  C   UNL     1     -34.720  17.908  -0.136  0.00  0.00    +0.210 C 
ATOM     27  C   UNL     1     -31.996  17.949   0.814  0.00  0.00    +0.177 C 
ATOM     28  C   UNL     1     -34.114  19.019   0.721  0.00  0.00    +0.318 C 
BRANCH  24  29
ATOM     29  O   UNL     1     -34.377  15.662  -0.956  0.00  0.00    -0.379 OA
ATOM     30  H   UNL     1     -35.288  15.858  -1.227  0.00  0.00    +0.211 HD
ENDBRANCH  24  29
BRANCH  25  31
ATOM     31  O   UNL     1     -31.797  15.592   0.346  0.00  0.00    -0.379 OA
ATOM     32  H   UNL     1     -31.494  15.689   1.262  0.00  0.00    +0.211 HD
ENDBRANCH  25  31
BRANCH  26  33
ATOM     33  O   UNL     1     -36.084  17.740   0.248  0.00  0.00    -0.377 OA
ATOM     34  H   UNL     1     -36.647  17.753  -0.542  0.00  0.00    +0.211 HD
ENDBRANCH  26  33
BRANCH  27  35
ATOM     35  C   UNL     1     -30.511  18.241   0.625  0.00  0.00    +0.169 C 
BRANCH  35  36
ATOM     36  O   UNL     1     -29.769  17.366   1.455  0.00  0.00    -0.379 OA
ATOM     37  H   UNL     1     -29.020  17.844   1.843  0.00  0.00    +0.211 HD
ENDBRANCH  35  36
ENDBRANCH  27  35
ENDBRANCH  22  28
ENDBRANCH   3  22
TORSDOF 10
ENDMDL
MODEL 8
REMARK VINA RESULT:      -6.8      2.746      4.049
REMARK  Name = 5321954
REMARK  10 active torsions:
REMARK  status: ('A' for Active; 'I' for Inactive)
REMARK    1  A    between atoms: C_3  and  O_22
REMARK    2  A    between atoms: C_8  and  O_20
REMARK    3  A    between atoms: C_10  and  C_12
REMARK    4  A    between atoms: C_17  and  O_18
REMARK    5  A    between atoms: O_22  and  C_28
REMARK    6  A    between atoms: C_24  and  O_29
REMARK    7  A    between atoms: C_25  and  O_31
REMARK    8  A    between atoms: C_26  and  O_33
REMARK    9  A    between atoms: C_27  and  C_35
REMARK   10  A    between atoms: C_35  and  O_36
REMARK                            x       y       z     vdW  Elec       q    Type
REMARK                         _______ _______ _______ _____ _____    ______ ____
ROOT
ATOM      1  O   UNL     1     -34.688  22.375   1.942  0.00  0.00    -0.453 OA
ATOM      2  O   UNL     1     -38.537  21.075   1.634  0.00  0.00    -0.286 OA
ATOM      3  C   UNL     1     -36.386  25.336   3.218  0.00  0.00    +0.147 C 
ATOM      4  C   UNL     1     -35.382  24.458   2.811  0.00  0.00    +0.075 C 
ATOM      5  C   UNL     1     -37.726  24.952   3.140  0.00  0.00    +0.074 C 
ATOM      6  C   UNL     1     -35.719  23.194   2.326  0.00  0.00    +0.154 C 
ATOM      7  C   UNL     1     -37.057  22.812   2.250  0.00  0.00    +0.107 C 
ATOM      8  C   UNL     1     -38.066  23.689   2.656  0.00  0.00    +0.143 C 
ATOM      9  C   UNL     1     -37.385  21.475   1.732  0.00  0.00    +0.205 C 
ATOM     10  C   UNL     1     -34.993  21.111   1.462  0.00  0.00    +0.148 C 
ATOM     11  C   UNL     1     -36.241  20.631   1.335  0.00  0.00    +0.080 C 
ENDROOT
BRANCH  10  12
ATOM     12  C   UNL     1     -33.812  20.316   1.071  0.00  0.00    +0.035 C 
ATOM     13  C   UNL     1     -33.634  19.026   1.578  0.00  0.00    +0.006 C 
ATOM     14  C   UNL     1     -32.867  20.849   0.191  0.00  0.00    +0.006 C 
ATOM     15  C   UNL     1     -32.518  18.275   1.209  0.00  0.00    +0.037 C 
ATOM     16  C   UNL     1     -31.750  20.099  -0.179  0.00  0.00    +0.037 C 
ATOM     17  C   UNL     1     -31.576  18.812   0.331  0.00  0.00    +0.139 C 
BRANCH  17  18
ATOM     18  O   UNL     1     -30.486  18.079  -0.030  0.00  0.00    -0.471 OA
ATOM     19  C   UNL     1     -29.649  17.600   1.021  0.00  0.00    +0.252 C 
ENDBRANCH  17  18
ENDBRANCH  10  12
BRANCH   8  20
ATOM     20  O   UNL     1     -39.388  23.362   2.599  0.00  0.00    -0.505 OA
ATOM     21  H   UNL     1     -39.861  23.191   3.390  0.00  0.00    +0.292 HD
ENDBRANCH   8  20
BRANCH   3  22
ATOM     22  O   UNL     1     -36.059  26.572   3.691  0.00  0.00    -0.450 OA
BRANCH  22  28
ATOM     23  O   UNL     1     -34.239  27.064   5.067  0.00  0.00    -0.316 OA
ATOM     24  C   UNL     1     -33.039  28.702   3.036  0.00  0.00    +0.173 C 
ATOM     25  C   UNL     1     -32.559  28.711   4.487  0.00  0.00    +0.169 C 
ATOM     26  C   UNL     1     -34.478  28.197   2.932  0.00  0.00    +0.210 C 
ATOM     27  C   UNL     1     -32.847  27.370   5.163  0.00  0.00    +0.177 C 
ATOM     28  C   UNL     1     -34.670  26.900   3.717  0.00  0.00    +0.318 C 
BRANCH  24  29
ATOM     29  O   UNL     1     -32.966  30.039   2.538  0.00  0.00    -0.379 OA
ATOM     30  H   UNL     1     -32.046  30.343   2.560  0.00  0.00    +0.211 HD
ENDBRANCH  24  29
BRANCH  25  31
ATOM     31  O   UNL     1     -31.156  28.963   4.518  0.00  0.00    -0.379 OA
ATOM     32  H   UNL     1     -30.916  29.346   5.376  0.00  0.00    +0.211 HD
ENDBRANCH  25  31
BRANCH  26  33
ATOM     33  O   UNL     1     -34.793  27.943   1.564  0.00  0.00    -0.377 OA
ATOM     34  H   UNL     1     -35.461  27.242   1.510  0.00  0.00    +0.211 HD
ENDBRANCH  26  33
BRANCH  27  35
ATOM     35  C   UNL     1     -32.484  27.394   6.644  0.00  0.00    +0.169 C 
BRANCH  35  36
ATOM     36  O   UNL     1     -31.074  27.346   6.765  0.00  0.00    -0.379 OA
ATOM     37  H   UNL     1     -30.753  28.174   7.154  0.00  0.00    +0.211 HD
ENDBRANCH  35  36
ENDBRANCH  27  35
ENDBRANCH  22  28
ENDBRANCH   3  22
TORSDOF 10
ENDMDL
MODEL 9
REMARK VINA RESULT:      -6.8      1.819      8.098
REMARK  Name = 5321954
REMARK  10 active torsions:
REMARK  status: ('A' for Active; 'I' for Inactive)
REMARK    1  A    between atoms: C_3  and  O_22
REMARK    2  A    between atoms: C_8  and  O_20
REMARK    3  A    between atoms: C_10  and  C_12
REMARK    4  A    between atoms: C_17  and  O_18
REMARK    5  A    between atoms: O_22  and  C_28
REMARK    6  A    between atoms: C_24  and  O_29
REMARK    7  A    between atoms: C_25  and  O_31
REMARK    8  A    between atoms: C_26  and  O_33
REMARK    9  A    between atoms: C_27  and  C_35
REMARK   10  A    between atoms: C_35  and  O_36
REMARK                            x       y       z     vdW  Elec       q    Type
REMARK                         _______ _______ _______ _____ _____    ______ ____
ROOT
ATOM      1  O   UNL     1     -35.795  22.417   2.248  0.00  0.00    -0.453 OA
ATOM      2  O   UNL     1     -39.862  22.258   2.068  0.00  0.00    -0.286 OA
ATOM      3  C   UNL     1     -36.147  19.696  -0.150  0.00  0.00    +0.147 C 
ATOM      4  C   UNL     1     -35.582  20.650   0.696  0.00  0.00    +0.075 C 
ATOM      5  C   UNL     1     -37.534  19.590  -0.259  0.00  0.00    +0.074 C 
ATOM      6  C   UNL     1     -36.408  21.499   1.434  0.00  0.00    +0.154 C 
ATOM      7  C   UNL     1     -37.793  21.392   1.323  0.00  0.00    +0.107 C 
ATOM      8  C   UNL     1     -38.362  20.437   0.476  0.00  0.00    +0.143 C 
ATOM      9  C   UNL     1     -38.640  22.298   2.113  0.00  0.00    +0.205 C 
ATOM     10  C   UNL     1     -36.591  23.278   2.988  0.00  0.00    +0.148 C 
ATOM     11  C   UNL     1     -37.933  23.269   2.972  0.00  0.00    +0.080 C 
ENDROOT
BRANCH  10  12
ATOM     12  C   UNL     1     -35.831  24.220   3.834  0.00  0.00    +0.035 C 
ATOM     13  C   UNL     1     -36.484  24.961   4.821  0.00  0.00    +0.006 C 
ATOM     14  C   UNL     1     -34.454  24.372   3.652  0.00  0.00    +0.006 C 
ATOM     15  C   UNL     1     -35.766  25.851   5.621  0.00  0.00    +0.037 C 
ATOM     16  C   UNL     1     -33.735  25.261   4.451  0.00  0.00    +0.037 C 
ATOM     17  C   UNL     1     -34.391  26.001   5.435  0.00  0.00    +0.139 C 
BRANCH  17  18
ATOM     18  O   UNL     1     -33.690  26.869   6.215  0.00  0.00    -0.471 OA
ATOM     19  C   UNL     1     -32.598  27.555   5.605  0.00  0.00    +0.252 C 
ENDBRANCH  17  18
ENDBRANCH  10  12
BRANCH   8  20
ATOM     20  O   UNL     1     -39.710  20.294   0.335  0.00  0.00    -0.505 OA
ATOM     21  H   UNL     1     -40.083  20.204  -0.520  0.00  0.00    +0.292 HD
ENDBRANCH   8  20
BRANCH   3  22
ATOM     22  O   UNL     1     -35.342  18.864  -0.871  0.00  0.00    -0.450 OA
BRANCH  22  28
ATOM     23  O   UNL     1     -33.020  18.812  -0.645  0.00  0.00    -0.316 OA
ATOM     24  C   UNL     1     -33.076  16.058   0.169  0.00  0.00    +0.173 C 
ATOM     25  C   UNL     1     -31.784  16.769  -0.232  0.00  0.00    +0.169 C 
ATOM     26  C   UNL     1     -34.299  16.760  -0.422  0.00  0.00    +0.210 C 
ATOM     27  C   UNL     1     -31.885  18.272   0.034  0.00  0.00    +0.177 C 
ATOM     28  C   UNL     1     -34.250  18.267  -0.172  0.00  0.00    +0.318 C 
BRANCH  24  29
ATOM     29  O   UNL     1     -33.014  14.718  -0.322  0.00  0.00    -0.379 OA
ATOM     30  H   UNL     1     -33.134  14.720  -1.284  0.00  0.00    +0.211 HD
ENDBRANCH  24  29
BRANCH  25  31
ATOM     31  O   UNL     1     -30.698  16.230   0.518  0.00  0.00    -0.379 OA
ATOM     32  H   UNL     1     -29.890  16.257  -0.018  0.00  0.00    +0.211 HD
ENDBRANCH  25  31
BRANCH  26  33
ATOM     33  O   UNL     1     -35.482  16.244   0.188  0.00  0.00    -0.377 OA
ATOM     34  H   UNL     1     -35.810  16.876   0.846  0.00  0.00    +0.211 HD
ENDBRANCH  26  33
BRANCH  27  35
ATOM     35  C   UNL     1     -30.652  19.019  -0.465  0.00  0.00    +0.169 C 
BRANCH  35  36
ATOM     36  O   UNL     1     -29.562  18.712   0.385  0.00  0.00    -0.379 OA
ATOM     37  H   UNL     1     -28.776  18.523  -0.151  0.00  0.00    +0.211 HD
ENDBRANCH  35  36
ENDBRANCH  27  35
ENDBRANCH  22  28
ENDBRANCH   3  22
TORSDOF 10
ENDMDL
