MODEL 1
REMARK VINA RESULT:      -6.9      0.000      0.000
REMARK  Name = 196582
REMARK  9 active torsions:
REMARK  status: ('A' for Active; 'I' for Inactive)
REMARK    1  A    between atoms: N_4  and  C_21
REMARK    2  A    between atoms: C_21  and  C_22
REMARK    3  A    between atoms: C_22  and  O_23
REMARK    4  A    between atoms: C_22  and  C_25
REMARK    5  A    between atoms: C_25  and  O_26
REMARK    6  A    between atoms: C_25  and  C_28
REMARK    7  A    between atoms: C_28  and  O_29
REMARK    8  A    between atoms: C_28  and  C_31
REMARK    9  A    between atoms: C_31  and  O_32
REMARK                            x       y       z     vdW  Elec       q    Type
REMARK                         _______ _______ _______ _____ _____    ______ ____
ROOT
ATOM      1  O   UNL     1     -36.555  22.845   4.385  0.00  0.00    -0.335 OA
ATOM      2  O   UNL     1     -35.726  20.464   2.812  0.00  0.00    -0.271 OA
ATOM      3  O   UNL     1     -40.143  21.009   1.727  0.00  0.00    -0.193 OA
ATOM      4  N   UNL     1     -37.567  24.858   2.327  0.00  0.00    -0.261 N 
ATOM      5  N   UNL     1     -38.880  22.892   1.962  0.00  0.00    -0.307 NA
ATOM      6  N   UNL     1     -37.947  20.712   2.230  0.00  0.00    -0.199 N 
ATOM      7  C   UNL     1     -36.726  22.615   2.971  0.00  0.00    +0.251 C 
ATOM      8  C   UNL     1     -35.484  23.264   3.532  0.00  0.00    +0.181 C 
ATOM      9  C   UNL     1     -37.796  23.477   2.388  0.00  0.00    +0.214 C 
ATOM     10  C   UNL     1     -35.319  24.736   3.324  0.00  0.00    +0.021 C 
ATOM     11  C   UNL     1     -36.353  25.498   2.729  0.00  0.00    +0.051 C 
ATOM     12  C   UNL     1     -36.718  21.165   2.660  0.00  0.00    +0.271 C 
ATOM     13  C   UNL     1     -34.128  25.371   3.728  0.00  0.00    -0.005 C 
ATOM     14  C   UNL     1     -36.130  26.883   2.562  0.00  0.00    +0.010 C 
ATOM     15  C   UNL     1     -33.937  26.737   3.552  0.00  0.00    -0.026 C 
ATOM     16  C   UNL     1     -34.940  27.493   2.967  0.00  0.00    -0.025 C 
ATOM     17  C   UNL     1     -39.049  21.524   1.971  0.00  0.00    +0.272 C 
ATOM     18  C   UNL     1     -32.655  27.360   3.996  0.00  0.00    +0.031 C 
ATOM     19  C   UNL     1     -34.771  28.963   2.758  0.00  0.00    +0.031 C 
ATOM     20  H   UNL     1     -38.053  19.742   2.096  0.00  0.00    +0.169 HD
ENDROOT
BRANCH   4  21
ATOM     21  C   UNL     1     -38.612  25.741   1.790  0.00  0.00    +0.129 C 
BRANCH  21  22
ATOM     22  C   UNL     1     -39.597  26.125   2.901  0.00  0.00    +0.160 C 
BRANCH  22  23
ATOM     23  O   UNL     1     -39.671  25.049   3.836  0.00  0.00    -0.380 OA
ATOM     24  H   UNL     1     -39.807  25.404   4.728  0.00  0.00    +0.211 HD
ENDBRANCH  22  23
BRANCH  22  25
ATOM     25  C   UNL     1     -41.010  26.430   2.363  0.00  0.00    +0.168 C 
BRANCH  25  26
ATOM     26  O   UNL     1     -40.931  27.433   1.351  0.00  0.00    -0.379 OA
ATOM     27  H   UNL     1     -40.693  27.022   0.506  0.00  0.00    +0.211 HD
ENDBRANCH  25  26
BRANCH  25  28
ATOM     28  C   UNL     1     -41.981  26.909   3.458  0.00  0.00    +0.169 C 
BRANCH  28  29
ATOM     29  O   UNL     1     -41.240  27.578   4.481  0.00  0.00    -0.379 OA
ATOM     30  H   UNL     1     -41.801  27.696   5.263  0.00  0.00    +0.211 HD
ENDBRANCH  28  29
BRANCH  28  31
ATOM     31  C   UNL     1     -43.037  27.872   2.917  0.00  0.00    +0.169 C 
BRANCH  31  32
ATOM     32  O   UNL     1     -42.526  29.199   2.986  0.00  0.00    -0.379 OA
ATOM     33  H   UNL     1     -42.299  29.411   3.905  0.00  0.00    +0.211 HD
ENDBRANCH  31  32
ENDBRANCH  28  31
ENDBRANCH  25  28
ENDBRANCH  22  25
ENDBRANCH  21  22
ENDBRANCH   4  21
TORSDOF 9
ENDMDL
MODEL 2
REMARK VINA RESULT:      -6.6      2.359      5.914
REMARK  Name = 196582
REMARK  9 active torsions:
REMARK  status: ('A' for Active; 'I' for Inactive)
REMARK    1  A    between atoms: N_4  and  C_21
REMARK    2  A    between atoms: C_21  and  C_22
REMARK    3  A    between atoms: C_22  and  O_23
REMARK    4  A    between atoms: C_22  and  C_25
REMARK    5  A    between atoms: C_25  and  O_26
REMARK    6  A    between atoms: C_25  and  C_28
REMARK    7  A    between atoms: C_28  and  O_29
REMARK    8  A    between atoms: C_28  and  C_31
REMARK    9  A    between atoms: C_31  and  O_32
REMARK                            x       y       z     vdW  Elec       q    Type
REMARK                         _______ _______ _______ _____ _____    ______ ____
ROOT
ATOM      1  O   UNL     1     -39.979  21.053   1.697  0.00  0.00    -0.335 OA
ATOM      2  O   UNL     1     -41.143  22.929  -0.292  0.00  0.00    -0.271 OA
ATOM      3  O   UNL     1     -40.667  25.486   3.479  0.00  0.00    -0.193 OA
ATOM      4  N   UNL     1     -37.348  22.330   2.567  0.00  0.00    -0.261 N 
ATOM      5  N   UNL     1     -39.014  23.989   3.011  0.00  0.00    -0.307 NA
ATOM      6  N   UNL     1     -40.908  24.255   1.584  0.00  0.00    -0.199 N 
ATOM      7  C   UNL     1     -39.495  22.359   1.323  0.00  0.00    +0.251 C 
ATOM      8  C   UNL     1     -39.066  21.108   0.595  0.00  0.00    +0.181 C 
ATOM      9  C   UNL     1     -38.593  22.941   2.360  0.00  0.00    +0.214 C 
ATOM     10  C   UNL     1     -37.678  20.608   0.838  0.00  0.00    +0.021 C 
ATOM     11  C   UNL     1     -36.852  21.223   1.809  0.00  0.00    +0.051 C 
ATOM     12  C   UNL     1     -40.585  23.195   0.765  0.00  0.00    +0.271 C 
ATOM     13  C   UNL     1     -37.190  19.510   0.101  0.00  0.00    -0.005 C 
ATOM     14  C   UNL     1     -35.552  20.700   1.988  0.00  0.00    +0.010 C 
ATOM     15  C   UNL     1     -35.905  19.016   0.299  0.00  0.00    -0.026 C 
ATOM     16  C   UNL     1     -35.086  19.612   1.244  0.00  0.00    -0.025 C 
ATOM     17  C   UNL     1     -40.215  24.609   2.739  0.00  0.00    +0.272 C 
ATOM     18  C   UNL     1     -35.437  17.853  -0.510  0.00  0.00    +0.031 C 
ATOM     19  C   UNL     1     -33.698  19.112   1.483  0.00  0.00    +0.031 C 
ATOM     20  H   UNL     1     -41.687  24.803   1.334  0.00  0.00    +0.169 HD
ENDROOT
BRANCH   4  21
ATOM     21  C   UNL     1     -36.448  22.855   3.603  0.00  0.00    +0.129 C 
BRANCH  21  22
ATOM     22  C   UNL     1     -35.803  24.161   3.127  0.00  0.00    +0.160 C 
BRANCH  22  23
ATOM     23  O   UNL     1     -34.427  23.909   2.837  0.00  0.00    -0.380 OA
ATOM     24  H   UNL     1     -33.896  24.062   3.635  0.00  0.00    +0.211 HD
ENDBRANCH  22  23
BRANCH  22  25
ATOM     25  C   UNL     1     -35.904  25.290   4.172  0.00  0.00    +0.168 C 
BRANCH  25  26
ATOM     26  O   UNL     1     -37.167  25.220   4.832  0.00  0.00    -0.379 OA
ATOM     27  H   UNL     1     -37.729  24.567   4.388  0.00  0.00    +0.211 HD
ENDBRANCH  25  26
BRANCH  25  28
ATOM     28  C   UNL     1     -35.744  26.694   3.560  0.00  0.00    +0.169 C 
BRANCH  28  29
ATOM     29  O   UNL     1     -34.360  26.935   3.295  0.00  0.00    -0.379 OA
ATOM     30  H   UNL     1     -33.866  26.104   3.371  0.00  0.00    +0.211 HD
ENDBRANCH  28  29
BRANCH  28  31
ATOM     31  C   UNL     1     -36.522  26.851   2.254  0.00  0.00    +0.169 C 
BRANCH  31  32
ATOM     32  O   UNL     1     -37.915  26.868   2.549  0.00  0.00    -0.379 OA
ATOM     33  H   UNL     1     -38.076  27.437   3.318  0.00  0.00    +0.211 HD
ENDBRANCH  31  32
ENDBRANCH  28  31
ENDBRANCH  25  28
ENDBRANCH  22  25
ENDBRANCH  21  22
ENDBRANCH   4  21
TORSDOF 9
ENDMDL
MODEL 3
REMARK VINA RESULT:      -6.5      4.664      9.766
REMARK  Name = 196582
REMARK  9 active torsions:
REMARK  status: ('A' for Active; 'I' for Inactive)
REMARK    1  A    between atoms: N_4  and  C_21
REMARK    2  A    between atoms: C_21  and  C_22
REMARK    3  A    between atoms: C_22  and  O_23
REMARK    4  A    between atoms: C_22  and  C_25
REMARK    5  A    between atoms: C_25  and  O_26
REMARK    6  A    between atoms: C_25  and  C_28
REMARK    7  A    between atoms: C_28  and  O_29
REMARK    8  A    between atoms: C_28  and  C_31
REMARK    9  A    between atoms: C_31  and  O_32
REMARK                            x       y       z     vdW  Elec       q    Type
REMARK                         _______ _______ _______ _____ _____    ______ ____
ROOT
ATOM      1  O   UNL     1     -45.364  26.577   6.715  0.00  0.00    -0.335 OA
ATOM      2  O   UNL     1     -47.048  28.928   7.399  0.00  0.00    -0.271 OA
ATOM      3  O   UNL     1     -43.003  30.766   6.284  0.00  0.00    -0.193 OA
ATOM      4  N   UNL     1     -44.444  27.053   3.845  0.00  0.00    -0.261 N 
ATOM      5  N   UNL     1     -43.724  28.990   5.051  0.00  0.00    -0.307 NA
ATOM      6  N   UNL     1     -45.028  29.895   6.833  0.00  0.00    -0.199 N 
ATOM      7  C   UNL     1     -45.586  27.766   5.928  0.00  0.00    +0.251 C 
ATOM      8  C   UNL     1     -46.485  26.557   5.824  0.00  0.00    +0.181 C 
ATOM      9  C   UNL     1     -44.520  27.968   4.904  0.00  0.00    +0.214 C 
ATOM     10  C   UNL     1     -46.363  25.709   4.599  0.00  0.00    +0.021 C 
ATOM     11  C   UNL     1     -45.356  25.971   3.640  0.00  0.00    +0.051 C 
ATOM     12  C   UNL     1     -45.989  28.908   6.785  0.00  0.00    +0.271 C 
ATOM     13  C   UNL     1     -47.254  24.635   4.400  0.00  0.00    -0.005 C 
ATOM     14  C   UNL     1     -45.298  25.130   2.506  0.00  0.00    +0.010 C 
ATOM     15  C   UNL     1     -47.172  23.823   3.274  0.00  0.00    -0.026 C 
ATOM     16  C   UNL     1     -46.193  24.072   2.326  0.00  0.00    -0.025 C 
ATOM     17  C   UNL     1     -43.866  29.913   6.065  0.00  0.00    +0.272 C 
ATOM     18  C   UNL     1     -48.142  22.700   3.110  0.00  0.00    +0.031 C 
ATOM     19  C   UNL     1     -46.076  23.224   1.101  0.00  0.00    +0.031 C 
ATOM     20  H   UNL     1     -45.174  30.642   7.456  0.00  0.00    +0.169 HD
ENDROOT
BRANCH   4  21
ATOM     21  C   UNL     1     -43.385  27.201   2.836  0.00  0.00    +0.129 C 
BRANCH  21  22
ATOM     22  C   UNL     1     -42.100  26.517   3.318  0.00  0.00    +0.160 C 
BRANCH  22  23
ATOM     23  O   UNL     1     -41.338  27.460   4.072  0.00  0.00    -0.380 OA
ATOM     24  H   UNL     1     -41.072  27.060   4.915  0.00  0.00    +0.211 HD
ENDBRANCH  22  23
BRANCH  22  25
ATOM     25  C   UNL     1     -41.240  25.982   2.156  0.00  0.00    +0.168 C 
BRANCH  25  26
ATOM     26  O   UNL     1     -41.981  25.008   1.421  0.00  0.00    -0.379 OA
ATOM     27  H   UNL     1     -42.022  25.269   0.489  0.00  0.00    +0.211 HD
ENDBRANCH  25  26
BRANCH  25  28
ATOM     28  C   UNL     1     -39.919  25.345   2.627  0.00  0.00    +0.169 C 
BRANCH  28  29
ATOM     29  O   UNL     1     -40.062  24.920   3.984  0.00  0.00    -0.379 OA
ATOM     30  H   UNL     1     -39.526  24.126   4.133  0.00  0.00    +0.211 HD
ENDBRANCH  28  29
BRANCH  28  31
ATOM     31  C   UNL     1     -39.521  24.137   1.780  0.00  0.00    +0.169 C 
BRANCH  31  32
ATOM     32  O   UNL     1     -40.150  22.977   2.313  0.00  0.00    -0.379 OA
ATOM     33  H   UNL     1     -40.358  23.122   3.250  0.00  0.00    +0.211 HD
ENDBRANCH  31  32
ENDBRANCH  28  31
ENDBRANCH  25  28
ENDBRANCH  22  25
ENDBRANCH  21  22
ENDBRANCH   4  21
TORSDOF 9
ENDMDL
MODEL 4
REMARK VINA RESULT:      -6.5      4.670      7.903
REMARK  Name = 196582
REMARK  9 active torsions:
REMARK  status: ('A' for Active; 'I' for Inactive)
REMARK    1  A    between atoms: N_4  and  C_21
REMARK    2  A    between atoms: C_21  and  C_22
REMARK    3  A    between atoms: C_22  and  O_23
REMARK    4  A    between atoms: C_22  and  C_25
REMARK    5  A    between atoms: C_25  and  O_26
REMARK    6  A    between atoms: C_25  and  C_28
REMARK    7  A    between atoms: C_28  and  O_29
REMARK    8  A    between atoms: C_28  and  C_31
REMARK    9  A    between atoms: C_31  and  O_32
REMARK                            x       y       z     vdW  Elec       q    Type
REMARK                         _______ _______ _______ _____ _____    ______ ____
ROOT
ATOM      1  O   UNL     1     -32.603  30.763   5.580  0.00  0.00    -0.335 OA
ATOM      2  O   UNL     1     -29.800  31.611   5.078  0.00  0.00    -0.271 OA
ATOM      3  O   UNL     1     -29.398  27.261   6.454  0.00  0.00    -0.193 OA
ATOM      4  N   UNL     1     -33.054  28.354   3.762  0.00  0.00    -0.261 N 
ATOM      5  N   UNL     1     -31.153  27.773   5.094  0.00  0.00    -0.307 NA
ATOM      6  N   UNL     1     -29.555  29.417   5.756  0.00  0.00    -0.199 N 
ATOM      7  C   UNL     1     -31.609  30.101   4.770  0.00  0.00    +0.251 C 
ATOM      8  C   UNL     1     -32.529  31.157   4.205  0.00  0.00    +0.181 C 
ATOM      9  C   UNL     1     -31.934  28.661   4.547  0.00  0.00    +0.214 C 
ATOM     10  C   UNL     1     -33.635  30.702   3.308  0.00  0.00    +0.021 C 
ATOM     11  C   UNL     1     -33.874  29.322   3.103  0.00  0.00    +0.051 C 
ATOM     12  C   UNL     1     -30.238  30.474   5.193  0.00  0.00    +0.271 C 
ATOM     13  C   UNL     1     -34.453  31.654   2.666  0.00  0.00    -0.005 C 
ATOM     14  C   UNL     1     -34.936  28.963   2.243  0.00  0.00    +0.010 C 
ATOM     15  C   UNL     1     -35.492  31.270   1.825  0.00  0.00    -0.026 C 
ATOM     16  C   UNL     1     -35.733  29.923   1.614  0.00  0.00    -0.025 C 
ATOM     17  C   UNL     1     -30.019  28.105   5.805  0.00  0.00    +0.272 C 
ATOM     18  C   UNL     1     -36.326  32.320   1.168  0.00  0.00    +0.031 C 
ATOM     19  C   UNL     1     -36.838  29.471   0.715  0.00  0.00    +0.031 C 
ATOM     20  H   UNL     1     -28.674  29.604   6.152  0.00  0.00    +0.169 HD
ENDROOT
BRANCH   4  21
ATOM     21  C   UNL     1     -33.423  26.947   3.550  0.00  0.00    +0.129 C 
BRANCH  21  22
ATOM     22  C   UNL     1     -34.182  26.413   4.771  0.00  0.00    +0.160 C 
BRANCH  22  23
ATOM     23  O   UNL     1     -33.499  25.259   5.262  0.00  0.00    -0.380 OA
ATOM     24  H   UNL     1     -32.542  25.415   5.237  0.00  0.00    +0.211 HD
ENDBRANCH  22  23
BRANCH  22  25
ATOM     25  C   UNL     1     -35.643  26.041   4.447  0.00  0.00    +0.168 C 
BRANCH  25  26
ATOM     26  O   UNL     1     -36.504  26.555   5.463  0.00  0.00    -0.379 OA
ATOM     27  H   UNL     1     -36.713  27.482   5.271  0.00  0.00    +0.211 HD
ENDBRANCH  25  26
BRANCH  25  28
ATOM     28  C   UNL     1     -35.867  24.522   4.333  0.00  0.00    +0.169 C 
BRANCH  28  29
ATOM     29  O   UNL     1     -36.061  23.978   5.640  0.00  0.00    -0.379 OA
ATOM     30  H   UNL     1     -36.781  23.328   5.617  0.00  0.00    +0.211 HD
ENDBRANCH  28  29
BRANCH  28  31
ATOM     31  C   UNL     1     -37.085  24.177   3.478  0.00  0.00    +0.169 C 
BRANCH  31  32
ATOM     32  O   UNL     1     -38.242  24.756   4.074  0.00  0.00    -0.379 OA
ATOM     33  H   UNL     1     -38.015  25.624   4.442  0.00  0.00    +0.211 HD
ENDBRANCH  31  32
ENDBRANCH  28  31
ENDBRANCH  25  28
ENDBRANCH  22  25
ENDBRANCH  21  22
ENDBRANCH   4  21
TORSDOF 9
ENDMDL
MODEL 5
REMARK VINA RESULT:      -6.4      3.222      4.539
REMARK  Name = 196582
REMARK  9 active torsions:
REMARK  status: ('A' for Active; 'I' for Inactive)
REMARK    1  A    between atoms: N_4  and  C_21
REMARK    2  A    between atoms: C_21  and  C_22
REMARK    3  A    between atoms: C_22  and  O_23
REMARK    4  A    between atoms: C_22  and  C_25
REMARK    5  A    between atoms: C_25  and  O_26
REMARK    6  A    between atoms: C_25  and  C_28
REMARK    7  A    between atoms: C_28  and  O_29
REMARK    8  A    between atoms: C_28  and  C_31
REMARK    9  A    between atoms: C_31  and  O_32
REMARK                            x       y       z     vdW  Elec       q    Type
REMARK                         _______ _______ _______ _____ _____    ______ ____
ROOT
ATOM      1  O   UNL     1     -35.921  25.675   5.984  0.00  0.00    -0.335 OA
ATOM      2  O   UNL     1     -35.376  22.770   6.290  0.00  0.00    -0.271 OA
ATOM      3  O   UNL     1     -37.929  23.012   2.495  0.00  0.00    -0.193 OA
ATOM      4  N   UNL     1     -34.821  26.417   3.236  0.00  0.00    -0.261 N 
ATOM      5  N   UNL     1     -36.376  24.647   2.820  0.00  0.00    -0.307 NA
ATOM      6  N   UNL     1     -36.651  22.850   4.366  0.00  0.00    -0.199 N 
ATOM      7  C   UNL     1     -35.389  24.766   4.998  0.00  0.00    +0.251 C 
ATOM      8  C   UNL     1     -34.498  25.516   5.959  0.00  0.00    +0.181 C 
ATOM      9  C   UNL     1     -35.557  25.284   3.609  0.00  0.00    +0.214 C 
ATOM     10  C   UNL     1     -33.697  26.654   5.414  0.00  0.00    +0.021 C 
ATOM     11  C   UNL     1     -33.870  27.079   4.074  0.00  0.00    +0.051 C 
ATOM     12  C   UNL     1     -35.776  23.366   5.297  0.00  0.00    +0.271 C 
ATOM     13  C   UNL     1     -32.767  27.315   6.240  0.00  0.00    -0.005 C 
ATOM     14  C   UNL     1     -33.080  28.161   3.624  0.00  0.00    +0.010 C 
ATOM     15  C   UNL     1     -32.004  28.379   5.770  0.00  0.00    -0.026 C 
ATOM     16  C   UNL     1     -32.161  28.801   4.460  0.00  0.00    -0.025 C 
ATOM     17  C   UNL     1     -37.034  23.494   3.192  0.00  0.00    +0.272 C 
ATOM     18  C   UNL     1     -31.031  29.043   6.687  0.00  0.00    +0.031 C 
ATOM     19  C   UNL     1     -31.357  29.937   3.917  0.00  0.00    +0.031 C 
ATOM     20  H   UNL     1     -37.033  21.961   4.543  0.00  0.00    +0.169 HD
ENDROOT
BRANCH   4  21
ATOM     21  C   UNL     1     -34.987  26.975   1.886  0.00  0.00    +0.129 C 
BRANCH  21  22
ATOM     22  C   UNL     1     -35.969  28.152   1.921  0.00  0.00    +0.160 C 
BRANCH  22  23
ATOM     23  O   UNL     1     -37.296  27.640   1.800  0.00  0.00    -0.380 OA
ATOM     24  H   UNL     1     -37.854  28.293   1.348  0.00  0.00    +0.211 HD
ENDBRANCH  22  23
BRANCH  22  25
ATOM     25  C   UNL     1     -35.713  29.173   0.795  0.00  0.00    +0.168 C 
BRANCH  25  26
ATOM     26  O   UNL     1     -34.324  29.189   0.469  0.00  0.00    -0.379 OA
ATOM     27  H   UNL     1     -34.189  28.773  -0.395  0.00  0.00    +0.211 HD
ENDBRANCH  25  26
BRANCH  25  28
ATOM     28  C   UNL     1     -36.149  30.603   1.167  0.00  0.00    +0.169 C 
BRANCH  28  29
ATOM     29  O   UNL     1     -37.574  30.690   1.097  0.00  0.00    -0.379 OA
ATOM     30  H   UNL     1     -37.924  30.977   1.954  0.00  0.00    +0.211 HD
ENDBRANCH  28  29
BRANCH  28  31
ATOM     31  C   UNL     1     -35.708  30.997   2.575  0.00  0.00    +0.169 C 
BRANCH  31  32
ATOM     32  O   UNL     1     -34.336  31.376   2.537  0.00  0.00    -0.379 OA
ATOM     33  H   UNL     1     -33.817  30.766   3.084  0.00  0.00    +0.211 HD
ENDBRANCH  31  32
ENDBRANCH  28  31
ENDBRANCH  25  28
ENDBRANCH  22  25
ENDBRANCH  21  22
ENDBRANCH   4  21
TORSDOF 9
ENDMDL
MODEL 6
REMARK VINA RESULT:      -6.4      2.176      6.277
REMARK  Name = 196582
REMARK  9 active torsions:
REMARK  status: ('A' for Active; 'I' for Inactive)
REMARK    1  A    between atoms: N_4  and  C_21
REMARK    2  A    between atoms: C_21  and  C_22
REMARK    3  A    between atoms: C_22  and  O_23
REMARK    4  A    between atoms: C_22  and  C_25
REMARK    5  A    between atoms: C_25  and  O_26
REMARK    6  A    between atoms: C_25  and  C_28
REMARK    7  A    between atoms: C_28  and  O_29
REMARK    8  A    between atoms: C_28  and  C_31
REMARK    9  A    between atoms: C_31  and  O_32
REMARK                            x       y       z     vdW  Elec       q    Type
REMARK                         _______ _______ _______ _____ _____    ______ ____
ROOT
ATOM      1  O   UNL     1     -38.468  25.982   1.197  0.00  0.00    -0.335 OA
ATOM      2  O   UNL     1     -41.070  27.230   1.912  0.00  0.00    -0.271 OA
ATOM      3  O   UNL     1     -42.259  23.510  -0.483  0.00  0.00    -0.193 OA
ATOM      4  N   UNL     1     -38.576  23.166   2.368  0.00  0.00    -0.261 N 
ATOM      5  N   UNL     1     -40.496  23.317   0.948  0.00  0.00    -0.307 NA
ATOM      6  N   UNL     1     -41.711  25.358   0.720  0.00  0.00    -0.199 N 
ATOM      7  C   UNL     1     -39.606  25.358   1.828  0.00  0.00    +0.251 C 
ATOM      8  C   UNL     1     -38.521  26.041   2.627  0.00  0.00    +0.181 C 
ATOM      9  C   UNL     1     -39.579  23.873   1.689  0.00  0.00    +0.214 C 
ATOM     10  C   UNL     1     -37.565  25.171   3.378  0.00  0.00    +0.021 C 
ATOM     11  C   UNL     1     -37.610  23.763   3.237  0.00  0.00    +0.051 C 
ATOM     12  C   UNL     1     -40.858  26.089   1.518  0.00  0.00    +0.271 C 
ATOM     13  C   UNL     1     -36.604  25.756   4.227  0.00  0.00    -0.005 C 
ATOM     14  C   UNL     1     -36.677  23.002   3.975  0.00  0.00    +0.010 C 
ATOM     15  C   UNL     1     -35.697  24.981   4.941  0.00  0.00    -0.026 C 
ATOM     16  C   UNL     1     -35.734  23.602   4.814  0.00  0.00    -0.025 C 
ATOM     17  C   UNL     1     -41.512  24.031   0.348  0.00  0.00    +0.272 C 
ATOM     18  C   UNL     1     -34.702  25.652   5.828  0.00  0.00    +0.031 C 
ATOM     19  C   UNL     1     -34.778  22.735   5.568  0.00  0.00    +0.031 C 
ATOM     20  H   UNL     1     -42.521  25.808   0.387  0.00  0.00    +0.169 HD
ENDROOT
BRANCH   4  21
ATOM     21  C   UNL     1     -38.499  21.705   2.226  0.00  0.00    +0.129 C 
BRANCH  21  22
ATOM     22  C   UNL     1     -37.714  21.341   0.961  0.00  0.00    +0.160 C 
BRANCH  22  23
ATOM     23  O   UNL     1     -38.643  20.970  -0.059  0.00  0.00    -0.380 OA
ATOM     24  H   UNL     1     -39.329  21.652  -0.135  0.00  0.00    +0.211 HD
ENDBRANCH  22  23
BRANCH  22  25
ATOM     25  C   UNL     1     -36.721  20.184   1.189  0.00  0.00    +0.168 C 
BRANCH  25  26
ATOM     26  O   UNL     1     -36.756  19.786   2.560  0.00  0.00    -0.379 OA
ATOM     27  H   UNL     1     -37.488  19.165   2.697  0.00  0.00    +0.211 HD
ENDBRANCH  25  26
BRANCH  25  28
ATOM     28  C   UNL     1     -35.272  20.550   0.819  0.00  0.00    +0.169 C 
BRANCH  28  29
ATOM     29  O   UNL     1     -34.844  21.645   1.632  0.00  0.00    -0.379 OA
ATOM     30  H   UNL     1     -35.264  22.462   1.323  0.00  0.00    +0.211 HD
ENDBRANCH  28  29
BRANCH  28  31
ATOM     31  C   UNL     1     -34.306  19.385   1.027  0.00  0.00    +0.169 C 
BRANCH  31  32
ATOM     32  O   UNL     1     -34.966  18.174   0.672  0.00  0.00    -0.379 OA
ATOM     33  H   UNL     1     -34.905  17.545   1.408  0.00  0.00    +0.211 HD
ENDBRANCH  31  32
ENDBRANCH  28  31
ENDBRANCH  25  28
ENDBRANCH  22  25
ENDBRANCH  21  22
ENDBRANCH   4  21
TORSDOF 9
ENDMDL
MODEL 7
REMARK VINA RESULT:      -6.4      3.158      6.596
REMARK  Name = 196582
REMARK  9 active torsions:
REMARK  status: ('A' for Active; 'I' for Inactive)
REMARK    1  A    between atoms: N_4  and  C_21
REMARK    2  A    between atoms: C_21  and  C_22
REMARK    3  A    between atoms: C_22  and  O_23
REMARK    4  A    between atoms: C_22  and  C_25
REMARK    5  A    between atoms: C_25  and  O_26
REMARK    6  A    between atoms: C_25  and  C_28
REMARK    7  A    between atoms: C_28  and  O_29
REMARK    8  A    between atoms: C_28  and  C_31
REMARK    9  A    between atoms: C_31  and  O_32
REMARK                            x       y       z     vdW  Elec       q    Type
REMARK                         _______ _______ _______ _____ _____    ______ ____
ROOT
ATOM      1  O   UNL     1     -38.007  24.544   4.072  0.00  0.00    -0.335 OA
ATOM      2  O   UNL     1     -35.993  25.927   5.763  0.00  0.00    -0.271 OA
ATOM      3  O   UNL     1     -34.918  21.494   6.183  0.00  0.00    -0.193 OA
ATOM      4  N   UNL     1     -36.391  22.981   2.009  0.00  0.00    -0.261 N 
ATOM      5  N   UNL     1     -35.581  22.223   4.129  0.00  0.00    -0.307 NA
ATOM      6  N   UNL     1     -35.411  23.704   5.991  0.00  0.00    -0.199 N 
ATOM      7  C   UNL     1     -36.572  24.400   4.035  0.00  0.00    +0.251 C 
ATOM      8  C   UNL     1     -37.294  25.443   3.215  0.00  0.00    +0.181 C 
ATOM      9  C   UNL     1     -36.152  23.126   3.382  0.00  0.00    +0.214 C 
ATOM     10  C   UNL     1     -37.405  25.209   1.743  0.00  0.00    +0.021 C 
ATOM     11  C   UNL     1     -36.954  23.994   1.172  0.00  0.00    +0.051 C 
ATOM     12  C   UNL     1     -35.962  24.781   5.332  0.00  0.00    +0.271 C 
ATOM     13  C   UNL     1     -37.969  26.201   0.916  0.00  0.00    -0.005 C 
ATOM     14  C   UNL     1     -37.089  23.839  -0.226  0.00  0.00    +0.010 C 
ATOM     15  C   UNL     1     -38.090  26.020  -0.458  0.00  0.00    -0.026 C 
ATOM     16  C   UNL     1     -37.649  24.837  -1.028  0.00  0.00    -0.025 C 
ATOM     17  C   UNL     1     -35.297  22.420   5.463  0.00  0.00    +0.272 C 
ATOM     18  C   UNL     1     -38.692  27.105  -1.287  0.00  0.00    +0.031 C 
ATOM     19  C   UNL     1     -37.759  24.608  -2.501  0.00  0.00    +0.031 C 
ATOM     20  H   UNL     1     -35.072  23.853   6.904  0.00  0.00    +0.169 HD
ENDROOT
BRANCH   4  21
ATOM     21  C   UNL     1     -36.022  21.725   1.339  0.00  0.00    +0.129 C 
BRANCH  21  22
ATOM     22  C   UNL     1     -37.155  20.702   1.479  0.00  0.00    +0.160 C 
BRANCH  22  23
ATOM     23  O   UNL     1     -36.789  19.751   2.479  0.00  0.00    -0.380 OA
ATOM     24  H   UNL     1     -36.267  19.040   2.073  0.00  0.00    +0.211 HD
ENDBRANCH  22  23
BRANCH  22  25
ATOM     25  C   UNL     1     -37.455  19.963   0.160  0.00  0.00    +0.168 C 
BRANCH  25  26
ATOM     26  O   UNL     1     -38.837  19.609   0.112  0.00  0.00    -0.379 OA
ATOM     27  H   UNL     1     -39.376  20.414   0.084  0.00  0.00    +0.211 HD
ENDBRANCH  25  26
BRANCH  25  28
ATOM     28  C   UNL     1     -36.613  18.686  -0.021  0.00  0.00    +0.169 C 
BRANCH  28  29
ATOM     29  O   UNL     1     -37.298  17.585   0.579  0.00  0.00    -0.379 OA
ATOM     30  H   UNL     1     -37.152  16.785   0.050  0.00  0.00    +0.211 HD
ENDBRANCH  28  29
BRANCH  28  31
ATOM     31  C   UNL     1     -36.363  18.358  -1.492  0.00  0.00    +0.169 C 
BRANCH  31  32
ATOM     32  O   UNL     1     -37.119  19.256  -2.297  0.00  0.00    -0.379 OA
ATOM     33  H   UNL     1     -36.825  19.190  -3.219  0.00  0.00    +0.211 HD
ENDBRANCH  31  32
ENDBRANCH  28  31
ENDBRANCH  25  28
ENDBRANCH  22  25
ENDBRANCH  21  22
ENDBRANCH   4  21
TORSDOF 9
ENDMDL
MODEL 8
REMARK VINA RESULT:      -6.2      2.378      3.416
REMARK  Name = 196582
REMARK  9 active torsions:
REMARK  status: ('A' for Active; 'I' for Inactive)
REMARK    1  A    between atoms: N_4  and  C_21
REMARK    2  A    between atoms: C_21  and  C_22
REMARK    3  A    between atoms: C_22  and  O_23
REMARK    4  A    between atoms: C_22  and  C_25
REMARK    5  A    between atoms: C_25  and  O_26
REMARK    6  A    between atoms: C_25  and  C_28
REMARK    7  A    between atoms: C_28  and  O_29
REMARK    8  A    between atoms: C_28  and  C_31
REMARK    9  A    between atoms: C_31  and  O_32
REMARK                            x       y       z     vdW  Elec       q    Type
REMARK                         _______ _______ _______ _____ _____    ______ ____
ROOT
ATOM      1  O   UNL     1     -35.986  24.554   5.649  0.00  0.00    -0.335 OA
ATOM      2  O   UNL     1     -34.947  21.800   6.057  0.00  0.00    -0.271 OA
ATOM      3  O   UNL     1     -37.287  21.518   2.129  0.00  0.00    -0.193 OA
ATOM      4  N   UNL     1     -34.885  25.439   2.945  0.00  0.00    -0.261 N 
ATOM      5  N   UNL     1     -36.071  23.411   2.493  0.00  0.00    -0.307 NA
ATOM      6  N   UNL     1     -36.106  21.619   4.067  0.00  0.00    -0.199 N 
ATOM      7  C   UNL     1     -35.246  23.740   4.716  0.00  0.00    +0.251 C 
ATOM      8  C   UNL     1     -34.558  24.653   5.703  0.00  0.00    +0.181 C 
ATOM      9  C   UNL     1     -35.425  24.198   3.307  0.00  0.00    +0.214 C 
ATOM     10  C   UNL     1     -33.944  25.909   5.171  0.00  0.00    +0.021 C 
ATOM     11  C   UNL     1     -34.116  26.274   3.814  0.00  0.00    +0.051 C 
ATOM     12  C   UNL     1     -35.391  22.298   5.030  0.00  0.00    +0.271 C 
ATOM     13  C   UNL     1     -33.195  26.739   6.028  0.00  0.00    -0.005 C 
ATOM     14  C   UNL     1     -33.509  27.473   3.379  0.00  0.00    +0.010 C 
ATOM     15  C   UNL     1     -32.610  27.915   5.571  0.00  0.00    -0.026 C 
ATOM     16  C   UNL     1     -32.767  28.282   4.244  0.00  0.00    -0.025 C 
ATOM     17  C   UNL     1     -36.533  22.165   2.859  0.00  0.00    +0.272 C 
ATOM     18  C   UNL     1     -31.824  28.758   6.521  0.00  0.00    +0.031 C 
ATOM     19  C   UNL     1     -32.151  29.536   3.716  0.00  0.00    +0.031 C 
ATOM     20  H   UNL     1     -36.332  20.678   4.247  0.00  0.00    +0.169 HD
ENDROOT
BRANCH   4  21
ATOM     21  C   UNL     1     -35.072  25.937   1.575  0.00  0.00    +0.129 C 
BRANCH  21  22
ATOM     22  C   UNL     1     -36.392  25.410   1.000  0.00  0.00    +0.160 C 
BRANCH  22  23
ATOM     23  O   UNL     1     -36.221  25.184  -0.400  0.00  0.00    -0.380 OA
ATOM     24  H   UNL     1     -36.020  24.247  -0.553  0.00  0.00    +0.211 HD
ENDBRANCH  22  23
BRANCH  22  25
ATOM     25  C   UNL     1     -37.566  26.385   1.217  0.00  0.00    +0.168 C 
BRANCH  25  26
ATOM     26  O   UNL     1     -37.247  27.292   2.272  0.00  0.00    -0.379 OA
ATOM     27  H   UNL     1     -36.661  26.855   2.908  0.00  0.00    +0.211 HD
ENDBRANCH  25  26
BRANCH  25  28
ATOM     28  C   UNL     1     -38.887  25.672   1.563  0.00  0.00    +0.169 C 
BRANCH  28  29
ATOM     29  O   UNL     1     -38.737  24.270   1.328  0.00  0.00    -0.379 OA
ATOM     30  H   UNL     1     -38.973  24.068   0.410  0.00  0.00    +0.211 HD
ENDBRANCH  28  29
BRANCH  28  31
ATOM     31  C   UNL     1     -39.295  25.878   3.021  0.00  0.00    +0.169 C 
BRANCH  31  32
ATOM     32  O   UNL     1     -38.557  24.973   3.835  0.00  0.00    -0.379 OA
ATOM     33  H   UNL     1     -37.906  24.504   3.290  0.00  0.00    +0.211 HD
ENDBRANCH  31  32
ENDBRANCH  28  31
ENDBRANCH  25  28
ENDBRANCH  22  25
ENDBRANCH  21  22
ENDBRANCH   4  21
TORSDOF 9
ENDMDL
MODEL 9
REMARK VINA RESULT:      -6.2      2.456      5.552
REMARK  Name = 196582
REMARK  9 active torsions:
REMARK  status: ('A' for Active; 'I' for Inactive)
REMARK    1  A    between atoms: N_4  and  C_21
REMARK    2  A    between atoms: C_21  and  C_22
REMARK    3  A    between atoms: C_22  and  O_23
REMARK    4  A    between atoms: C_22  and  C_25
REMARK    5  A    between atoms: C_25  and  O_26
REMARK    6  A    between atoms: C_25  and  C_28
REMARK    7  A    between atoms: C_28  and  O_29
REMARK    8  A    between atoms: C_28  and  C_31
REMARK    9  A    between atoms: C_31  and  O_32
REMARK                            x       y       z     vdW  Elec       q    Type
REMARK                         _______ _______ _______ _____ _____    ______ ____
ROOT
ATOM      1  O   UNL     1     -37.629  22.324  -0.135  0.00  0.00    -0.335 OA
ATOM      2  O   UNL     1     -38.187  19.408  -0.263  0.00  0.00    -0.271 OA
ATOM      3  O   UNL     1     -34.413  19.690   2.318  0.00  0.00    -0.193 OA
ATOM      4  N   UNL     1     -37.647  23.019   2.836  0.00  0.00    -0.261 N 
ATOM      5  N   UNL     1     -36.011  21.286   2.618  0.00  0.00    -0.307 NA
ATOM      6  N   UNL     1     -36.291  19.508   1.052  0.00  0.00    -0.199 N 
ATOM      7  C   UNL     1     -37.737  21.394   0.963  0.00  0.00    +0.251 C 
ATOM      8  C   UNL     1     -38.938  22.128   0.413  0.00  0.00    +0.181 C 
ATOM      9  C   UNL     1     -37.077  21.907   2.199  0.00  0.00    +0.214 C 
ATOM     10  C   UNL     1     -39.503  23.241   1.235  0.00  0.00    +0.021 C 
ATOM     11  C   UNL     1     -38.854  23.661   2.421  0.00  0.00    +0.051 C 
ATOM     12  C   UNL     1     -37.460  20.007   0.520  0.00  0.00    +0.271 C 
ATOM     13  C   UNL     1     -40.688  23.884   0.822  0.00  0.00    -0.005 C 
ATOM     14  C   UNL     1     -39.443  24.719   3.149  0.00  0.00    +0.010 C 
ATOM     15  C   UNL     1     -41.244  24.924   1.559  0.00  0.00    -0.026 C 
ATOM     16  C   UNL     1     -40.621  25.341   2.724  0.00  0.00    -0.025 C 
ATOM     17  C   UNL     1     -35.513  20.154   2.010  0.00  0.00    +0.272 C 
ATOM     18  C   UNL     1     -42.502  25.569   1.079  0.00  0.00    +0.031 C 
ATOM     19  C   UNL     1     -41.190  26.453   3.544  0.00  0.00    +0.031 C 
ATOM     20  H   UNL     1     -35.983  18.629   0.732  0.00  0.00    +0.169 HD
ENDROOT
BRANCH   4  21
ATOM     21  C   UNL     1     -37.004  23.572   4.037  0.00  0.00    +0.129 C 
BRANCH  21  22
ATOM     22  C   UNL     1     -35.876  24.529   3.635  0.00  0.00    +0.160 C 
BRANCH  22  23
ATOM     23  O   UNL     1     -34.680  23.771   3.451  0.00  0.00    -0.380 OA
ATOM     24  H   UNL     1     -34.753  22.929   3.928  0.00  0.00    +0.211 HD
ENDBRANCH  22  23
BRANCH  22  25
ATOM     25  C   UNL     1     -35.625  25.627   4.688  0.00  0.00    +0.168 C 
BRANCH  25  26
ATOM     26  O   UNL     1     -36.840  26.328   4.948  0.00  0.00    -0.379 OA
ATOM     27  H   UNL     1     -36.882  27.120   4.391  0.00  0.00    +0.211 HD
ENDBRANCH  25  26
BRANCH  25  28
ATOM     28  C   UNL     1     -34.551  26.643   4.256  0.00  0.00    +0.169 C 
BRANCH  28  29
ATOM     29  O   UNL     1     -33.266  26.022   4.319  0.00  0.00    -0.379 OA
ATOM     30  H   UNL     1     -32.637  26.620   4.751  0.00  0.00    +0.211 HD
ENDBRANCH  28  29
BRANCH  28  31
ATOM     31  C   UNL     1     -34.773  27.153   2.833  0.00  0.00    +0.169 C 
BRANCH  31  32
ATOM     32  O   UNL     1     -35.894  28.031   2.830  0.00  0.00    -0.379 OA
ATOM     33  H   UNL     1     -35.896  28.555   3.646  0.00  0.00    +0.211 HD
ENDBRANCH  31  32
ENDBRANCH  28  31
ENDBRANCH  25  28
ENDBRANCH  22  25
ENDBRANCH  21  22
ENDBRANCH   4  21
TORSDOF 9
ENDMDL
