MODEL 1
REMARK VINA RESULT:      -6.4      0.000      0.000
REMARK  Name = 5339
REMARK  8 active torsions:
REMARK  status: ('A' for Active; 'I' for Inactive)
REMARK    1  A    between atoms: C_1  and  S_7
REMARK    2  A    between atoms: C_4  and  N_18
REMARK    3  A    between atoms: S_7  and  N_10
REMARK    4  A    between atoms: N_18  and  N_19
REMARK    5  A    between atoms: N_19  and  C_20
REMARK    6  A    between atoms: C_21  and  C_29
REMARK    7  A    between atoms: C_23  and  O_26
REMARK    8  A    between atoms: C_29  and  O_30
REMARK                            x       y       z     vdW  Elec       q    Type
REMARK                         _______ _______ _______ _____ _____    ______ ____
ROOT
ATOM      1  C   UNL     1     -40.393  25.393   1.251  0.00  0.00    +0.125 C 
ATOM      2  C   UNL     1     -40.333  24.861   2.540  0.00  0.00    +0.022 C 
ATOM      3  C   UNL     1     -39.332  26.153   0.761  0.00  0.00    +0.022 C 
ATOM      4  C   UNL     1     -38.156  25.849   2.842  0.00  0.00    +0.089 C 
ATOM      5  C   UNL     1     -39.211  25.091   3.337  0.00  0.00    +0.019 C 
ATOM      6  C   UNL     1     -38.210  26.382   1.557  0.00  0.00    +0.019 C 
ENDROOT
BRANCH   1   7
ATOM      7  S   UNL     1     -41.797  25.106   0.253  0.00  0.00    +0.075 S 
ATOM      8  O   UNL     1     -42.131  26.359  -0.414  0.00  0.00    -0.150 OA
ATOM      9  O   UNL     1     -42.816  24.445   1.059  0.00  0.00    -0.150 OA
BRANCH   7  10
ATOM     10  N   UNL     1     -41.201  24.009  -0.935  0.00  0.00    -0.199 N 
ATOM     11  H   UNL     1     -41.495  24.071  -1.873  0.00  0.00    +0.175 HD
ATOM     12  N   UNL     1     -40.754  22.055   0.308  0.00  0.00    -0.228 NA
ATOM     13  C   UNL     1     -40.264  23.002  -0.517  0.00  0.00    +0.147 C 
ATOM     14  C   UNL     1     -38.961  23.057  -0.967  0.00  0.00    +0.036 C 
ATOM     15  C   UNL     1     -38.090  22.061  -0.538  0.00  0.00    +0.005 C 
ATOM     16  C   UNL     1     -39.878  21.104   0.704  0.00  0.00    +0.100 C 
ATOM     17  C   UNL     1     -38.549  21.062   0.314  0.00  0.00    +0.021 C 
ENDBRANCH   7  10
ENDBRANCH   1   7
BRANCH   4  18
ATOM     18  N   UNL     1     -37.026  26.081   3.646  0.00  0.00    -0.128 NA
BRANCH  18  19
ATOM     19  N   UNL     1     -36.022  25.521   3.147  0.00  0.00    -0.128 NA
BRANCH  19  20
ATOM     20  C   UNL     1     -35.816  24.279   3.756  0.00  0.00    +0.089 C 
ATOM     21  C   UNL     1     -35.567  21.882   3.586  0.00  0.00    +0.110 C 
ATOM     22  C   UNL     1     -35.773  23.121   2.979  0.00  0.00    +0.028 C 
ATOM     23  C   UNL     1     -35.404  21.801   4.969  0.00  0.00    +0.140 C 
ATOM     24  C   UNL     1     -35.652  24.198   5.138  0.00  0.00    +0.021 C 
ATOM     25  C   UNL     1     -35.447  22.959   5.745  0.00  0.00    +0.038 C 
BRANCH  23  26
ATOM     26  O   UNL     1     -35.200  20.600   5.580  0.00  0.00    -0.505 OA
ATOM     27  H   UNL     1     -34.598  20.534   6.293  0.00  0.00    +0.292 HD
ENDBRANCH  23  26
BRANCH  21  29
ATOM     28  O   UNL     1     -34.610  20.382   1.986  0.00  0.00    -0.245 OA
ATOM     29  C   UNL     1     -35.524  20.685   2.758  0.00  0.00    +0.341 C 
BRANCH  29  30
ATOM     30  O   UNL     1     -36.626  19.902   2.921  0.00  0.00    -0.477 OA
ATOM     31  H   UNL     1     -36.528  18.981   3.065  0.00  0.00    +0.295 HD
ENDBRANCH  29  30
ENDBRANCH  21  29
ENDBRANCH  19  20
ENDBRANCH  18  19
ENDBRANCH   4  18
TORSDOF 8
ENDMDL
MODEL 2
REMARK VINA RESULT:      -6.4      5.920      7.785
REMARK  Name = 5339
REMARK  8 active torsions:
REMARK  status: ('A' for Active; 'I' for Inactive)
REMARK    1  A    between atoms: C_1  and  S_7
REMARK    2  A    between atoms: C_4  and  N_18
REMARK    3  A    between atoms: S_7  and  N_10
REMARK    4  A    between atoms: N_18  and  N_19
REMARK    5  A    between atoms: N_19  and  C_20
REMARK    6  A    between atoms: C_21  and  C_29
REMARK    7  A    between atoms: C_23  and  O_26
REMARK    8  A    between atoms: C_29  and  O_30
REMARK                            x       y       z     vdW  Elec       q    Type
REMARK                         _______ _______ _______ _____ _____    ______ ____
ROOT
ATOM      1  C   UNL     1     -34.987  23.796   3.964  0.00  0.00    +0.125 C 
ATOM      2  C   UNL     1     -34.377  24.619   3.015  0.00  0.00    +0.022 C 
ATOM      3  C   UNL     1     -35.098  24.223   5.287  0.00  0.00    +0.022 C 
ATOM      4  C   UNL     1     -33.992  26.285   4.713  0.00  0.00    +0.089 C 
ATOM      5  C   UNL     1     -33.877  25.866   3.391  0.00  0.00    +0.019 C 
ATOM      6  C   UNL     1     -34.599  25.470   5.663  0.00  0.00    +0.019 C 
ENDROOT
BRANCH   1   7
ATOM      7  S   UNL     1     -35.612  22.236   3.493  0.00  0.00    +0.075 S 
ATOM      8  O   UNL     1     -35.366  21.309   4.592  0.00  0.00    -0.150 OA
ATOM      9  O   UNL     1     -35.100  21.907   2.169  0.00  0.00    -0.150 OA
BRANCH   7  10
ATOM     10  N   UNL     1     -37.310  22.517   3.401  0.00  0.00    -0.199 N 
ATOM     11  H   UNL     1     -37.950  21.881   3.793  0.00  0.00    +0.175 HD
ATOM     12  N   UNL     1     -37.546  23.750   1.404  0.00  0.00    -0.228 NA
ATOM     13  C   UNL     1     -37.763  23.707   2.734  0.00  0.00    +0.147 C 
ATOM     14  C   UNL     1     -38.374  24.706   3.464  0.00  0.00    +0.036 C 
ATOM     15  C   UNL     1     -38.798  25.839   2.777  0.00  0.00    +0.005 C 
ATOM     16  C   UNL     1     -37.971  24.867   0.771  0.00  0.00    +0.100 C 
ATOM     17  C   UNL     1     -38.595  25.929   1.404  0.00  0.00    +0.021 C 
ENDBRANCH   7  10
ENDBRANCH   1   7
BRANCH   4  18
ATOM     18  N   UNL     1     -33.488  27.541   5.091  0.00  0.00    -0.128 NA
BRANCH  18  19
ATOM     19  N   UNL     1     -32.625  27.404   5.990  0.00  0.00    -0.128 NA
BRANCH  19  20
ATOM     20  C   UNL     1     -31.657  28.408   5.881  0.00  0.00    +0.089 C 
ATOM     21  C   UNL     1     -29.516  29.327   6.518  0.00  0.00    +0.110 C 
ATOM     22  C   UNL     1     -30.481  28.326   6.626  0.00  0.00    +0.028 C 
ATOM     23  C   UNL     1     -29.726  30.409   5.664  0.00  0.00    +0.140 C 
ATOM     24  C   UNL     1     -31.867  29.489   5.027  0.00  0.00    +0.021 C 
ATOM     25  C   UNL     1     -30.902  30.490   4.918  0.00  0.00    +0.038 C 
BRANCH  23  26
ATOM     26  O   UNL     1     -28.795  31.396   5.542  0.00  0.00    -0.505 OA
ATOM     27  H   UNL     1     -28.164  31.363   4.851  0.00  0.00    +0.292 HD
ENDBRANCH  23  26
BRANCH  21  29
ATOM     28  O   UNL     1     -27.153  29.133   6.842  0.00  0.00    -0.245 OA
ATOM     29  C   UNL     1     -28.294  29.223   7.304  0.00  0.00    +0.341 C 
BRANCH  29  30
ATOM     30  O   UNL     1     -28.537  29.236   8.643  0.00  0.00    -0.477 OA
ATOM     31  H   UNL     1     -28.832  28.458   9.073  0.00  0.00    +0.295 HD
ENDBRANCH  29  30
ENDBRANCH  21  29
ENDBRANCH  19  20
ENDBRANCH  18  19
ENDBRANCH   4  18
TORSDOF 8
ENDMDL
MODEL 3
REMARK VINA RESULT:      -6.4      5.746      9.040
REMARK  Name = 5339
REMARK  8 active torsions:
REMARK  status: ('A' for Active; 'I' for Inactive)
REMARK    1  A    between atoms: C_1  and  S_7
REMARK    2  A    between atoms: C_4  and  N_18
REMARK    3  A    between atoms: S_7  and  N_10
REMARK    4  A    between atoms: N_18  and  N_19
REMARK    5  A    between atoms: N_19  and  C_20
REMARK    6  A    between atoms: C_21  and  C_29
REMARK    7  A    between atoms: C_23  and  O_26
REMARK    8  A    between atoms: C_29  and  O_30
REMARK                            x       y       z     vdW  Elec       q    Type
REMARK                         _______ _______ _______ _____ _____    ______ ____
ROOT
ATOM      1  C   UNL     1     -33.110  27.426   4.948  0.00  0.00    +0.125 C 
ATOM      2  C   UNL     1     -33.448  26.655   6.061  0.00  0.00    +0.022 C 
ATOM      3  C   UNL     1     -33.805  27.260   3.750  0.00  0.00    +0.022 C 
ATOM      4  C   UNL     1     -35.167  25.559   4.777  0.00  0.00    +0.089 C 
ATOM      5  C   UNL     1     -34.478  25.719   5.975  0.00  0.00    +0.019 C 
ATOM      6  C   UNL     1     -34.836  26.324   3.663  0.00  0.00    +0.019 C 
ENDROOT
BRANCH   1   7
ATOM      7  S   UNL     1     -31.821  28.598   5.056  0.00  0.00    +0.075 S 
ATOM      8  O   UNL     1     -32.429  29.910   5.245  0.00  0.00    -0.150 OA
ATOM      9  O   UNL     1     -30.914  28.400   3.932  0.00  0.00    -0.150 OA
BRANCH   7  10
ATOM     10  N   UNL     1     -31.028  28.159   6.521  0.00  0.00    -0.199 N 
ATOM     11  H   UNL     1     -31.516  27.701   7.243  0.00  0.00    +0.175 HD
ATOM     12  N   UNL     1     -29.342  29.793   6.735  0.00  0.00    -0.228 NA
ATOM     13  C   UNL     1     -29.634  28.480   6.658  0.00  0.00    +0.147 C 
ATOM     14  C   UNL     1     -28.702  27.463   6.703  0.00  0.00    +0.036 C 
ATOM     15  C   UNL     1     -27.365  27.820   6.838  0.00  0.00    +0.005 C 
ATOM     16  C   UNL     1     -28.032  30.103   6.865  0.00  0.00    +0.100 C 
ATOM     17  C   UNL     1     -27.015  29.164   6.921  0.00  0.00    +0.021 C 
ENDBRANCH   7  10
ENDBRANCH   1   7
BRANCH   4  18
ATOM     18  N   UNL     1     -36.205  24.615   4.691  0.00  0.00    -0.128 NA
BRANCH  18  19
ATOM     19  N   UNL     1     -37.104  25.034   3.925  0.00  0.00    -0.128 NA
BRANCH  19  20
ATOM     20  C   UNL     1     -37.675  23.965   3.227  0.00  0.00    +0.089 C 
ATOM     21  C   UNL     1     -37.464  21.793   2.191  0.00  0.00    +0.110 C 
ATOM     22  C   UNL     1     -36.895  22.860   2.887  0.00  0.00    +0.028 C 
ATOM     23  C   UNL     1     -38.813  21.831   1.836  0.00  0.00    +0.140 C 
ATOM     24  C   UNL     1     -39.022  24.003   2.873  0.00  0.00    +0.021 C 
ATOM     25  C   UNL     1     -39.592  22.937   2.177  0.00  0.00    +0.038 C 
BRANCH  23  26
ATOM     26  O   UNL     1     -39.387  20.799   1.158  0.00  0.00    -0.505 OA
ATOM     27  H   UNL     1     -40.320  20.724   1.121  0.00  0.00    +0.292 HD
ENDBRANCH  23  26
BRANCH  21  29
ATOM     28  O   UNL     1     -35.777  20.627   0.957  0.00  0.00    -0.245 OA
ATOM     29  C   UNL     1     -36.634  20.647   1.846  0.00  0.00    +0.341 C 
BRANCH  29  30
ATOM     30  O   UNL     1     -36.897  19.562   2.624  0.00  0.00    -0.477 OA
ATOM     31  H   UNL     1     -37.137  19.678   3.522  0.00  0.00    +0.295 HD
ENDBRANCH  29  30
ENDBRANCH  21  29
ENDBRANCH  19  20
ENDBRANCH  18  19
ENDBRANCH   4  18
TORSDOF 8
ENDMDL
MODEL 4
REMARK VINA RESULT:      -6.3      5.825      7.143
REMARK  Name = 5339
REMARK  8 active torsions:
REMARK  status: ('A' for Active; 'I' for Inactive)
REMARK    1  A    between atoms: C_1  and  S_7
REMARK    2  A    between atoms: C_4  and  N_18
REMARK    3  A    between atoms: S_7  and  N_10
REMARK    4  A    between atoms: N_18  and  N_19
REMARK    5  A    between atoms: N_19  and  C_20
REMARK    6  A    between atoms: C_21  and  C_29
REMARK    7  A    between atoms: C_23  and  O_26
REMARK    8  A    between atoms: C_29  and  O_30
REMARK                            x       y       z     vdW  Elec       q    Type
REMARK                         _______ _______ _______ _____ _____    ______ ____
ROOT
ATOM      1  C   UNL     1     -36.166  25.048   3.871  0.00  0.00    +0.125 C 
ATOM      2  C   UNL     1     -35.672  24.641   5.111  0.00  0.00    +0.022 C 
ATOM      3  C   UNL     1     -35.608  26.151   3.226  0.00  0.00    +0.022 C 
ATOM      4  C   UNL     1     -34.070  26.440   5.057  0.00  0.00    +0.089 C 
ATOM      5  C   UNL     1     -34.622  25.340   5.706  0.00  0.00    +0.019 C 
ATOM      6  C   UNL     1     -34.558  26.850   3.821  0.00  0.00    +0.019 C 
ENDROOT
BRANCH   1   7
ATOM      7  S   UNL     1     -37.480  24.172   3.125  0.00  0.00    +0.075 S 
ATOM      8  O   UNL     1     -37.381  24.365   1.683  0.00  0.00    -0.150 OA
ATOM      9  O   UNL     1     -38.722  24.533   3.798  0.00  0.00    -0.150 OA
BRANCH   7  10
ATOM     10  N   UNL     1     -37.092  22.531   3.474  0.00  0.00    -0.199 N 
ATOM     11  H   UNL     1     -37.326  22.128   4.342  0.00  0.00    +0.175 HD
ATOM     12  N   UNL     1     -35.153  22.148   2.188  0.00  0.00    -0.228 NA
ATOM     13  C   UNL     1     -36.415  21.766   2.463  0.00  0.00    +0.147 C 
ATOM     14  C   UNL     1     -37.072  20.718   1.849  0.00  0.00    +0.036 C 
ATOM     15  C   UNL     1     -36.378  20.005   0.877  0.00  0.00    +0.005 C 
ATOM     16  C   UNL     1     -34.510  21.432   1.237  0.00  0.00    +0.100 C 
ATOM     17  C   UNL     1     -35.072  20.363   0.560  0.00  0.00    +0.021 C 
ENDBRANCH   7  10
ENDBRANCH   1   7
BRANCH   4  18
ATOM     18  N   UNL     1     -33.012  27.145   5.658  0.00  0.00    -0.128 NA
BRANCH  18  19
ATOM     19  N   UNL     1     -32.948  28.305   5.188  0.00  0.00    -0.128 NA
BRANCH  19  20
ATOM     20  C   UNL     1     -31.693  28.861   5.457  0.00  0.00    +0.089 C 
ATOM     21  C   UNL     1     -29.489  28.678   6.428  0.00  0.00    +0.110 C 
ATOM     22  C   UNL     1     -30.741  28.125   6.160  0.00  0.00    +0.028 C 
ATOM     23  C   UNL     1     -29.190  29.970   5.992  0.00  0.00    +0.140 C 
ATOM     24  C   UNL     1     -31.394  30.151   5.021  0.00  0.00    +0.021 C 
ATOM     25  C   UNL     1     -30.143  30.706   5.289  0.00  0.00    +0.038 C 
BRANCH  23  26
ATOM     26  O   UNL     1     -27.973  30.528   6.243  0.00  0.00    -0.505 OA
ATOM     27  H   UNL     1     -27.866  31.115   6.964  0.00  0.00    +0.292 HD
ENDBRANCH  23  26
BRANCH  21  29
ATOM     28  O   UNL     1     -28.103  26.772   6.840  0.00  0.00    -0.245 OA
ATOM     29  C   UNL     1     -28.508  27.893   7.163  0.00  0.00    +0.341 C 
BRANCH  29  30
ATOM     30  O   UNL     1     -28.061  28.533   8.278  0.00  0.00    -0.477 OA
ATOM     31  H   UNL     1     -27.206  28.347   8.612  0.00  0.00    +0.295 HD
ENDBRANCH  29  30
ENDBRANCH  21  29
ENDBRANCH  19  20
ENDBRANCH  18  19
ENDBRANCH   4  18
TORSDOF 8
ENDMDL
MODEL 5
REMARK VINA RESULT:      -6.3      5.668      8.901
REMARK  Name = 5339
REMARK  8 active torsions:
REMARK  status: ('A' for Active; 'I' for Inactive)
REMARK    1  A    between atoms: C_1  and  S_7
REMARK    2  A    between atoms: C_4  and  N_18
REMARK    3  A    between atoms: S_7  and  N_10
REMARK    4  A    between atoms: N_18  and  N_19
REMARK    5  A    between atoms: N_19  and  C_20
REMARK    6  A    between atoms: C_21  and  C_29
REMARK    7  A    between atoms: C_23  and  O_26
REMARK    8  A    between atoms: C_29  and  O_30
REMARK                            x       y       z     vdW  Elec       q    Type
REMARK                         _______ _______ _______ _____ _____    ______ ____
ROOT
ATOM      1  C   UNL     1     -33.296  27.362   4.895  0.00  0.00    +0.125 C 
ATOM      2  C   UNL     1     -33.484  26.513   5.987  0.00  0.00    +0.022 C 
ATOM      3  C   UNL     1     -34.149  27.281   3.795  0.00  0.00    +0.022 C 
ATOM      4  C   UNL     1     -35.371  25.508   4.876  0.00  0.00    +0.089 C 
ATOM      5  C   UNL     1     -34.523  25.583   5.976  0.00  0.00    +0.019 C 
ATOM      6  C   UNL     1     -35.189  26.351   3.784  0.00  0.00    +0.019 C 
ENDROOT
BRANCH   1   7
ATOM      7  S   UNL     1     -31.995  28.527   4.908  0.00  0.00    +0.075 S 
ATOM      8  O   UNL     1     -32.590  29.856   4.983  0.00  0.00    -0.150 OA
ATOM      9  O   UNL     1     -31.087  28.225   3.809  0.00  0.00    -0.150 OA
BRANCH   7  10
ATOM     10  N   UNL     1     -31.211  28.205   6.408  0.00  0.00    -0.199 N 
ATOM     11  H   UNL     1     -31.708  27.823   7.167  0.00  0.00    +0.175 HD
ATOM     12  N   UNL     1     -29.494  29.821   6.479  0.00  0.00    -0.228 NA
ATOM     13  C   UNL     1     -29.811  28.511   6.519  0.00  0.00    +0.147 C 
ATOM     14  C   UNL     1     -28.899  27.485   6.656  0.00  0.00    +0.036 C 
ATOM     15  C   UNL     1     -27.555  27.827   6.761  0.00  0.00    +0.005 C 
ATOM     16  C   UNL     1     -28.178  30.115   6.583  0.00  0.00    +0.100 C 
ATOM     17  C   UNL     1     -27.180  29.166   6.725  0.00  0.00    +0.021 C 
ENDBRANCH   7  10
ENDBRANCH   1   7
BRANCH   4  18
ATOM     18  N   UNL     1     -36.418  24.570   4.865  0.00  0.00    -0.128 NA
BRANCH  18  19
ATOM     19  N   UNL     1     -36.965  24.551   3.738  0.00  0.00    -0.128 NA
BRANCH  19  20
ATOM     20  C   UNL     1     -36.911  23.260   3.202  0.00  0.00    +0.089 C 
ATOM     21  C   UNL     1     -37.931  21.481   1.924  0.00  0.00    +0.110 C 
ATOM     22  C   UNL     1     -37.984  22.768   2.459  0.00  0.00    +0.028 C 
ATOM     23  C   UNL     1     -36.804  20.686   2.132  0.00  0.00    +0.140 C 
ATOM     24  C   UNL     1     -35.785  22.465   3.410  0.00  0.00    +0.021 C 
ATOM     25  C   UNL     1     -35.731  21.178   2.875  0.00  0.00    +0.038 C 
BRANCH  23  26
ATOM     26  O   UNL     1     -36.731  19.427   1.617  0.00  0.00    -0.505 OA
ATOM     27  H   UNL     1     -37.490  18.877   1.614  0.00  0.00    +0.292 HD
ENDBRANCH  23  26
BRANCH  21  29
ATOM     28  O   UNL     1     -39.012  20.604  -0.022  0.00  0.00    -0.245 OA
ATOM     29  C   UNL     1     -39.061  20.987   1.151  0.00  0.00    +0.341 C 
BRANCH  29  30
ATOM     30  O   UNL     1     -40.218  20.983   1.867  0.00  0.00    -0.477 OA
ATOM     31  H   UNL     1     -41.002  20.638   1.488  0.00  0.00    +0.295 HD
ENDBRANCH  29  30
ENDBRANCH  21  29
ENDBRANCH  19  20
ENDBRANCH  18  19
ENDBRANCH   4  18
TORSDOF 8
ENDMDL
MODEL 6
REMARK VINA RESULT:      -6.3      6.511      9.286
REMARK  Name = 5339
REMARK  8 active torsions:
REMARK  status: ('A' for Active; 'I' for Inactive)
REMARK    1  A    between atoms: C_1  and  S_7
REMARK    2  A    between atoms: C_4  and  N_18
REMARK    3  A    between atoms: S_7  and  N_10
REMARK    4  A    between atoms: N_18  and  N_19
REMARK    5  A    between atoms: N_19  and  C_20
REMARK    6  A    between atoms: C_21  and  C_29
REMARK    7  A    between atoms: C_23  and  O_26
REMARK    8  A    between atoms: C_29  and  O_30
REMARK                            x       y       z     vdW  Elec       q    Type
REMARK                         _______ _______ _______ _____ _____    ______ ____
ROOT
ATOM      1  C   UNL     1     -32.582  29.376   4.123  0.00  0.00    +0.125 C 
ATOM      2  C   UNL     1     -32.473  28.167   4.812  0.00  0.00    +0.022 C 
ATOM      3  C   UNL     1     -33.444  29.480   3.032  0.00  0.00    +0.022 C 
ATOM      4  C   UNL     1     -34.084  27.175   3.319  0.00  0.00    +0.089 C 
ATOM      5  C   UNL     1     -33.225  27.064   4.408  0.00  0.00    +0.019 C 
ATOM      6  C   UNL     1     -34.197  28.378   2.628  0.00  0.00    +0.019 C 
ENDROOT
BRANCH   1   7
ATOM      7  S   UNL     1     -31.641  30.756   4.629  0.00  0.00    +0.075 S 
ATOM      8  O   UNL     1     -31.881  30.960   6.053  0.00  0.00    -0.150 OA
ATOM      9  O   UNL     1     -31.896  31.858   3.709  0.00  0.00    -0.150 OA
BRANCH   7  10
ATOM     10  N   UNL     1     -30.020  30.206   4.433  0.00  0.00    -0.199 N 
ATOM     11  H   UNL     1     -29.700  29.875   3.563  0.00  0.00    +0.175 HD
ATOM     12  N   UNL     1     -29.461  29.395   6.576  0.00  0.00    -0.228 NA
ATOM     13  C   UNL     1     -29.150  30.244   5.576  0.00  0.00    +0.147 C 
ATOM     14  C   UNL     1     -28.080  31.116   5.589  0.00  0.00    +0.036 C 
ATOM     15  C   UNL     1     -27.264  31.117   6.715  0.00  0.00    +0.005 C 
ATOM     16  C   UNL     1     -28.646  29.425   7.654  0.00  0.00    +0.100 C 
ATOM     17  C   UNL     1     -27.546  30.259   7.772  0.00  0.00    +0.021 C 
ENDBRANCH   7  10
ENDBRANCH   1   7
BRANCH   4  18
ATOM     18  N   UNL     1     -34.841  26.063   2.912  0.00  0.00    -0.128 NA
BRANCH  18  19
ATOM     19  N   UNL     1     -35.730  25.816   3.760  0.00  0.00    -0.128 NA
BRANCH  19  20
ATOM     20  C   UNL     1     -35.615  24.494   4.202  0.00  0.00    +0.089 C 
ATOM     21  C   UNL     1     -35.518  22.129   3.723  0.00  0.00    +0.110 C 
ATOM     22  C   UNL     1     -35.634  23.447   3.282  0.00  0.00    +0.028 C 
ATOM     23  C   UNL     1     -35.383  21.858   5.085  0.00  0.00    +0.140 C 
ATOM     24  C   UNL     1     -35.479  24.224   5.563  0.00  0.00    +0.021 C 
ATOM     25  C   UNL     1     -35.363  22.906   6.005  0.00  0.00    +0.038 C 
BRANCH  23  26
ATOM     26  O   UNL     1     -35.267  20.578   5.535  0.00  0.00    -0.505 OA
ATOM     27  H   UNL     1     -35.867  19.921   5.242  0.00  0.00    +0.292 HD
ENDBRANCH  23  26
BRANCH  21  29
ATOM     28  O   UNL     1     -34.757  20.925   1.800  0.00  0.00    -0.245 OA
ATOM     29  C   UNL     1     -35.540  21.049   2.746  0.00  0.00    +0.341 C 
BRANCH  29  30
ATOM     30  O   UNL     1     -36.539  20.155   2.983  0.00  0.00    -0.477 OA
ATOM     31  H   UNL     1     -37.433  20.412   2.870  0.00  0.00    +0.295 HD
ENDBRANCH  29  30
ENDBRANCH  21  29
ENDBRANCH  19  20
ENDBRANCH  18  19
ENDBRANCH   4  18
TORSDOF 8
ENDMDL
MODEL 7
REMARK VINA RESULT:      -6.2      6.225      8.936
REMARK  Name = 5339
REMARK  8 active torsions:
REMARK  status: ('A' for Active; 'I' for Inactive)
REMARK    1  A    between atoms: C_1  and  S_7
REMARK    2  A    between atoms: C_4  and  N_18
REMARK    3  A    between atoms: S_7  and  N_10
REMARK    4  A    between atoms: N_18  and  N_19
REMARK    5  A    between atoms: N_19  and  C_20
REMARK    6  A    between atoms: C_21  and  C_29
REMARK    7  A    between atoms: C_23  and  O_26
REMARK    8  A    between atoms: C_29  and  O_30
REMARK                            x       y       z     vdW  Elec       q    Type
REMARK                         _______ _______ _______ _____ _____    ______ ____
ROOT
ATOM      1  C   UNL     1     -32.368  18.951   0.644  0.00  0.00    +0.125 C 
ATOM      2  C   UNL     1     -32.242  20.199   0.030  0.00  0.00    +0.022 C 
ATOM      3  C   UNL     1     -33.413  18.717   1.537  0.00  0.00    +0.022 C 
ATOM      4  C   UNL     1     -34.200  20.970   1.204  0.00  0.00    +0.089 C 
ATOM      5  C   UNL     1     -33.160  21.210   0.312  0.00  0.00    +0.019 C 
ATOM      6  C   UNL     1     -34.332  19.728   1.819  0.00  0.00    +0.019 C 
ENDROOT
BRANCH   1   7
ATOM      7  S   UNL     1     -31.220  17.685   0.291  0.00  0.00    +0.075 S 
ATOM      8  O   UNL     1     -30.257  17.640   1.386  0.00  0.00    -0.150 OA
ATOM      9  O   UNL     1     -30.728  17.865  -1.069  0.00  0.00    -0.150 OA
BRANCH   7  10
ATOM     10  N   UNL     1     -32.186  16.261   0.370  0.00  0.00    -0.199 N 
ATOM     11  H   UNL     1     -33.054  16.263   0.837  0.00  0.00    +0.175 HD
ATOM     12  N   UNL     1     -30.595  14.521   0.300  0.00  0.00    -0.228 NA
ATOM     13  C   UNL     1     -31.690  15.070  -0.263  0.00  0.00    +0.147 C 
ATOM     14  C   UNL     1     -32.338  14.569  -1.374  0.00  0.00    +0.036 C 
ATOM     15  C   UNL     1     -31.824  13.414  -1.954  0.00  0.00    +0.005 C 
ATOM     16  C   UNL     1     -30.123  13.400  -0.291  0.00  0.00    +0.100 C 
ATOM     17  C   UNL     1     -30.695  12.813  -1.408  0.00  0.00    +0.021 C 
ENDBRANCH   7  10
ENDBRANCH   1   7
BRANCH   4  18
ATOM     18  N   UNL     1     -35.124  21.990   1.488  0.00  0.00    -0.128 NA
BRANCH  18  19
ATOM     19  N   UNL     1     -35.701  21.755   2.576  0.00  0.00    -0.128 NA
BRANCH  19  20
ATOM     20  C   UNL     1     -35.923  22.951   3.267  0.00  0.00    +0.089 C 
ATOM     21  C   UNL     1     -36.909  25.154   3.372  0.00  0.00    +0.110 C 
ATOM     22  C   UNL     1     -36.687  23.961   2.683  0.00  0.00    +0.028 C 
ATOM     23  C   UNL     1     -36.368  25.335   4.645  0.00  0.00    +0.140 C 
ATOM     24  C   UNL     1     -35.383  23.132   4.539  0.00  0.00    +0.021 C 
ATOM     25  C   UNL     1     -35.605  24.324   5.228  0.00  0.00    +0.038 C 
BRANCH  23  26
ATOM     26  O   UNL     1     -36.575  26.492   5.335  0.00  0.00    -0.505 OA
ATOM     27  H   UNL     1     -36.491  26.503   6.267  0.00  0.00    +0.292 HD
ENDBRANCH  23  26
BRANCH  21  29
ATOM     28  O   UNL     1     -37.394  26.831   1.735  0.00  0.00    -0.245 OA
ATOM     29  C   UNL     1     -37.710  26.196   2.746  0.00  0.00    +0.341 C 
BRANCH  29  30
ATOM     30  O   UNL     1     -38.883  26.413   3.401  0.00  0.00    -0.477 OA
ATOM     31  H   UNL     1     -39.340  27.222   3.286  0.00  0.00    +0.295 HD
ENDBRANCH  29  30
ENDBRANCH  21  29
ENDBRANCH  19  20
ENDBRANCH  18  19
ENDBRANCH   4  18
TORSDOF 8
ENDMDL
MODEL 8
REMARK VINA RESULT:      -6.2      5.316      8.191
REMARK  Name = 5339
REMARK  8 active torsions:
REMARK  status: ('A' for Active; 'I' for Inactive)
REMARK    1  A    between atoms: C_1  and  S_7
REMARK    2  A    between atoms: C_4  and  N_18
REMARK    3  A    between atoms: S_7  and  N_10
REMARK    4  A    between atoms: N_18  and  N_19
REMARK    5  A    between atoms: N_19  and  C_20
REMARK    6  A    between atoms: C_21  and  C_29
REMARK    7  A    between atoms: C_23  and  O_26
REMARK    8  A    between atoms: C_29  and  O_30
REMARK                            x       y       z     vdW  Elec       q    Type
REMARK                         _______ _______ _______ _____ _____    ______ ____
ROOT
ATOM      1  C   UNL     1     -33.594  27.228   4.519  0.00  0.00    +0.125 C 
ATOM      2  C   UNL     1     -33.712  26.347   5.595  0.00  0.00    +0.022 C 
ATOM      3  C   UNL     1     -34.515  27.177   3.473  0.00  0.00    +0.022 C 
ATOM      4  C   UNL     1     -35.665  25.370   4.577  0.00  0.00    +0.089 C 
ATOM      5  C   UNL     1     -34.749  25.415   5.623  0.00  0.00    +0.019 C 
ATOM      6  C   UNL     1     -35.553  26.246   3.501  0.00  0.00    +0.019 C 
ENDROOT
BRANCH   1   7
ATOM      7  S   UNL     1     -32.295  28.394   4.484  0.00  0.00    +0.075 S 
ATOM      8  O   UNL     1     -31.037  27.657   4.442  0.00  0.00    -0.150 OA
ATOM      9  O   UNL     1     -32.507  29.361   5.554  0.00  0.00    -0.150 OA
BRANCH   7  10
ATOM     10  N   UNL     1     -32.516  29.165   2.959  0.00  0.00    -0.199 N 
ATOM     11  H   UNL     1     -32.796  28.650   2.168  0.00  0.00    +0.175 HD
ATOM     12  N   UNL     1     -30.998  30.968   3.038  0.00  0.00    -0.228 NA
ATOM     13  C   UNL     1     -32.278  30.580   2.875  0.00  0.00    +0.147 C 
ATOM     14  C   UNL     1     -33.336  31.435   2.639  0.00  0.00    +0.036 C 
ATOM     15  C   UNL     1     -33.059  32.796   2.564  0.00  0.00    +0.005 C 
ATOM     16  C   UNL     1     -30.768  32.298   2.960  0.00  0.00    +0.100 C 
ATOM     17  C   UNL     1     -31.753  33.244   2.727  0.00  0.00    +0.021 C 
ENDBRANCH   7  10
ENDBRANCH   1   7
BRANCH   4  18
ATOM     18  N   UNL     1     -36.710  24.430   4.605  0.00  0.00    -0.128 NA
BRANCH  18  19
ATOM     19  N   UNL     1     -37.667  24.832   3.902  0.00  0.00    -0.128 NA
BRANCH  19  20
ATOM     20  C   UNL     1     -38.158  23.782   3.119  0.00  0.00    +0.089 C 
ATOM     21  C   UNL     1     -37.820  21.659   2.017  0.00  0.00    +0.110 C 
ATOM     22  C   UNL     1     -37.331  22.707   2.797  0.00  0.00    +0.028 C 
ATOM     23  C   UNL     1     -39.137  21.687   1.558  0.00  0.00    +0.140 C 
ATOM     24  C   UNL     1     -39.475  23.810   2.661  0.00  0.00    +0.021 C 
ATOM     25  C   UNL     1     -39.965  22.763   1.881  0.00  0.00    +0.038 C 
BRANCH  23  26
ATOM     26  O   UNL     1     -39.635  20.674   0.796  0.00  0.00    -0.505 OA
ATOM     27  H   UNL     1     -40.507  20.725   0.460  0.00  0.00    +0.292 HD
ENDBRANCH  23  26
BRANCH  21  29
ATOM     28  O   UNL     1     -36.529  20.265   0.562  0.00  0.00    -0.245 OA
ATOM     29  C   UNL     1     -36.941  20.545   1.692  0.00  0.00    +0.341 C 
BRANCH  29  30
ATOM     30  O   UNL     1     -36.601  19.816   2.790  0.00  0.00    -0.477 OA
ATOM     31  H   UNL     1     -36.234  18.960   2.688  0.00  0.00    +0.295 HD
ENDBRANCH  29  30
ENDBRANCH  21  29
ENDBRANCH  19  20
ENDBRANCH  18  19
ENDBRANCH   4  18
TORSDOF 8
ENDMDL
MODEL 9
REMARK VINA RESULT:      -6.1      5.164      8.084
REMARK  Name = 5339
REMARK  8 active torsions:
REMARK  status: ('A' for Active; 'I' for Inactive)
REMARK    1  A    between atoms: C_1  and  S_7
REMARK    2  A    between atoms: C_4  and  N_18
REMARK    3  A    between atoms: S_7  and  N_10
REMARK    4  A    between atoms: N_18  and  N_19
REMARK    5  A    between atoms: N_19  and  C_20
REMARK    6  A    between atoms: C_21  and  C_29
REMARK    7  A    between atoms: C_23  and  O_26
REMARK    8  A    between atoms: C_29  and  O_30
REMARK                            x       y       z     vdW  Elec       q    Type
REMARK                         _______ _______ _______ _____ _____    ______ ____
ROOT
ATOM      1  C   UNL     1     -33.241  27.088   4.644  0.00  0.00    +0.125 C 
ATOM      2  C   UNL     1     -33.741  26.476   3.494  0.00  0.00    +0.022 C 
ATOM      3  C   UNL     1     -33.632  26.631   5.902  0.00  0.00    +0.022 C 
ATOM      4  C   UNL     1     -35.016  24.956   4.861  0.00  0.00    +0.089 C 
ATOM      5  C   UNL     1     -34.631  25.408   3.603  0.00  0.00    +0.019 C 
ATOM      6  C   UNL     1     -34.522  25.562   6.012  0.00  0.00    +0.019 C 
ENDROOT
BRANCH   1   7
ATOM      7  S   UNL     1     -32.126  28.425   4.508  0.00  0.00    +0.075 S 
ATOM      8  O   UNL     1     -30.774  27.882   4.556  0.00  0.00    -0.150 OA
ATOM      9  O   UNL     1     -32.506  29.450   5.472  0.00  0.00    -0.150 OA
BRANCH   7  10
ATOM     10  N   UNL     1     -32.415  29.001   2.910  0.00  0.00    -0.199 N 
ATOM     11  H   UNL     1     -32.396  28.388   2.140  0.00  0.00    +0.175 HD
ATOM     12  N   UNL     1     -31.657  31.233   2.993  0.00  0.00    -0.228 NA
ATOM     13  C   UNL     1     -32.686  30.402   2.734  0.00  0.00    +0.147 C 
ATOM     14  C   UNL     1     -33.940  30.807   2.325  0.00  0.00    +0.036 C 
ATOM     15  C   UNL     1     -34.156  32.172   2.166  0.00  0.00    +0.005 C 
ATOM     16  C   UNL     1     -31.904  32.552   2.830  0.00  0.00    +0.100 C 
ATOM     17  C   UNL     1     -33.124  33.067   2.422  0.00  0.00    +0.021 C 
ENDBRANCH   7  10
ENDBRANCH   1   7
BRANCH   4  18
ATOM     18  N   UNL     1     -35.914  23.880   4.970  0.00  0.00    -0.128 NA
BRANCH  18  19
ATOM     19  N   UNL     1     -36.779  23.950   4.066  0.00  0.00    -0.128 NA
BRANCH  19  20
ATOM     20  C   UNL     1     -36.799  22.760   3.331  0.00  0.00    +0.089 C 
ATOM     21  C   UNL     1     -37.913  21.275   1.785  0.00  0.00    +0.110 C 
ATOM     22  C   UNL     1     -37.893  22.461   2.519  0.00  0.00    +0.028 C 
ATOM     23  C   UNL     1     -36.839  20.388   1.864  0.00  0.00    +0.140 C 
ATOM     24  C   UNL     1     -35.726  21.874   3.409  0.00  0.00    +0.021 C 
ATOM     25  C   UNL     1     -35.746  20.688   2.676  0.00  0.00    +0.038 C 
BRANCH  23  26
ATOM     26  O   UNL     1     -36.839  19.225   1.154  0.00  0.00    -0.505 OA
ATOM     27  H   UNL     1     -36.369  18.481   1.474  0.00  0.00    +0.292 HD
ENDBRANCH  23  26
BRANCH  21  29
ATOM     28  O   UNL     1     -39.022  20.754  -0.271  0.00  0.00    -0.245 OA
ATOM     29  C   UNL     1     -39.064  20.982   0.942  0.00  0.00    +0.341 C 
BRANCH  29  30
ATOM     30  O   UNL     1     -40.231  20.979   1.641  0.00  0.00    -0.477 OA
ATOM     31  H   UNL     1     -40.328  21.530   2.393  0.00  0.00    +0.295 HD
ENDBRANCH  29  30
ENDBRANCH  21  29
ENDBRANCH  19  20
ENDBRANCH  18  19
ENDBRANCH   4  18
TORSDOF 8
ENDMDL
