MODEL 1
REMARK VINA RESULT:      -7.1      0.000      0.000
REMARK  Name = 1970
REMARK  7 active torsions:
REMARK  status: ('A' for Active; 'I' for Inactive)
REMARK    1  A    between atoms: N_1  and  C_12
REMARK    2  A    between atoms: C_11  and  O_20
REMARK    3  A    between atoms: C_13  and  O_22
REMARK    4  A    between atoms: C_14  and  C_17
REMARK    5  A    between atoms: N_24  and  C_26
REMARK    6  A    between atoms: C_26  and  C_27
REMARK    7  A    between atoms: C_32  and  N_33
REMARK                            x       y       z     vdW  Elec       q    Type
REMARK                         _______ _______ _______ _____ _____    ______ ____
ROOT
ATOM      1  N   UNL     1     -36.298  23.251   4.113  0.00  0.00    -0.247 N 
ATOM      2  N   UNL     1     -35.188  21.334   4.382  0.00  0.00    -0.242 NA
ATOM      3  N   UNL     1     -36.545  23.251   1.697  0.00  0.00    -0.228 NA
ATOM      4  N   UNL     1     -35.530  21.268   0.700  0.00  0.00    -0.228 NA
ATOM      5  C   UNL     1     -36.131  22.730   2.861  0.00  0.00    +0.152 C 
ATOM      6  C   UNL     1     -35.713  22.376   4.993  0.00  0.00    +0.223 C 
ATOM      7  C   UNL     1     -35.443  21.542   3.050  0.00  0.00    +0.140 C 
ATOM      8  C   UNL     1     -35.142  20.801   1.911  0.00  0.00    +0.146 C 
ATOM      9  C   UNL     1     -36.197  22.448   0.668  0.00  0.00    +0.253 C 
ATOM     10  N   UNL     1     -34.448  19.582   2.009  0.00  0.00    -0.313 N 
ATOM     11  H   UNL     1     -34.179  19.267   2.903  0.00  0.00    +0.149 HD
ENDROOT
BRANCH   1  14
ATOM     12  O   UNL     1     -38.266  24.560   3.831  0.00  0.00    -0.326 OA
ATOM     13  C   UNL     1     -36.203  25.755   4.035  0.00  0.00    +0.187 C 
ATOM     14  C   UNL     1     -36.969  24.506   4.462  0.00  0.00    +0.225 C 
ATOM     15  C   UNL     1     -36.916  26.167   2.763  0.00  0.00    +0.178 C 
ATOM     16  C   UNL     1     -38.346  25.763   3.058  0.00  0.00    +0.222 C 
BRANCH  16  19
ATOM     17  O   UNL     1     -39.286  26.217   0.917  0.00  0.00    -0.272 OA
ATOM     18  N   UNL     1     -39.593  24.112   1.861  0.00  0.00    -0.301 N 
ATOM     19  C   UNL     1     -39.112  25.410   1.825  0.00  0.00    +0.252 C 
ATOM     20  C   UNL     1     -40.385  23.533   0.800  0.00  0.00    +0.111 C 
ATOM     21  H   UNL     1     -39.386  23.558   2.648  0.00  0.00    +0.150 HD
ENDBRANCH  16  19
BRANCH  13  22
ATOM     22  O   UNL     1     -36.380  26.741   5.052  0.00  0.00    -0.378 OA
ATOM     23  H   UNL     1     -36.224  27.622   4.678  0.00  0.00    +0.211 HD
ENDBRANCH  13  22
BRANCH  15  24
ATOM     24  O   UNL     1     -36.786  27.551   2.502  0.00  0.00    -0.379 OA
ATOM     25  H   UNL     1     -35.903  27.731   2.143  0.00  0.00    +0.211 HD
ENDBRANCH  15  24
ENDBRANCH   1  14
BRANCH  10  26
ATOM     26  C   UNL     1     -34.112  18.780   0.871  0.00  0.00    +0.115 C 
BRANCH  26  27
ATOM     27  C   UNL     1     -32.635  18.842   0.598  0.00  0.00    -0.003 C 
ATOM     28  C   UNL     1     -32.110  19.933  -0.082  0.00  0.00    -0.001 C 
ATOM     29  C   UNL     1     -31.814  17.808   1.030  0.00  0.00    -0.001 C 
ATOM     30  C   UNL     1     -30.740  19.991  -0.336  0.00  0.00    +0.014 C 
ATOM     31  C   UNL     1     -30.444  17.867   0.777  0.00  0.00    +0.014 C 
ATOM     32  C   UNL     1     -29.907  18.958   0.094  0.00  0.00    +0.042 C 
BRANCH  32  33
ATOM     33  N   UNL     1     -28.521  19.017  -0.161  0.00  0.00    -0.357 N 
ATOM     34  H   UNL     1     -27.980  19.745   0.223  0.00  0.00    +0.142 HD
ATOM     35  H   UNL     1     -28.093  18.331  -0.724  0.00  0.00    +0.142 HD
ENDBRANCH  32  33
ENDBRANCH  26  27
ENDBRANCH  10  26
TORSDOF 7
ENDMDL
MODEL 2
REMARK VINA RESULT:      -6.9      5.582      8.259
REMARK  Name = 1970
REMARK  7 active torsions:
REMARK  status: ('A' for Active; 'I' for Inactive)
REMARK    1  A    between atoms: N_1  and  C_12
REMARK    2  A    between atoms: C_11  and  O_20
REMARK    3  A    between atoms: C_13  and  O_22
REMARK    4  A    between atoms: C_14  and  C_17
REMARK    5  A    between atoms: N_24  and  C_26
REMARK    6  A    between atoms: C_26  and  C_27
REMARK    7  A    between atoms: C_32  and  N_33
REMARK                            x       y       z     vdW  Elec       q    Type
REMARK                         _______ _______ _______ _____ _____    ______ ____
ROOT
ATOM      1  N   UNL     1     -32.171  27.983   5.186  0.00  0.00    -0.247 N 
ATOM      2  N   UNL     1     -33.545  26.621   6.298  0.00  0.00    -0.242 NA
ATOM      3  N   UNL     1     -33.225  27.938   2.998  0.00  0.00    -0.228 NA
ATOM      4  N   UNL     1     -35.202  26.507   2.994  0.00  0.00    -0.228 NA
ATOM      5  C   UNL     1     -33.123  27.588   4.288  0.00  0.00    +0.152 C 
ATOM      6  C   UNL     1     -32.468  27.375   6.379  0.00  0.00    +0.223 C 
ATOM      7  C   UNL     1     -33.965  26.746   4.997  0.00  0.00    +0.140 C 
ATOM      8  C   UNL     1     -35.038  26.197   4.302  0.00  0.00    +0.146 C 
ATOM      9  C   UNL     1     -34.299  27.346   2.431  0.00  0.00    +0.253 C 
ATOM     10  N   UNL     1     -35.942  25.332   4.943  0.00  0.00    -0.313 N 
ATOM     11  H   UNL     1     -35.798  25.125   5.895  0.00  0.00    +0.149 HD
ENDROOT
BRANCH   1  14
ATOM     12  O   UNL     1     -29.878  28.119   4.560  0.00  0.00    -0.326 OA
ATOM     13  C   UNL     1     -30.659  29.742   6.135  0.00  0.00    +0.187 C 
ATOM     14  C   UNL     1     -31.044  28.884   4.933  0.00  0.00    +0.225 C 
ATOM     15  C   UNL     1     -29.457  29.011   6.698  0.00  0.00    +0.178 C 
ATOM     16  C   UNL     1     -28.806  28.460   5.446  0.00  0.00    +0.222 C 
BRANCH  16  19
ATOM     17  O   UNL     1     -27.854  26.375   4.799  0.00  0.00    -0.272 OA
ATOM     18  N   UNL     1     -27.659  27.067   7.013  0.00  0.00    -0.301 N 
ATOM     19  C   UNL     1     -28.056  27.193   5.693  0.00  0.00    +0.252 C 
ATOM     20  C   UNL     1     -26.938  25.921   7.516  0.00  0.00    +0.111 C 
ATOM     21  H   UNL     1     -27.881  27.794   7.640  0.00  0.00    +0.150 HD
ENDBRANCH  16  19
BRANCH  13  22
ATOM     22  O   UNL     1     -30.278  31.029   5.645  0.00  0.00    -0.378 OA
ATOM     23  H   UNL     1     -30.152  30.984   4.684  0.00  0.00    +0.211 HD
ENDBRANCH  13  22
BRANCH  15  24
ATOM     24  O   UNL     1     -28.600  29.870   7.423  0.00  0.00    -0.379 OA
ATOM     25  H   UNL     1     -28.872  30.790   7.284  0.00  0.00    +0.211 HD
ENDBRANCH  15  24
ENDBRANCH   1  14
BRANCH  10  26
ATOM     26  C   UNL     1     -37.063  24.740   4.276  0.00  0.00    +0.115 C 
BRANCH  26  27
ATOM     27  C   UNL     1     -36.672  23.429   3.650  0.00  0.00    -0.003 C 
ATOM     28  C   UNL     1     -35.777  22.597   4.308  0.00  0.00    -0.001 C 
ATOM     29  C   UNL     1     -37.212  23.069   2.423  0.00  0.00    -0.001 C 
ATOM     30  C   UNL     1     -35.413  21.382   3.727  0.00  0.00    +0.014 C 
ATOM     31  C   UNL     1     -36.849  21.853   1.843  0.00  0.00    +0.014 C 
ATOM     32  C   UNL     1     -35.950  21.011   2.495  0.00  0.00    +0.042 C 
BRANCH  32  33
ATOM     33  N   UNL     1     -35.584  19.781   1.908  0.00  0.00    -0.357 N 
ATOM     34  H   UNL     1     -36.185  19.003   1.978  0.00  0.00    +0.142 HD
ATOM     35  H   UNL     1     -34.728  19.699   1.428  0.00  0.00    +0.142 HD
ENDBRANCH  32  33
ENDBRANCH  26  27
ENDBRANCH  10  26
TORSDOF 7
ENDMDL
MODEL 3
REMARK VINA RESULT:      -6.9      1.996      3.489
REMARK  Name = 1970
REMARK  7 active torsions:
REMARK  status: ('A' for Active; 'I' for Inactive)
REMARK    1  A    between atoms: N_1  and  C_12
REMARK    2  A    between atoms: C_11  and  O_20
REMARK    3  A    between atoms: C_13  and  O_22
REMARK    4  A    between atoms: C_14  and  C_17
REMARK    5  A    between atoms: N_24  and  C_26
REMARK    6  A    between atoms: C_26  and  C_27
REMARK    7  A    between atoms: C_32  and  N_33
REMARK                            x       y       z     vdW  Elec       q    Type
REMARK                         _______ _______ _______ _____ _____    ______ ____
ROOT
ATOM      1  N   UNL     1     -36.038  23.399   2.616  0.00  0.00    -0.247 N 
ATOM      2  N   UNL     1     -35.538  21.317   3.242  0.00  0.00    -0.242 NA
ATOM      3  N   UNL     1     -35.932  23.142   0.203  0.00  0.00    -0.228 NA
ATOM      4  N   UNL     1     -35.360  20.853  -0.422  0.00  0.00    -0.228 NA
ATOM      5  C   UNL     1     -35.844  22.692   1.463  0.00  0.00    +0.152 C 
ATOM      6  C   UNL     1     -35.843  22.529   3.658  0.00  0.00    +0.223 C 
ATOM      7  C   UNL     1     -35.536  21.404   1.873  0.00  0.00    +0.140 C 
ATOM      8  C   UNL     1     -35.289  20.468   0.874  0.00  0.00    +0.146 C 
ATOM      9  C   UNL     1     -35.672  22.148  -0.674  0.00  0.00    +0.253 C 
ATOM     10  N   UNL     1     -34.970  19.137   1.199  0.00  0.00    -0.313 N 
ATOM     11  H   UNL     1     -34.926  18.885   2.150  0.00  0.00    +0.149 HD
ENDROOT
BRANCH   1  14
ATOM     12  O   UNL     1     -35.188  25.618   2.753  0.00  0.00    -0.326 OA
ATOM     13  C   UNL     1     -37.185  25.157   3.986  0.00  0.00    +0.187 C 
ATOM     14  C   UNL     1     -36.388  24.817   2.730  0.00  0.00    +0.225 C 
ATOM     15  C   UNL     1     -36.130  25.733   4.908  0.00  0.00    +0.178 C 
ATOM     16  C   UNL     1     -35.205  26.431   3.932  0.00  0.00    +0.222 C 
BRANCH  16  19
ATOM     17  O   UNL     1     -32.858  26.079   3.730  0.00  0.00    -0.272 OA
ATOM     18  N   UNL     1     -33.694  27.022   5.687  0.00  0.00    -0.301 N 
ATOM     19  C   UNL     1     -33.792  26.488   4.413  0.00  0.00    +0.252 C 
ATOM     20  C   UNL     1     -32.439  27.166   6.389  0.00  0.00    +0.111 C 
ATOM     21  H   UNL     1     -34.519  27.317   6.136  0.00  0.00    +0.150 HD
ENDBRANCH  16  19
BRANCH  13  22
ATOM     22  O   UNL     1     -38.144  26.155   3.635  0.00  0.00    -0.378 OA
ATOM     23  H   UNL     1     -37.893  27.000   4.040  0.00  0.00    +0.211 HD
ENDBRANCH  13  22
BRANCH  15  24
ATOM     24  O   UNL     1     -36.680  26.619   5.863  0.00  0.00    -0.379 OA
ATOM     25  H   UNL     1     -36.201  27.462   5.835  0.00  0.00    +0.211 HD
ENDBRANCH  15  24
ENDBRANCH   1  14
BRANCH  10  26
ATOM     26  C   UNL     1     -34.707  18.133   0.213  0.00  0.00    +0.115 C 
BRANCH  26  27
ATOM     27  C   UNL     1     -33.263  17.715   0.258  0.00  0.00    -0.003 C 
ATOM     28  C   UNL     1     -32.365  18.439   1.030  0.00  0.00    -0.001 C 
ATOM     29  C   UNL     1     -32.847  16.610  -0.474  0.00  0.00    -0.001 C 
ATOM     30  C   UNL     1     -31.025  18.052   1.071  0.00  0.00    +0.014 C 
ATOM     31  C   UNL     1     -31.508  16.223  -0.432  0.00  0.00    +0.014 C 
ATOM     32  C   UNL     1     -30.597  16.944   0.340  0.00  0.00    +0.042 C 
BRANCH  32  33
ATOM     33  N   UNL     1     -29.243  16.551   0.383  0.00  0.00    -0.357 N 
ATOM     34  H   UNL     1     -28.675  16.653  -0.415  0.00  0.00    +0.142 HD
ATOM     35  H   UNL     1     -28.865  16.175   1.211  0.00  0.00    +0.142 HD
ENDBRANCH  32  33
ENDBRANCH  26  27
ENDBRANCH  10  26
TORSDOF 7
ENDMDL
MODEL 4
REMARK VINA RESULT:      -6.8      0.988      1.220
REMARK  Name = 1970
REMARK  7 active torsions:
REMARK  status: ('A' for Active; 'I' for Inactive)
REMARK    1  A    between atoms: N_1  and  C_12
REMARK    2  A    between atoms: C_11  and  O_20
REMARK    3  A    between atoms: C_13  and  O_22
REMARK    4  A    between atoms: C_14  and  C_17
REMARK    5  A    between atoms: N_24  and  C_26
REMARK    6  A    between atoms: C_26  and  C_27
REMARK    7  A    between atoms: C_32  and  N_33
REMARK                            x       y       z     vdW  Elec       q    Type
REMARK                         _______ _______ _______ _____ _____    ______ ____
ROOT
ATOM      1  N   UNL     1     -36.160  23.266   4.020  0.00  0.00    -0.247 N 
ATOM      2  N   UNL     1     -35.306  21.207   4.120  0.00  0.00    -0.242 NA
ATOM      3  N   UNL     1     -36.565  23.430   1.631  0.00  0.00    -0.228 NA
ATOM      4  N   UNL     1     -35.898  21.387   0.474  0.00  0.00    -0.228 NA
ATOM      5  C   UNL     1     -36.150  22.796   2.737  0.00  0.00    +0.152 C 
ATOM      6  C   UNL     1     -35.643  22.275   4.814  0.00  0.00    +0.223 C 
ATOM      7  C   UNL     1     -35.619  21.519   2.821  0.00  0.00    +0.140 C 
ATOM      8  C   UNL     1     -35.498  20.808   1.631  0.00  0.00    +0.146 C 
ATOM      9  C   UNL     1     -36.399  22.645   0.544  0.00  0.00    +0.253 C 
ATOM     10  N   UNL     1     -34.970  19.505   1.623  0.00  0.00    -0.313 N 
ATOM     11  H   UNL     1     -34.688  19.108   2.479  0.00  0.00    +0.149 HD
ENDROOT
BRANCH   1  14
ATOM     12  O   UNL     1     -37.992  24.787   4.043  0.00  0.00    -0.326 OA
ATOM     13  C   UNL     1     -35.802  25.745   3.945  0.00  0.00    +0.187 C 
ATOM     14  C   UNL     1     -36.630  24.577   4.473  0.00  0.00    +0.225 C 
ATOM     15  C   UNL     1     -36.645  26.262   2.797  0.00  0.00    +0.178 C 
ATOM     16  C   UNL     1     -38.052  26.008   3.298  0.00  0.00    +0.222 C 
BRANCH  16  19
ATOM     17  O   UNL     1     -39.366  26.663   1.423  0.00  0.00    -0.272 OA
ATOM     18  N   UNL     1     -39.484  24.462   2.170  0.00  0.00    -0.301 N 
ATOM     19  C   UNL     1     -39.026  25.768   2.192  0.00  0.00    +0.252 C 
ATOM     20  C   UNL     1     -40.450  23.979   1.211  0.00  0.00    +0.111 C 
ATOM     21  H   UNL     1     -39.134  23.832   2.842  0.00  0.00    +0.150 HD
ENDBRANCH  16  19
BRANCH  13  22
ATOM     22  O   UNL     1     -35.717  26.722   4.984  0.00  0.00    -0.378 OA
ATOM     23  H   UNL     1     -34.787  26.939   5.148  0.00  0.00    +0.211 HD
ENDBRANCH  13  22
BRANCH  15  24
ATOM     24  O   UNL     1     -36.403  27.629   2.529  0.00  0.00    -0.379 OA
ATOM     25  H   UNL     1     -35.732  27.708   1.832  0.00  0.00    +0.211 HD
ENDBRANCH  15  24
ENDBRANCH   1  14
BRANCH  10  26
ATOM     26  C   UNL     1     -34.824  18.728   0.429  0.00  0.00    +0.115 C 
BRANCH  26  27
ATOM     27  C   UNL     1     -33.495  18.023   0.418  0.00  0.00    -0.003 C 
ATOM     28  C   UNL     1     -32.369  18.677   0.897  0.00  0.00    -0.001 C 
ATOM     29  C   UNL     1     -33.412  16.726  -0.072  0.00  0.00    -0.001 C 
ATOM     30  C   UNL     1     -31.137  18.024   0.886  0.00  0.00    +0.014 C 
ATOM     31  C   UNL     1     -32.180  16.072  -0.082  0.00  0.00    +0.014 C 
ATOM     32  C   UNL     1     -31.043  16.721   0.397  0.00  0.00    +0.042 C 
BRANCH  32  33
ATOM     33  N   UNL     1     -29.797  16.059   0.388  0.00  0.00    -0.357 N 
ATOM     34  H   UNL     1     -29.356  15.851  -0.468  0.00  0.00    +0.142 HD
ATOM     35  H   UNL     1     -29.368  15.804   1.237  0.00  0.00    +0.142 HD
ENDBRANCH  32  33
ENDBRANCH  26  27
ENDBRANCH  10  26
TORSDOF 7
ENDMDL
MODEL 5
REMARK VINA RESULT:      -6.8      6.065     10.929
REMARK  Name = 1970
REMARK  7 active torsions:
REMARK  status: ('A' for Active; 'I' for Inactive)
REMARK    1  A    between atoms: N_1  and  C_12
REMARK    2  A    between atoms: C_11  and  O_20
REMARK    3  A    between atoms: C_13  and  O_22
REMARK    4  A    between atoms: C_14  and  C_17
REMARK    5  A    between atoms: N_24  and  C_26
REMARK    6  A    between atoms: C_26  and  C_27
REMARK    7  A    between atoms: C_32  and  N_33
REMARK                            x       y       z     vdW  Elec       q    Type
REMARK                         _______ _______ _______ _____ _____    ______ ____
ROOT
ATOM      1  N   UNL     1     -35.452  27.747   2.313  0.00  0.00    -0.247 N 
ATOM      2  N   UNL     1     -36.874  29.017   1.155  0.00  0.00    -0.242 NA
ATOM      3  N   UNL     1     -33.994  29.470   3.211  0.00  0.00    -0.228 NA
ATOM      4  N   UNL     1     -34.698  31.693   2.489  0.00  0.00    -0.228 NA
ATOM      5  C   UNL     1     -35.039  29.038   2.491  0.00  0.00    +0.152 C 
ATOM      6  C   UNL     1     -36.557  27.787   1.503  0.00  0.00    +0.223 C 
ATOM      7  C   UNL     1     -35.934  29.809   1.766  0.00  0.00    +0.140 C 
ATOM      8  C   UNL     1     -35.735  31.186   1.781  0.00  0.00    +0.146 C 
ATOM      9  C   UNL     1     -33.903  30.817   3.150  0.00  0.00    +0.253 C 
ATOM     10  N   UNL     1     -36.596  32.044   1.075  0.00  0.00    -0.313 N 
ATOM     11  H   UNL     1     -37.342  31.647   0.569  0.00  0.00    +0.149 HD
ENDROOT
BRANCH   1  14
ATOM     12  O   UNL     1     -35.618  25.381   2.522  0.00  0.00    -0.326 OA
ATOM     13  C   UNL     1     -34.716  26.563   4.397  0.00  0.00    +0.187 C 
ATOM     14  C   UNL     1     -34.837  26.542   2.875  0.00  0.00    +0.225 C 
ATOM     15  C   UNL     1     -35.890  25.711   4.838  0.00  0.00    +0.178 C 
ATOM     16  C   UNL     1     -35.973  24.687   3.724  0.00  0.00    +0.222 C 
BRANCH  16  19
ATOM     17  O   UNL     1     -37.590  22.987   3.314  0.00  0.00    -0.272 OA
ATOM     18  N   UNL     1     -38.303  25.191   3.542  0.00  0.00    -0.301 N 
ATOM     19  C   UNL     1     -37.360  24.177   3.510  0.00  0.00    +0.252 C 
ATOM     20  C   UNL     1     -39.716  24.965   3.340  0.00  0.00    +0.111 C 
ATOM     21  H   UNL     1     -37.995  26.111   3.710  0.00  0.00    +0.150 HD
ENDBRANCH  16  19
BRANCH  13  22
ATOM     22  O   UNL     1     -33.482  25.934   4.743  0.00  0.00    -0.378 OA
ATOM     23  H   UNL     1     -33.662  25.093   5.189  0.00  0.00    +0.211 HD
ENDBRANCH  13  22
BRANCH  15  24
ATOM     24  O   UNL     1     -35.674  25.119   6.103  0.00  0.00    -0.379 OA
ATOM     25  H   UNL     1     -36.519  25.046   6.574  0.00  0.00    +0.211 HD
ENDBRANCH  15  24
ENDBRANCH   1  14
BRANCH  10  26
ATOM     26  C   UNL     1     -36.438  33.467   1.056  0.00  0.00    +0.115 C 
BRANCH  26  27
ATOM     27  C   UNL     1     -37.740  34.147   1.378  0.00  0.00    -0.003 C 
ATOM     28  C   UNL     1     -38.928  33.436   1.271  0.00  0.00    -0.001 C 
ATOM     29  C   UNL     1     -37.738  35.477   1.777  0.00  0.00    -0.001 C 
ATOM     30  C   UNL     1     -40.136  34.066   1.569  0.00  0.00    +0.014 C 
ATOM     31  C   UNL     1     -38.946  36.107   2.075  0.00  0.00    +0.014 C 
ATOM     32  C   UNL     1     -40.145  35.402   1.971  0.00  0.00    +0.042 C 
BRANCH  32  33
ATOM     33  N   UNL     1     -41.366  36.039   2.274  0.00  0.00    -0.357 N 
ATOM     34  H   UNL     1     -41.724  36.731   1.671  0.00  0.00    +0.142 HD
ATOM     35  H   UNL     1     -41.862  35.793   3.088  0.00  0.00    +0.142 HD
ENDBRANCH  32  33
ENDBRANCH  26  27
ENDBRANCH  10  26
TORSDOF 7
ENDMDL
MODEL 6
REMARK VINA RESULT:      -6.8      4.427      9.902
REMARK  Name = 1970
REMARK  7 active torsions:
REMARK  status: ('A' for Active; 'I' for Inactive)
REMARK    1  A    between atoms: N_1  and  C_12
REMARK    2  A    between atoms: C_11  and  O_20
REMARK    3  A    between atoms: C_13  and  O_22
REMARK    4  A    between atoms: C_14  and  C_17
REMARK    5  A    between atoms: N_24  and  C_26
REMARK    6  A    between atoms: C_26  and  C_27
REMARK    7  A    between atoms: C_32  and  N_33
REMARK                            x       y       z     vdW  Elec       q    Type
REMARK                         _______ _______ _______ _____ _____    ______ ____
ROOT
ATOM      1  N   UNL     1     -38.741  24.754   1.824  0.00  0.00    -0.247 N 
ATOM      2  N   UNL     1     -40.441  23.315   1.682  0.00  0.00    -0.242 NA
ATOM      3  N   UNL     1     -39.898  26.817   1.272  0.00  0.00    -0.228 NA
ATOM      4  N   UNL     1     -42.266  26.418   0.834  0.00  0.00    -0.228 NA
ATOM      5  C   UNL     1     -39.838  25.494   1.482  0.00  0.00    +0.152 C 
ATOM      6  C   UNL     1     -39.155  23.451   1.932  0.00  0.00    +0.223 C 
ATOM      7  C   UNL     1     -40.880  24.584   1.400  0.00  0.00    +0.140 C 
ATOM      8  C   UNL     1     -42.132  25.089   1.062  0.00  0.00    +0.146 C 
ATOM      9  C   UNL     1     -41.157  27.188   0.951  0.00  0.00    +0.253 C 
ATOM     10  N   UNL     1     -43.246  24.238   0.957  0.00  0.00    -0.313 N 
ATOM     11  H   UNL     1     -43.119  23.276   1.129  0.00  0.00    +0.149 HD
ENDROOT
BRANCH   1  14
ATOM     12  O   UNL     1     -36.486  24.138   2.275  0.00  0.00    -0.326 OA
ATOM     13  C   UNL     1     -37.245  26.200   3.222  0.00  0.00    +0.187 C 
ATOM     14  C   UNL     1     -37.378  25.247   2.037  0.00  0.00    +0.225 C 
ATOM     15  C   UNL     1     -36.685  25.306   4.310  0.00  0.00    +0.178 C 
ATOM     16  C   UNL     1     -35.810  24.355   3.518  0.00  0.00    +0.222 C 
BRANCH  16  19
ATOM     17  O   UNL     1     -35.607  21.983   3.497  0.00  0.00    -0.272 OA
ATOM     18  N   UNL     1     -35.696  23.090   5.542  0.00  0.00    -0.301 N 
ATOM     19  C   UNL     1     -35.687  23.013   4.160  0.00  0.00    +0.252 C 
ATOM     20  C   UNL     1     -35.613  21.929   6.399  0.00  0.00    +0.111 C 
ATOM     21  H   UNL     1     -35.764  23.978   5.961  0.00  0.00    +0.150 HD
ENDBRANCH  16  19
BRANCH  13  22
ATOM     22  O   UNL     1     -36.298  27.208   2.864  0.00  0.00    -0.378 OA
ATOM     23  H   UNL     1     -36.273  27.298   1.899  0.00  0.00    +0.211 HD
ENDBRANCH  13  22
BRANCH  15  24
ATOM     24  O   UNL     1     -35.957  26.035   5.278  0.00  0.00    -0.379 OA
ATOM     25  H   UNL     1     -35.462  25.419   5.841  0.00  0.00    +0.211 HD
ENDBRANCH  15  24
ENDBRANCH   1  14
BRANCH  10  26
ATOM     26  C   UNL     1     -44.556  24.704   0.612  0.00  0.00    +0.115 C 
BRANCH  26  27
ATOM     27  C   UNL     1     -45.490  24.562   1.782  0.00  0.00    -0.003 C 
ATOM     28  C   UNL     1     -46.443  23.552   1.779  0.00  0.00    -0.001 C 
ATOM     29  C   UNL     1     -45.389  25.444   2.850  0.00  0.00    -0.001 C 
ATOM     30  C   UNL     1     -47.311  23.421   2.863  0.00  0.00    +0.014 C 
ATOM     31  C   UNL     1     -46.256  25.312   3.935  0.00  0.00    +0.014 C 
ATOM     32  C   UNL     1     -47.217  24.302   3.941  0.00  0.00    +0.042 C 
BRANCH  32  33
ATOM     33  N   UNL     1     -48.093  24.168   5.039  0.00  0.00    -0.357 N 
ATOM     34  H   UNL     1     -48.190  23.297   5.488  0.00  0.00    +0.142 HD
ATOM     35  H   UNL     1     -48.607  24.946   5.356  0.00  0.00    +0.142 HD
ENDBRANCH  32  33
ENDBRANCH  26  27
ENDBRANCH  10  26
TORSDOF 7
ENDMDL
MODEL 7
REMARK VINA RESULT:      -6.8      5.013      7.172
REMARK  Name = 1970
REMARK  7 active torsions:
REMARK  status: ('A' for Active; 'I' for Inactive)
REMARK    1  A    between atoms: N_1  and  C_12
REMARK    2  A    between atoms: C_11  and  O_20
REMARK    3  A    between atoms: C_13  and  O_22
REMARK    4  A    between atoms: C_14  and  C_17
REMARK    5  A    between atoms: N_24  and  C_26
REMARK    6  A    between atoms: C_26  and  C_27
REMARK    7  A    between atoms: C_32  and  N_33
REMARK                            x       y       z     vdW  Elec       q    Type
REMARK                         _______ _______ _______ _____ _____    ______ ____
ROOT
ATOM      1  N   UNL     1     -40.338  26.106   2.271  0.00  0.00    -0.247 N 
ATOM      2  N   UNL     1     -39.043  24.776   3.507  0.00  0.00    -0.242 NA
ATOM      3  N   UNL     1     -38.636  27.245   0.965  0.00  0.00    -0.228 NA
ATOM      4  N   UNL     1     -36.398  26.468   1.553  0.00  0.00    -0.228 NA
ATOM      5  C   UNL     1     -39.052  26.369   1.891  0.00  0.00    +0.152 C 
ATOM      6  C   UNL     1     -40.280  25.143   3.245  0.00  0.00    +0.223 C 
ATOM      7  C   UNL     1     -38.265  25.533   2.668  0.00  0.00    +0.140 C 
ATOM      8  C   UNL     1     -36.889  25.604   2.473  0.00  0.00    +0.146 C 
ATOM      9  C   UNL     1     -37.289  27.225   0.866  0.00  0.00    +0.253 C 
ATOM     10  N   UNL     1     -36.016  24.792   3.217  0.00  0.00    -0.313 N 
ATOM     11  H   UNL     1     -36.401  24.172   3.879  0.00  0.00    +0.149 HD
ENDROOT
BRANCH   1  14
ATOM     12  O   UNL     1     -41.807  27.974   2.435  0.00  0.00    -0.326 OA
ATOM     13  C   UNL     1     -42.805  25.867   1.896  0.00  0.00    +0.187 C 
ATOM     14  C   UNL     1     -41.556  26.730   1.746  0.00  0.00    +0.225 C 
ATOM     15  C   UNL     1     -43.480  26.463   3.115  0.00  0.00    +0.178 C 
ATOM     16  C   UNL     1     -43.128  27.931   2.985  0.00  0.00    +0.222 C 
BRANCH  16  19
ATOM     17  O   UNL     1     -41.971  28.938   4.807  0.00  0.00    -0.272 OA
ATOM     18  N   UNL     1     -44.296  28.837   4.864  0.00  0.00    -0.301 N 
ATOM     19  C   UNL     1     -43.047  28.625   4.305  0.00  0.00    +0.252 C 
ATOM     20  C   UNL     1     -44.490  29.470   6.149  0.00  0.00    +0.111 C 
ATOM     21  H   UNL     1     -45.089  28.541   4.362  0.00  0.00    +0.150 HD
ENDBRANCH  16  19
BRANCH  13  22
ATOM     22  O   UNL     1     -43.610  26.062   0.732  0.00  0.00    -0.378 OA
ATOM     23  H   UNL     1     -43.827  25.202   0.343  0.00  0.00    +0.211 HD
ENDBRANCH  13  22
BRANCH  15  24
ATOM     24  O   UNL     1     -44.876  26.238   3.117  0.00  0.00    -0.379 OA
ATOM     25  H   UNL     1     -45.313  26.913   2.575  0.00  0.00    +0.211 HD
ENDBRANCH  15  24
ENDBRANCH   1  14
BRANCH  10  26
ATOM     26  C   UNL     1     -34.593  24.823   3.058  0.00  0.00    +0.115 C 
BRANCH  26  27
ATOM     27  C   UNL     1     -33.969  25.742   4.072  0.00  0.00    -0.003 C 
ATOM     28  C   UNL     1     -33.179  26.800   3.642  0.00  0.00    -0.001 C 
ATOM     29  C   UNL     1     -34.190  25.520   5.425  0.00  0.00    -0.001 C 
ATOM     30  C   UNL     1     -32.599  27.652   4.583  0.00  0.00    +0.014 C 
ATOM     31  C   UNL     1     -33.611  26.372   6.365  0.00  0.00    +0.014 C 
ATOM     32  C   UNL     1     -32.816  27.437   5.944  0.00  0.00    +0.042 C 
BRANCH  32  33
ATOM     33  N   UNL     1     -32.231  28.300   6.895  0.00  0.00    -0.357 N 
ATOM     34  H   UNL     1     -32.578  28.324   7.816  0.00  0.00    +0.142 HD
ATOM     35  H   UNL     1     -31.476  28.878   6.638  0.00  0.00    +0.142 HD
ENDBRANCH  32  33
ENDBRANCH  26  27
ENDBRANCH  10  26
TORSDOF 7
ENDMDL
MODEL 8
REMARK VINA RESULT:      -6.8      6.140     11.108
REMARK  Name = 1970
REMARK  7 active torsions:
REMARK  status: ('A' for Active; 'I' for Inactive)
REMARK    1  A    between atoms: N_1  and  C_12
REMARK    2  A    between atoms: C_11  and  O_20
REMARK    3  A    between atoms: C_13  and  O_22
REMARK    4  A    between atoms: C_14  and  C_17
REMARK    5  A    between atoms: N_24  and  C_26
REMARK    6  A    between atoms: C_26  and  C_27
REMARK    7  A    between atoms: C_32  and  N_33
REMARK                            x       y       z     vdW  Elec       q    Type
REMARK                         _______ _______ _______ _____ _____    ______ ____
ROOT
ATOM      1  N   UNL     1     -34.977  28.659   2.434  0.00  0.00    -0.247 N 
ATOM      2  N   UNL     1     -35.153  30.876   2.612  0.00  0.00    -0.242 NA
ATOM      3  N   UNL     1     -36.738  28.233   0.816  0.00  0.00    -0.228 NA
ATOM      4  N   UNL     1     -37.848  30.300   0.146  0.00  0.00    -0.228 NA
ATOM      5  C   UNL     1     -35.991  29.028   1.595  0.00  0.00    +0.152 C 
ATOM      6  C   UNL     1     -34.506  29.805   3.023  0.00  0.00    +0.223 C 
ATOM      7  C   UNL     1     -36.083  30.405   1.719  0.00  0.00    +0.140 C 
ATOM      8  C   UNL     1     -37.056  31.042   0.956  0.00  0.00    +0.146 C 
ATOM      9  C   UNL     1     -37.643  28.960   0.127  0.00  0.00    +0.253 C 
ATOM     10  N   UNL     1     -37.219  32.437   1.019  0.00  0.00    -0.313 N 
ATOM     11  H   UNL     1     -36.629  32.952   1.616  0.00  0.00    +0.149 HD
ENDROOT
BRANCH   1  14
ATOM     12  O   UNL     1     -35.507  26.340   2.350  0.00  0.00    -0.326 OA
ATOM     13  C   UNL     1     -34.047  27.044   4.110  0.00  0.00    +0.187 C 
ATOM     14  C   UNL     1     -34.479  27.301   2.669  0.00  0.00    +0.225 C 
ATOM     15  C   UNL     1     -35.235  26.302   4.689  0.00  0.00    +0.178 C 
ATOM     16  C   UNL     1     -35.723  25.507   3.495  0.00  0.00    +0.222 C 
BRANCH  16  19
ATOM     17  O   UNL     1     -37.653  24.242   4.085  0.00  0.00    -0.272 OA
ATOM     18  N   UNL     1     -37.922  26.220   2.888  0.00  0.00    -0.301 N 
ATOM     19  C   UNL     1     -37.192  25.240   3.539  0.00  0.00    +0.252 C 
ATOM     20  C   UNL     1     -39.362  26.185   2.769  0.00  0.00    +0.111 C 
ATOM     21  H   UNL     1     -37.437  26.977   2.487  0.00  0.00    +0.150 HD
ENDBRANCH  16  19
BRANCH  13  22
ATOM     22  O   UNL     1     -32.897  26.198   4.074  0.00  0.00    -0.378 OA
ATOM     23  H   UNL     1     -33.177  25.277   3.963  0.00  0.00    +0.211 HD
ENDBRANCH  13  22
BRANCH  15  24
ATOM     24  O   UNL     1     -34.871  25.476   5.778  0.00  0.00    -0.379 OA
ATOM     25  H   UNL     1     -35.334  24.626   5.708  0.00  0.00    +0.211 HD
ENDBRANCH  15  24
ENDBRANCH   1  14
BRANCH  10  26
ATOM     26  C   UNL     1     -38.204  33.144   0.255  0.00  0.00    +0.115 C 
BRANCH  26  27
ATOM     27  C   UNL     1     -39.079  33.970   1.158  0.00  0.00    -0.003 C 
ATOM     28  C   UNL     1     -40.460  33.854   1.066  0.00  0.00    -0.001 C 
ATOM     29  C   UNL     1     -38.496  34.837   2.072  0.00  0.00    -0.001 C 
ATOM     30  C   UNL     1     -41.272  34.619   1.902  0.00  0.00    +0.014 C 
ATOM     31  C   UNL     1     -39.308  35.602   2.909  0.00  0.00    +0.014 C 
ATOM     32  C   UNL     1     -40.695  35.493   2.824  0.00  0.00    +0.042 C 
BRANCH  32  33
ATOM     33  N   UNL     1     -41.516  36.266   3.671  0.00  0.00    -0.357 N 
ATOM     34  H   UNL     1     -42.142  36.922   3.286  0.00  0.00    +0.142 HD
ATOM     35  H   UNL     1     -41.464  36.151   4.648  0.00  0.00    +0.142 HD
ENDBRANCH  32  33
ENDBRANCH  26  27
ENDBRANCH  10  26
TORSDOF 7
ENDMDL
MODEL 9
REMARK VINA RESULT:      -6.7      6.823      9.540
REMARK  Name = 1970
REMARK  7 active torsions:
REMARK  status: ('A' for Active; 'I' for Inactive)
REMARK    1  A    between atoms: N_1  and  C_12
REMARK    2  A    between atoms: C_11  and  O_20
REMARK    3  A    between atoms: C_13  and  O_22
REMARK    4  A    between atoms: C_14  and  C_17
REMARK    5  A    between atoms: N_24  and  C_26
REMARK    6  A    between atoms: C_26  and  C_27
REMARK    7  A    between atoms: C_32  and  N_33
REMARK                            x       y       z     vdW  Elec       q    Type
REMARK                         _______ _______ _______ _____ _____    ______ ____
ROOT
ATOM      1  N   UNL     1     -30.504  29.101   4.584  0.00  0.00    -0.247 N 
ATOM      2  N   UNL     1     -32.559  28.916   5.433  0.00  0.00    -0.242 NA
ATOM      3  N   UNL     1     -30.692  27.571   2.707  0.00  0.00    -0.228 NA
ATOM      4  N   UNL     1     -32.917  26.575   2.593  0.00  0.00    -0.228 NA
ATOM      5  C   UNL     1     -31.166  28.212   3.785  0.00  0.00    +0.152 C 
ATOM      6  C   UNL     1     -31.383  29.495   5.560  0.00  0.00    +0.223 C 
ATOM      7  C   UNL     1     -32.438  28.112   4.328  0.00  0.00    +0.140 C 
ATOM      8  C   UNL     1     -33.329  27.255   3.690  0.00  0.00    +0.146 C 
ATOM      9  C   UNL     1     -31.643  26.772   2.176  0.00  0.00    +0.253 C 
ATOM     10  N   UNL     1     -34.640  27.094   4.171  0.00  0.00    -0.313 N 
ATOM     11  H   UNL     1     -34.912  27.602   4.970  0.00  0.00    +0.149 HD
ENDROOT
BRANCH   1  14
ATOM     12  O   UNL     1     -28.221  28.583   5.017  0.00  0.00    -0.326 OA
ATOM     13  C   UNL     1     -28.832  30.894   5.106  0.00  0.00    +0.187 C 
ATOM     14  C   UNL     1     -29.118  29.553   4.437  0.00  0.00    +0.225 C 
ATOM     15  C   UNL     1     -28.162  30.486   6.403  0.00  0.00    +0.178 C 
ATOM     16  C   UNL     1     -27.400  29.244   5.987  0.00  0.00    +0.222 C 
BRANCH  16  19
ATOM     17  O   UNL     1     -27.142  28.639   8.276  0.00  0.00    -0.272 OA
ATOM     18  N   UNL     1     -27.143  26.965   6.659  0.00  0.00    -0.301 N 
ATOM     19  C   UNL     1     -27.222  28.273   7.107  0.00  0.00    +0.252 C 
ATOM     20  C   UNL     1     -26.949  25.837   7.542  0.00  0.00    +0.111 C 
ATOM     21  H   UNL     1     -27.223  26.796   5.693  0.00  0.00    +0.150 HD
ENDBRANCH  16  19
BRANCH  13  22
ATOM     22  O   UNL     1     -27.919  31.610   4.273  0.00  0.00    -0.378 OA
ATOM     23  H   UNL     1     -28.332  31.777   3.412  0.00  0.00    +0.211 HD
ENDBRANCH  13  22
BRANCH  15  24
ATOM     24  O   UNL     1     -27.315  31.499   6.908  0.00  0.00    -0.379 OA
ATOM     25  H   UNL     1     -27.764  31.966   7.630  0.00  0.00    +0.211 HD
ENDBRANCH  15  24
ENDBRANCH   1  14
BRANCH  10  26
ATOM     26  C   UNL     1     -35.598  26.226   3.554  0.00  0.00    +0.115 C 
BRANCH  26  27
ATOM     27  C   UNL     1     -35.524  24.848   4.152  0.00  0.00    -0.003 C 
ATOM     28  C   UNL     1     -35.628  23.737   3.326  0.00  0.00    -0.001 C 
ATOM     29  C   UNL     1     -35.351  24.704   5.522  0.00  0.00    -0.001 C 
ATOM     30  C   UNL     1     -35.560  22.459   3.880  0.00  0.00    +0.014 C 
ATOM     31  C   UNL     1     -35.282  23.426   6.076  0.00  0.00    +0.014 C 
ATOM     32  C   UNL     1     -35.387  22.304   5.255  0.00  0.00    +0.042 C 
BRANCH  32  33
ATOM     33  N   UNL     1     -35.316  21.011   5.816  0.00  0.00    -0.357 N 
ATOM     34  H   UNL     1     -35.454  20.220   5.247  0.00  0.00    +0.142 HD
ATOM     35  H   UNL     1     -35.129  20.901   6.777  0.00  0.00    +0.142 HD
ENDBRANCH  32  33
ENDBRANCH  26  27
ENDBRANCH  10  26
TORSDOF 7
ENDMDL
