MODEL 1
REMARK VINA RESULT:      -6.1      0.000      0.000
REMARK  Name = 214840
REMARK  8 active torsions:
REMARK  status: ('A' for Active; 'I' for Inactive)
REMARK    1  A    between atoms: CA_5  and  N_11
REMARK    2  A    between atoms: CA_7  and  C_25
REMARK    3  A    between atoms: C_8  and  C_26
REMARK    4  A    between atoms: C_12  and  C_14
REMARK    5  A    between atoms: C_14  and  S_15
REMARK    6  A    between atoms: S_15  and  C_17
REMARK    7  A    between atoms: C_26  and  O_27
REMARK    8  A    between atoms: O_27  and  C_29
REMARK                            x       y       z     vdW  Elec       q    Type
REMARK                         _______ _______ _______ _____ _____    ______ ____
ROOT
ATOM      1  S   UNL     1     -35.068  24.353   5.274  0.00  0.00    -0.114 S 
ATOM      2  O   UNL     1     -37.374  26.395   1.790  0.00  0.00    -0.273 OA
ATOM      3  N   UNL     1     -36.036  26.276   3.725  0.00  0.00    -0.242 N 
ATOM      4  C   UNL     1     -36.455  25.416   4.814  0.00  0.00    +0.155 C 
ATOM      5  CA  UNL     1     -37.480  24.824   3.821  0.00  0.00    +0.178 C 
ATOM      6  C   UNL     1     -37.037  25.977   2.872  0.00  0.00    +0.251 C 
ATOM      7  CA  UNL     1     -34.929  27.063   3.752  0.00  0.00    +0.131 C 
ATOM      8  C   UNL     1     -33.971  26.888   4.692  0.00  0.00    +0.030 C 
ATOM      9  C   UNL     1     -33.993  25.760   5.719  0.00  0.00    +0.086 C 
ENDROOT
BRANCH   5  11
ATOM     10  O   UNL     1     -39.315  23.203   2.286  0.00  0.00    -0.274 OA
ATOM     11  N   UNL     1     -37.233  23.490   3.273  0.00  0.00    -0.296 N 
ATOM     12  C   UNL     1     -38.187  22.785   2.542  0.00  0.00    +0.234 C 
ATOM     13  H   UNL     1     -36.355  23.073   3.427  0.00  0.00    +0.150 HD
BRANCH  12  14
ATOM     14  C   UNL     1     -37.706  21.438   2.061  0.00  0.00    +0.147 C 
BRANCH  14  15
ATOM     15  S   UNL     1     -35.980  21.221   2.555  0.00  0.00    -0.104 S 
BRANCH  15  17
ATOM     16  N   UNL     1     -34.637  17.925  -0.231  0.00  0.00    -0.301 N 
ATOM     17  C   UNL     1     -35.447  19.916   1.451  0.00  0.00    +0.024 C 
ATOM     18  C   UNL     1     -36.348  19.355   0.550  0.00  0.00    +0.001 C 
ATOM     19  C   UNL     1     -34.134  19.460   1.493  0.00  0.00    +0.022 C 
ATOM     20  C   UNL     1     -35.908  18.345  -0.293  0.00  0.00    +0.118 C 
ATOM     21  C   UNL     1     -33.750  18.446   0.626  0.00  0.00    +0.062 C 
ATOM     22  C   UNL     1     -34.203  16.859  -1.132  0.00  0.00    +0.113 C 
ENDBRANCH  15  17
ENDBRANCH  14  15
ENDBRANCH  12  14
ENDBRANCH   5  11
BRANCH   7  25
ATOM     23  O   UNL     1     -35.172  29.273   3.000  0.00  0.00    -0.239 OA
ATOM     24  OXT UNL     1     -34.254  27.714   1.601  0.00  0.00    -0.239 OA
ATOM     25  C   UNL     1     -34.769  28.127   2.672  0.00  0.00    +0.401 C 
ENDBRANCH   7  25
BRANCH   8  26
ATOM     26  C   UNL     1     -32.721  27.729   4.815  0.00  0.00    +0.233 C 
BRANCH  26  27
ATOM     27  O   UNL     1     -32.111  27.477   6.062  0.00  0.00    -0.444 OA
BRANCH  27  29
ATOM     28  O   UNL     1     -29.858  27.922   6.311  0.00  0.00    -0.250 OA
ATOM     29  C   UNL     1     -31.031  28.262   6.377  0.00  0.00    +0.318 C 
ATOM     30  C   UNL     1     -31.488  29.621   6.818  0.00  0.00    +0.121 C 
ENDBRANCH  27  29
ENDBRANCH  26  27
ENDBRANCH   8  26
TORSDOF 8
ENDMDL
MODEL 2
REMARK VINA RESULT:      -6.0      3.340      5.991
REMARK  Name = 214840
REMARK  8 active torsions:
REMARK  status: ('A' for Active; 'I' for Inactive)
REMARK    1  A    between atoms: CA_5  and  N_11
REMARK    2  A    between atoms: CA_7  and  C_25
REMARK    3  A    between atoms: C_8  and  C_26
REMARK    4  A    between atoms: C_12  and  C_14
REMARK    5  A    between atoms: C_14  and  S_15
REMARK    6  A    between atoms: S_15  and  C_17
REMARK    7  A    between atoms: C_26  and  O_27
REMARK    8  A    between atoms: O_27  and  C_29
REMARK                            x       y       z     vdW  Elec       q    Type
REMARK                         _______ _______ _______ _____ _____    ______ ____
ROOT
ATOM      1  S   UNL     1     -35.965  24.136   0.995  0.00  0.00    -0.114 S 
ATOM      2  O   UNL     1     -36.106  23.351   5.577  0.00  0.00    -0.273 OA
ATOM      3  N   UNL     1     -35.212  24.122   3.538  0.00  0.00    -0.242 N 
ATOM      4  C   UNL     1     -35.236  23.242   2.386  0.00  0.00    +0.155 C 
ATOM      5  CA  UNL     1     -36.192  22.351   3.211  0.00  0.00    +0.178 C 
ATOM      6  C   UNL     1     -35.851  23.301   4.397  0.00  0.00    +0.251 C 
ATOM      7  CA  UNL     1     -34.667  25.365   3.542  0.00  0.00    +0.131 C 
ATOM      8  C   UNL     1     -34.357  25.995   2.384  0.00  0.00    +0.030 C 
ATOM      9  C   UNL     1     -34.673  25.426   1.003  0.00  0.00    +0.086 C 
ENDROOT
BRANCH   5  11
ATOM     10  O   UNL     1     -37.508  20.601   1.326  0.00  0.00    -0.274 OA
ATOM     11  N   UNL     1     -37.612  22.339   2.863  0.00  0.00    -0.296 N 
ATOM     12  C   UNL     1     -38.155  21.451   1.935  0.00  0.00    +0.234 C 
ATOM     13  H   UNL     1     -38.210  22.985   3.301  0.00  0.00    +0.150 HD
BRANCH  12  14
ATOM     14  C   UNL     1     -39.645  21.608   1.748  0.00  0.00    +0.147 C 
BRANCH  14  15
ATOM     15  S   UNL     1     -39.946  22.821   0.441  0.00  0.00    -0.104 S 
BRANCH  15  17
ATOM     16  N   UNL     1     -41.721  26.259   2.780  0.00  0.00    -0.301 N 
ATOM     17  C   UNL     1     -40.649  24.184   1.367  0.00  0.00    +0.024 C 
ATOM     18  C   UNL     1     -39.957  24.723   2.448  0.00  0.00    +0.001 C 
ATOM     19  C   UNL     1     -41.888  24.704   1.009  0.00  0.00    +0.022 C 
ATOM     20  C   UNL     1     -40.526  25.778   3.147  0.00  0.00    +0.118 C 
ATOM     21  C   UNL     1     -42.409  25.759   1.745  0.00  0.00    +0.062 C 
ATOM     22  C   UNL     1     -42.295  27.370   3.536  0.00  0.00    +0.113 C 
ENDBRANCH  15  17
ENDBRANCH  14  15
ENDBRANCH  12  14
ENDBRANCH   5  11
BRANCH   7  25
ATOM     23  O   UNL     1     -33.306  25.883   5.382  0.00  0.00    -0.239 OA
ATOM     24  OXT UNL     1     -35.436  26.711   5.304  0.00  0.00    -0.239 OA
ATOM     25  C   UNL     1     -34.447  26.058   4.882  0.00  0.00    +0.401 C 
ENDBRANCH   7  25
BRANCH   8  26
ATOM     26  C   UNL     1     -33.727  27.365   2.290  0.00  0.00    +0.233 C 
BRANCH  26  27
ATOM     27  O   UNL     1     -34.742  28.338   2.171  0.00  0.00    -0.444 OA
BRANCH  27  29
ATOM     28  O   UNL     1     -33.724  29.665   3.765  0.00  0.00    -0.250 OA
ATOM     29  C   UNL     1     -34.562  29.492   2.890  0.00  0.00    +0.318 C 
ATOM     30  C   UNL     1     -35.545  30.536   2.453  0.00  0.00    +0.121 C 
ENDBRANCH  27  29
ENDBRANCH  26  27
ENDBRANCH   8  26
TORSDOF 8
ENDMDL
MODEL 3
REMARK VINA RESULT:      -5.9      3.209      5.675
REMARK  Name = 214840
REMARK  8 active torsions:
REMARK  status: ('A' for Active; 'I' for Inactive)
REMARK    1  A    between atoms: CA_5  and  N_11
REMARK    2  A    between atoms: CA_7  and  C_25
REMARK    3  A    between atoms: C_8  and  C_26
REMARK    4  A    between atoms: C_12  and  C_14
REMARK    5  A    between atoms: C_14  and  S_15
REMARK    6  A    between atoms: S_15  and  C_17
REMARK    7  A    between atoms: C_26  and  O_27
REMARK    8  A    between atoms: O_27  and  C_29
REMARK                            x       y       z     vdW  Elec       q    Type
REMARK                         _______ _______ _______ _____ _____    ______ ____
ROOT
ATOM      1  S   UNL     1     -36.051  24.370   1.316  0.00  0.00    -0.114 S 
ATOM      2  O   UNL     1     -36.037  23.089   5.787  0.00  0.00    -0.273 OA
ATOM      3  N   UNL     1     -35.235  24.122   3.828  0.00  0.00    -0.242 N 
ATOM      4  C   UNL     1     -35.242  23.371   2.587  0.00  0.00    +0.155 C 
ATOM      5  CA  UNL     1     -36.130  22.346   3.328  0.00  0.00    +0.178 C 
ATOM      6  C   UNL     1     -35.809  23.180   4.604  0.00  0.00    +0.251 C 
ATOM      7  CA  UNL     1     -34.754  25.385   3.956  0.00  0.00    +0.131 C 
ATOM      8  C   UNL     1     -34.505  26.151   2.868  0.00  0.00    +0.030 C 
ATOM      9  C   UNL     1     -34.826  25.719   1.440  0.00  0.00    +0.086 C 
ENDROOT
BRANCH   5  11
ATOM     10  O   UNL     1     -37.398  20.765   1.270  0.00  0.00    -0.274 OA
ATOM     11  N   UNL     1     -37.556  22.296   3.008  0.00  0.00    -0.296 N 
ATOM     12  C   UNL     1     -38.074  21.497   1.990  0.00  0.00    +0.234 C 
ATOM     13  H   UNL     1     -38.177  22.850   3.533  0.00  0.00    +0.150 HD
BRANCH  12  14
ATOM     14  C   UNL     1     -39.575  21.591   1.852  0.00  0.00    +0.147 C 
BRANCH  14  15
ATOM     15  S   UNL     1     -39.969  22.725   0.500  0.00  0.00    -0.104 S 
BRANCH  15  17
ATOM     16  N   UNL     1     -41.729  26.239   2.734  0.00  0.00    -0.301 N 
ATOM     17  C   UNL     1     -40.666  24.117   1.386  0.00  0.00    +0.024 C 
ATOM     18  C   UNL     1     -41.838  24.714   0.933  0.00  0.00    +0.001 C 
ATOM     19  C   UNL     1     -40.037  24.603   2.527  0.00  0.00    +0.022 C 
ATOM     20  C   UNL     1     -42.356  25.791   1.638  0.00  0.00    +0.118 C 
ATOM     21  C   UNL     1     -40.599  25.683   3.193  0.00  0.00    +0.062 C 
ATOM     22  C   UNL     1     -42.297  27.374   3.457  0.00  0.00    +0.113 C 
ENDBRANCH  15  17
ENDBRANCH  14  15
ENDBRANCH  12  14
ENDBRANCH   5  11
BRANCH   7  25
ATOM     23  O   UNL     1     -35.564  26.425   5.897  0.00  0.00    -0.239 OA
ATOM     24  OXT UNL     1     -33.357  25.836   5.787  0.00  0.00    -0.239 OA
ATOM     25  C   UNL     1     -34.536  25.940   5.359  0.00  0.00    +0.401 C 
ENDBRANCH   7  25
BRANCH   8  26
ATOM     26  C   UNL     1     -33.948  27.555   2.912  0.00  0.00    +0.233 C 
BRANCH  26  27
ATOM     27  O   UNL     1     -32.540  27.502   2.833  0.00  0.00    -0.444 OA
BRANCH  27  29
ATOM     28  O   UNL     1     -30.919  27.796   4.452  0.00  0.00    -0.250 OA
ATOM     29  C   UNL     1     -31.854  28.215   3.783  0.00  0.00    +0.318 C 
ATOM     30  C   UNL     1     -32.409  29.603   3.892  0.00  0.00    +0.121 C 
ENDBRANCH  27  29
ENDBRANCH  26  27
ENDBRANCH   8  26
TORSDOF 8
ENDMDL
MODEL 4
REMARK VINA RESULT:      -5.9      5.853      9.784
REMARK  Name = 214840
REMARK  8 active torsions:
REMARK  status: ('A' for Active; 'I' for Inactive)
REMARK    1  A    between atoms: CA_5  and  N_11
REMARK    2  A    between atoms: CA_7  and  C_25
REMARK    3  A    between atoms: C_8  and  C_26
REMARK    4  A    between atoms: C_12  and  C_14
REMARK    5  A    between atoms: C_14  and  S_15
REMARK    6  A    between atoms: S_15  and  C_17
REMARK    7  A    between atoms: C_26  and  O_27
REMARK    8  A    between atoms: O_27  and  C_29
REMARK                            x       y       z     vdW  Elec       q    Type
REMARK                         _______ _______ _______ _____ _____    ______ ____
ROOT
ATOM      1  S   UNL     1     -38.835  25.925   2.788  0.00  0.00    -0.114 S 
ATOM      2  O   UNL     1     -41.962  23.465   0.380  0.00  0.00    -0.273 OA
ATOM      3  N   UNL     1     -39.837  24.033   1.222  0.00  0.00    -0.242 N 
ATOM      4  C   UNL     1     -39.401  25.414   1.150  0.00  0.00    +0.155 C 
ATOM      5  CA  UNL     1     -40.865  25.753   0.788  0.00  0.00    +0.178 C 
ATOM      6  C   UNL     1     -41.067  24.212   0.699  0.00  0.00    +0.251 C 
ATOM      7  CA  UNL     1     -39.082  23.016   1.712  0.00  0.00    +0.131 C 
ATOM      8  C   UNL     1     -37.966  23.261   2.438  0.00  0.00    +0.030 C 
ATOM      9  C   UNL     1     -37.518  24.661   2.849  0.00  0.00    +0.086 C 
ENDROOT
BRANCH   5  11
ATOM     10  O   UNL     1     -42.133  28.343   0.613  0.00  0.00    -0.274 OA
ATOM     11  N   UNL     1     -41.704  26.394   1.800  0.00  0.00    -0.296 N 
ATOM     12  C   UNL     1     -42.274  27.653   1.621  0.00  0.00    +0.234 C 
ATOM     13  H   UNL     1     -41.874  25.916   2.643  0.00  0.00    +0.150 HD
BRANCH  12  14
ATOM     14  C   UNL     1     -43.117  28.107   2.789  0.00  0.00    +0.147 C 
BRANCH  14  15
ATOM     15  S   UNL     1     -44.216  26.757   3.277  0.00  0.00    -0.104 S 
BRANCH  15  17
ATOM     16  N   UNL     1     -45.758  28.231   7.263  0.00  0.00    -0.301 N 
ATOM     17  C   UNL     1     -44.828  27.341   4.856  0.00  0.00    +0.024 C 
ATOM     18  C   UNL     1     -44.598  28.656   5.249  0.00  0.00    +0.001 C 
ATOM     19  C   UNL     1     -45.532  26.481   5.692  0.00  0.00    +0.022 C 
ATOM     20  C   UNL     1     -45.083  29.081   6.477  0.00  0.00    +0.118 C 
ATOM     21  C   UNL     1     -45.993  26.961   6.910  0.00  0.00    +0.062 C 
ATOM     22  C   UNL     1     -46.257  28.708   8.551  0.00  0.00    +0.113 C 
ENDBRANCH  15  17
ENDBRANCH  14  15
ENDBRANCH  12  14
ENDBRANCH   5  11
BRANCH   7  25
ATOM     23  O   UNL     1     -39.030  21.041   0.446  0.00  0.00    -0.239 OA
ATOM     24  OXT UNL     1     -40.367  21.142   2.299  0.00  0.00    -0.239 OA
ATOM     25  C   UNL     1     -39.541  21.584   1.459  0.00  0.00    +0.401 C 
ENDBRANCH   7  25
BRANCH   8  26
ATOM     26  C   UNL     1     -37.053  22.197   3.001  0.00  0.00    +0.233 C 
BRANCH  26  27
ATOM     27  O   UNL     1     -36.413  22.695   4.155  0.00  0.00    -0.444 OA
BRANCH  27  29
ATOM     28  O   UNL     1     -35.082  20.815   4.335  0.00  0.00    -0.250 OA
ATOM     29  C   UNL     1     -35.589  21.820   4.816  0.00  0.00    +0.318 C 
ATOM     30  C   UNL     1     -35.384  22.267   6.232  0.00  0.00    +0.121 C 
ENDBRANCH  27  29
ENDBRANCH  26  27
ENDBRANCH   8  26
TORSDOF 8
ENDMDL
MODEL 5
REMARK VINA RESULT:      -5.7      2.348      3.483
REMARK  Name = 214840
REMARK  8 active torsions:
REMARK  status: ('A' for Active; 'I' for Inactive)
REMARK    1  A    between atoms: CA_5  and  N_11
REMARK    2  A    between atoms: CA_7  and  C_25
REMARK    3  A    between atoms: C_8  and  C_26
REMARK    4  A    between atoms: C_12  and  C_14
REMARK    5  A    between atoms: C_14  and  S_15
REMARK    6  A    between atoms: S_15  and  C_17
REMARK    7  A    between atoms: C_26  and  O_27
REMARK    8  A    between atoms: O_27  and  C_29
REMARK                            x       y       z     vdW  Elec       q    Type
REMARK                         _______ _______ _______ _____ _____    ______ ____
ROOT
ATOM      1  S   UNL     1     -35.690  22.183   3.959  0.00  0.00    -0.114 S 
ATOM      2  O   UNL     1     -37.441  24.124   0.113  0.00  0.00    -0.273 OA
ATOM      3  N   UNL     1     -37.042  23.868   2.420  0.00  0.00    -0.242 N 
ATOM      4  C   UNL     1     -37.185  22.553   3.014  0.00  0.00    +0.155 C 
ATOM      5  CA  UNL     1     -37.238  22.014   1.567  0.00  0.00    +0.178 C 
ATOM      6  C   UNL     1     -37.303  23.512   1.146  0.00  0.00    +0.251 C 
ATOM      7  CA  UNL     1     -36.727  24.992   3.114  0.00  0.00    +0.131 C 
ATOM      8  C   UNL     1     -36.240  24.921   4.375  0.00  0.00    +0.030 C 
ATOM      9  C   UNL     1     -35.912  23.608   5.080  0.00  0.00    +0.086 C 
ENDROOT
BRANCH   5  11
ATOM     10  O   UNL     1     -37.194  19.413   0.310  0.00  0.00    -0.274 OA
ATOM     11  N   UNL     1     -36.070  21.310   1.040  0.00  0.00    -0.296 N 
ATOM     12  C   UNL     1     -36.151  20.050   0.448  0.00  0.00    +0.234 C 
ATOM     13  H   UNL     1     -35.189  21.743   1.106  0.00  0.00    +0.150 HD
BRANCH  12  14
ATOM     14  C   UNL     1     -34.823  19.525  -0.039  0.00  0.00    +0.147 C 
BRANCH  14  15
ATOM     15  S   UNL     1     -33.728  19.291   1.381  0.00  0.00    -0.104 S 
BRANCH  15  17
ATOM     16  N   UNL     1     -31.013  15.990  -0.091  0.00  0.00    -0.301 N 
ATOM     17  C   UNL     1     -32.652  17.984   0.797  0.00  0.00    +0.024 C 
ATOM     18  C   UNL     1     -33.196  16.809   0.285  0.00  0.00    +0.001 C 
ATOM     19  C   UNL     1     -31.271  18.139   0.855  0.00  0.00    +0.022 C 
ATOM     20  C   UNL     1     -32.339  15.813  -0.159  0.00  0.00    +0.118 C 
ATOM     21  C   UNL     1     -30.462  17.109   0.396  0.00  0.00    +0.062 C 
ATOM     22  C   UNL     1     -30.135  14.923  -0.567  0.00  0.00    +0.113 C 
ENDBRANCH  15  17
ENDBRANCH  14  15
ENDBRANCH  12  14
ENDBRANCH   5  11
BRANCH   7  25
ATOM     23  O   UNL     1     -38.081  26.769   2.395  0.00  0.00    -0.239 OA
ATOM     24  OXT UNL     1     -35.832  26.845   1.985  0.00  0.00    -0.239 OA
ATOM     25  C   UNL     1     -36.898  26.342   2.426  0.00  0.00    +0.401 C 
ENDBRANCH   7  25
BRANCH   8  26
ATOM     26  C   UNL     1     -35.886  26.115   5.231  0.00  0.00    +0.233 C 
BRANCH  26  27
ATOM     27  O   UNL     1     -34.741  25.815   6.000  0.00  0.00    -0.444 OA
BRANCH  27  29
ATOM     28  O   UNL     1     -33.143  26.488   4.472  0.00  0.00    -0.250 OA
ATOM     29  C   UNL     1     -33.576  26.429   5.615  0.00  0.00    +0.318 C 
ATOM     30  C   UNL     1     -32.891  27.033   6.804  0.00  0.00    +0.121 C 
ENDBRANCH  27  29
ENDBRANCH  26  27
ENDBRANCH   8  26
TORSDOF 8
ENDMDL
MODEL 6
REMARK VINA RESULT:      -5.7      3.195      8.217
REMARK  Name = 214840
REMARK  8 active torsions:
REMARK  status: ('A' for Active; 'I' for Inactive)
REMARK    1  A    between atoms: CA_5  and  N_11
REMARK    2  A    between atoms: CA_7  and  C_25
REMARK    3  A    between atoms: C_8  and  C_26
REMARK    4  A    between atoms: C_12  and  C_14
REMARK    5  A    between atoms: C_14  and  S_15
REMARK    6  A    between atoms: S_15  and  C_17
REMARK    7  A    between atoms: C_26  and  O_27
REMARK    8  A    between atoms: O_27  and  C_29
REMARK                            x       y       z     vdW  Elec       q    Type
REMARK                         _______ _______ _______ _____ _____    ______ ____
ROOT
ATOM      1  S   UNL     1     -36.440  24.263   1.137  0.00  0.00    -0.114 S 
ATOM      2  O   UNL     1     -36.247  25.846   5.505  0.00  0.00    -0.273 OA
ATOM      3  N   UNL     1     -36.549  24.263   3.787  0.00  0.00    -0.242 N 
ATOM      4  C   UNL     1     -37.369  24.617   2.645  0.00  0.00    +0.155 C 
ATOM      5  CA  UNL     1     -37.303  26.068   3.173  0.00  0.00    +0.178 C 
ATOM      6  C   UNL     1     -36.627  25.446   4.430  0.00  0.00    +0.251 C 
ATOM      7  CA  UNL     1     -35.962  23.051   3.962  0.00  0.00    +0.131 C 
ATOM      8  C   UNL     1     -35.862  22.169   2.941  0.00  0.00    +0.030 C 
ATOM      9  C   UNL     1     -36.296  22.481   1.511  0.00  0.00    +0.086 C 
ENDROOT
BRANCH   5  11
ATOM     10  O   UNL     1     -38.088  27.850   1.039  0.00  0.00    -0.274 OA
ATOM     11  N   UNL     1     -36.454  27.029   2.470  0.00  0.00    -0.296 N 
ATOM     12  C   UNL     1     -36.928  27.850   1.447  0.00  0.00    +0.234 C 
ATOM     13  H   UNL     1     -35.507  27.100   2.729  0.00  0.00    +0.150 HD
BRANCH  12  14
ATOM     14  C   UNL     1     -35.880  28.775   0.879  0.00  0.00    +0.147 C 
BRANCH  14  15
ATOM     15  S   UNL     1     -34.272  27.950   0.944  0.00  0.00    -0.104 S 
BRANCH  15  17
ATOM     16  N   UNL     1     -32.251  30.149   4.338  0.00  0.00    -0.301 N 
ATOM     17  C   UNL     1     -33.471  28.821   2.288  0.00  0.00    +0.024 C 
ATOM     18  C   UNL     1     -32.420  28.224   2.978  0.00  0.00    +0.001 C 
ATOM     19  C   UNL     1     -33.900  30.095   2.646  0.00  0.00    +0.022 C 
ATOM     20  C   UNL     1     -31.818  28.923   4.015  0.00  0.00    +0.118 C 
ATOM     21  C   UNL     1     -33.261  30.747   3.692  0.00  0.00    +0.062 C 
ATOM     22  C   UNL     1     -31.599  30.860   5.435  0.00  0.00    +0.113 C 
ENDBRANCH  15  17
ENDBRANCH  14  15
ENDBRANCH  12  14
ENDBRANCH   5  11
BRANCH   7  25
ATOM     23  O   UNL     1     -34.171  23.034   5.478  0.00  0.00    -0.239 OA
ATOM     24  OXT UNL     1     -36.188  22.174   6.127  0.00  0.00    -0.239 OA
ATOM     25  C   UNL     1     -35.379  22.718   5.331  0.00  0.00    +0.401 C 
ENDBRANCH   7  25
BRANCH   8  26
ATOM     26  C   UNL     1     -35.249  20.792   3.048  0.00  0.00    +0.233 C 
BRANCH  26  27
ATOM     27  O   UNL     1     -35.152  20.223   1.760  0.00  0.00    -0.444 OA
BRANCH  27  29
ATOM     28  O   UNL     1     -33.405  18.714   1.835  0.00  0.00    -0.250 OA
ATOM     29  C   UNL     1     -33.920  19.737   1.404  0.00  0.00    +0.318 C 
ATOM     30  C   UNL     1     -33.276  20.642   0.397  0.00  0.00    +0.121 C 
ENDBRANCH  27  29
ENDBRANCH  26  27
ENDBRANCH   8  26
TORSDOF 8
ENDMDL
MODEL 7
REMARK VINA RESULT:      -5.6      3.935      8.351
REMARK  Name = 214840
REMARK  8 active torsions:
REMARK  status: ('A' for Active; 'I' for Inactive)
REMARK    1  A    between atoms: CA_5  and  N_11
REMARK    2  A    between atoms: CA_7  and  C_25
REMARK    3  A    between atoms: C_8  and  C_26
REMARK    4  A    between atoms: C_12  and  C_14
REMARK    5  A    between atoms: C_14  and  S_15
REMARK    6  A    between atoms: S_15  and  C_17
REMARK    7  A    between atoms: C_26  and  O_27
REMARK    8  A    between atoms: O_27  and  C_29
REMARK                            x       y       z     vdW  Elec       q    Type
REMARK                         _______ _______ _______ _____ _____    ______ ____
ROOT
ATOM      1  S   UNL     1     -34.481  26.097   2.327  0.00  0.00    -0.114 S 
ATOM      2  O   UNL     1     -38.921  27.215   1.514  0.00  0.00    -0.273 OA
ATOM      3  N   UNL     1     -37.015  25.834   1.587  0.00  0.00    -0.242 N 
ATOM      4  C   UNL     1     -35.759  26.346   1.074  0.00  0.00    +0.155 C 
ATOM      5  CA  UNL     1     -36.446  27.730   1.054  0.00  0.00    +0.178 C 
ATOM      6  C   UNL     1     -37.749  26.948   1.391  0.00  0.00    +0.251 C 
ATOM      7  CA  UNL     1     -37.187  24.581   2.080  0.00  0.00    +0.131 C 
ATOM      8  C   UNL     1     -36.125  23.802   2.396  0.00  0.00    +0.030 C 
ATOM      9  C   UNL     1     -34.677  24.281   2.326  0.00  0.00    +0.086 C 
ENDROOT
BRANCH   5  11
ATOM     10  O   UNL     1     -34.949  30.170   0.660  0.00  0.00    -0.274 OA
ATOM     11  N   UNL     1     -36.073  28.710   2.073  0.00  0.00    -0.296 N 
ATOM     12  C   UNL     1     -35.346  29.863   1.782  0.00  0.00    +0.234 C 
ATOM     13  H   UNL     1     -36.348  28.549   3.004  0.00  0.00    +0.150 HD
BRANCH  12  14
ATOM     14  C   UNL     1     -35.093  30.738   2.986  0.00  0.00    +0.147 C 
BRANCH  14  15
ATOM     15  S   UNL     1     -33.539  31.632   2.745  0.00  0.00    -0.104 S 
BRANCH  15  17
ATOM     16  N   UNL     1     -30.737  29.345   5.458  0.00  0.00    -0.301 N 
ATOM     17  C   UNL     1     -32.430  30.726   3.820  0.00  0.00    +0.024 C 
ATOM     18  C   UNL     1     -31.416  31.395   4.500  0.00  0.00    +0.001 C 
ATOM     19  C   UNL     1     -32.578  29.352   3.977  0.00  0.00    +0.022 C 
ATOM     20  C   UNL     1     -30.571  30.668   5.325  0.00  0.00    +0.118 C 
ATOM     21  C   UNL     1     -31.703  28.675   4.816  0.00  0.00    +0.062 C 
ATOM     22  C   UNL     1     -29.832  28.606   6.334  0.00  0.00    +0.113 C 
ENDBRANCH  15  17
ENDBRANCH  14  15
ENDBRANCH  12  14
ENDBRANCH   5  11
BRANCH   7  25
ATOM     23  O   UNL     1     -39.071  24.318   3.453  0.00  0.00    -0.239 OA
ATOM     24  OXT UNL     1     -39.124  23.496   1.320  0.00  0.00    -0.239 OA
ATOM     25  C   UNL     1     -38.608  24.079   2.309  0.00  0.00    +0.401 C 
ENDBRANCH   7  25
BRANCH   8  26
ATOM     26  C   UNL     1     -36.219  22.391   2.926  0.00  0.00    +0.233 C 
BRANCH  26  27
ATOM     27  O   UNL     1     -36.482  22.429   4.312  0.00  0.00    -0.444 OA
BRANCH  27  29
ATOM     28  O   UNL     1     -35.030  20.857   5.185  0.00  0.00    -0.250 OA
ATOM     29  C   UNL     1     -35.470  21.998   5.132  0.00  0.00    +0.318 C 
ATOM     30  C   UNL     1     -34.962  23.132   5.971  0.00  0.00    +0.121 C 
ENDBRANCH  27  29
ENDBRANCH  26  27
ENDBRANCH   8  26
TORSDOF 8
ENDMDL
MODEL 8
REMARK VINA RESULT:      -5.5      1.769      2.236
REMARK  Name = 214840
REMARK  8 active torsions:
REMARK  status: ('A' for Active; 'I' for Inactive)
REMARK    1  A    between atoms: CA_5  and  N_11
REMARK    2  A    between atoms: CA_7  and  C_25
REMARK    3  A    between atoms: C_8  and  C_26
REMARK    4  A    between atoms: C_12  and  C_14
REMARK    5  A    between atoms: C_14  and  S_15
REMARK    6  A    between atoms: S_15  and  C_17
REMARK    7  A    between atoms: C_26  and  O_27
REMARK    8  A    between atoms: O_27  and  C_29
REMARK                            x       y       z     vdW  Elec       q    Type
REMARK                         _______ _______ _______ _____ _____    ______ ____
ROOT
ATOM      1  S   UNL     1     -34.282  24.699   4.835  0.00  0.00    -0.114 S 
ATOM      2  O   UNL     1     -37.290  25.154   1.318  0.00  0.00    -0.273 OA
ATOM      3  N   UNL     1     -35.938  25.854   3.115  0.00  0.00    -0.242 N 
ATOM      4  C   UNL     1     -35.976  25.103   4.355  0.00  0.00    +0.155 C 
ATOM      5  CA  UNL     1     -36.745  24.023   3.560  0.00  0.00    +0.178 C 
ATOM      6  C   UNL     1     -36.787  25.076   2.414  0.00  0.00    +0.251 C 
ATOM      7  CA  UNL     1     -35.197  26.975   2.922  0.00  0.00    +0.131 C 
ATOM      8  C   UNL     1     -34.211  27.318   3.784  0.00  0.00    +0.030 C 
ATOM      9  C   UNL     1     -33.783  26.451   4.965  0.00  0.00    +0.086 C 
ENDROOT
BRANCH   5  11
ATOM     10  O   UNL     1     -37.855  21.720   2.214  0.00  0.00    -0.274 OA
ATOM     11  N   UNL     1     -36.044  22.792   3.196  0.00  0.00    -0.296 N 
ATOM     12  C   UNL     1     -36.670  21.730   2.544  0.00  0.00    +0.234 C 
ATOM     13  H   UNL     1     -35.090  22.709   3.420  0.00  0.00    +0.150 HD
BRANCH  12  14
ATOM     14  C   UNL     1     -35.748  20.572   2.252  0.00  0.00    +0.147 C 
BRANCH  14  15
ATOM     15  S   UNL     1     -35.187  20.687   0.536  0.00  0.00    -0.104 S 
BRANCH  15  17
ATOM     16  N   UNL     1     -31.199  18.567   0.732  0.00  0.00    -0.301 N 
ATOM     17  C   UNL     1     -33.607  19.848   0.615  0.00  0.00    +0.024 C 
ATOM     18  C   UNL     1     -32.492  20.402  -0.006  0.00  0.00    +0.001 C 
ATOM     19  C   UNL     1     -33.493  18.640   1.295  0.00  0.00    +0.022 C 
ATOM     20  C   UNL     1     -31.281  19.729   0.070  0.00  0.00    +0.118 C 
ATOM     21  C   UNL     1     -32.256  18.011   1.338  0.00  0.00    +0.062 C 
ATOM     22  C   UNL     1     -29.911  17.882   0.796  0.00  0.00    +0.113 C 
ENDBRANCH  15  17
ENDBRANCH  14  15
ENDBRANCH  12  14
ENDBRANCH   5  11
BRANCH   7  25
ATOM     23  O   UNL     1     -34.772  27.535   0.683  0.00  0.00    -0.239 OA
ATOM     24  OXT UNL     1     -36.367  28.697   1.838  0.00  0.00    -0.239 OA
ATOM     25  C   UNL     1     -35.473  27.824   1.686  0.00  0.00    +0.401 C 
ENDBRANCH   7  25
BRANCH   8  26
ATOM     26  C   UNL     1     -33.353  28.556   3.663  0.00  0.00    +0.233 C 
BRANCH  26  27
ATOM     27  O   UNL     1     -32.942  28.966   4.950  0.00  0.00    -0.444 OA
BRANCH  27  29
ATOM     28  O   UNL     1     -30.643  28.763   4.852  0.00  0.00    -0.250 OA
ATOM     29  C   UNL     1     -31.653  29.423   5.057  0.00  0.00    +0.318 C 
ATOM     30  C   UNL     1     -31.645  30.866   5.462  0.00  0.00    +0.121 C 
ENDBRANCH  27  29
ENDBRANCH  26  27
ENDBRANCH   8  26
TORSDOF 8
ENDMDL
MODEL 9
REMARK VINA RESULT:      -5.5      5.036      9.998
REMARK  Name = 214840
REMARK  8 active torsions:
REMARK  status: ('A' for Active; 'I' for Inactive)
REMARK    1  A    between atoms: CA_5  and  N_11
REMARK    2  A    between atoms: CA_7  and  C_25
REMARK    3  A    between atoms: C_8  and  C_26
REMARK    4  A    between atoms: C_12  and  C_14
REMARK    5  A    between atoms: C_14  and  S_15
REMARK    6  A    between atoms: S_15  and  C_17
REMARK    7  A    between atoms: C_26  and  O_27
REMARK    8  A    between atoms: O_27  and  C_29
REMARK                            x       y       z     vdW  Elec       q    Type
REMARK                         _______ _______ _______ _____ _____    ______ ____
ROOT
ATOM      1  S   UNL     1     -34.270  27.416   3.396  0.00  0.00    -0.114 S 
ATOM      2  O   UNL     1     -38.104  27.806   0.792  0.00  0.00    -0.273 OA
ATOM      3  N   UNL     1     -36.432  26.705   2.033  0.00  0.00    -0.242 N 
ATOM      4  C   UNL     1     -35.044  27.055   1.803  0.00  0.00    +0.155 C 
ATOM      5  CA  UNL     1     -35.584  28.265   1.008  0.00  0.00    +0.178 C 
ATOM      6  C   UNL     1     -36.978  27.594   1.179  0.00  0.00    +0.251 C 
ATOM      7  CA  UNL     1     -36.846  25.744   2.898  0.00  0.00    +0.131 C 
ATOM      8  C   UNL     1     -36.006  25.232   3.828  0.00  0.00    +0.030 C 
ATOM      9  C   UNL     1     -34.585  25.742   4.054  0.00  0.00    +0.086 C 
ENDROOT
BRANCH   5  11
ATOM     10  O   UNL     1     -35.322  30.791  -0.370  0.00  0.00    -0.274 OA
ATOM     11  N   UNL     1     -35.498  29.594   1.612  0.00  0.00    -0.296 N 
ATOM     12  C   UNL     1     -35.372  30.760   0.858  0.00  0.00    +0.234 C 
ATOM     13  H   UNL     1     -35.529  29.668   2.593  0.00  0.00    +0.150 HD
BRANCH  12  14
ATOM     14  C   UNL     1     -35.319  32.016   1.693  0.00  0.00    +0.147 C 
BRANCH  14  15
ATOM     15  S   UNL     1     -35.476  33.451   0.604  0.00  0.00    -0.104 S 
BRANCH  15  17
ATOM     16  N   UNL     1     -39.482  35.124   1.867  0.00  0.00    -0.301 N 
ATOM     17  C   UNL     1     -37.063  34.113   1.104  0.00  0.00    +0.024 C 
ATOM     18  C   UNL     1     -37.190  35.466   1.405  0.00  0.00    +0.001 C 
ATOM     19  C   UNL     1     -38.171  33.277   1.193  0.00  0.00    +0.022 C 
ATOM     20  C   UNL     1     -38.432  35.952   1.790  0.00  0.00    +0.118 C 
ATOM     21  C   UNL     1     -39.388  33.818   1.583  0.00  0.00    +0.062 C 
ATOM     22  C   UNL     1     -40.776  35.664   2.275  0.00  0.00    +0.113 C 
ENDBRANCH  15  17
ENDBRANCH  14  15
ENDBRANCH  12  14
ENDBRANCH   5  11
BRANCH   7  25
ATOM     23  O   UNL     1     -39.112  26.004   3.449  0.00  0.00    -0.239 OA
ATOM     24  OXT UNL     1     -38.477  24.231   2.151  0.00  0.00    -0.239 OA
ATOM     25  C   UNL     1     -38.296  25.278   2.825  0.00  0.00    +0.401 C 
ENDBRANCH   7  25
BRANCH   8  26
ATOM     26  C   UNL     1     -36.370  24.146   4.814  0.00  0.00    +0.233 C 
BRANCH  26  27
ATOM     27  O   UNL     1     -36.233  22.886   4.192  0.00  0.00    -0.444 OA
BRANCH  27  29
ATOM     28  O   UNL     1     -35.138  20.869   4.451  0.00  0.00    -0.250 OA
ATOM     29  C   UNL     1     -35.533  21.938   4.895  0.00  0.00    +0.318 C 
ATOM     30  C   UNL     1     -35.308  22.397   6.304  0.00  0.00    +0.121 C 
ENDBRANCH  27  29
ENDBRANCH  26  27
ENDBRANCH   8  26
TORSDOF 8
ENDMDL
