MODEL 1
REMARK VINA RESULT:      -6.5      0.000      0.000
REMARK  Name = 191232
REMARK  4 active torsions:
REMARK  status: ('A' for Active; 'I' for Inactive)
REMARK    1  A    between atoms: N_1  and  C_18
REMARK    2  A    between atoms: C_7  and  C_26
REMARK    3  A    between atoms: P_10  and  O_22
REMARK    4  A    between atoms: C_17  and  O_20
REMARK                            x       y       z     vdW  Elec       q    Type
REMARK                         _______ _______ _______ _____ _____    ______ ____
ROOT
ATOM      1  N   UNL     1     -38.035  23.679   3.076  0.00  0.00    -0.250 N 
ATOM      2  N   UNL     1     -38.660  21.825   1.666  0.00  0.00    -0.233 NA
ATOM      3  N   UNL     1     -40.746  22.198   0.469  0.00  0.00    -0.234 NA
ATOM      4  C   UNL     1     -38.864  23.048   2.184  0.00  0.00    +0.122 C 
ATOM      5  C   UNL     1     -38.557  24.910   3.386  0.00  0.00    +0.069 C 
ATOM      6  C   UNL     1     -39.935  23.893   1.919  0.00  0.00    +0.135 C 
ATOM      7  C   UNL     1     -39.732  25.069   2.684  0.00  0.00    +0.059 C 
ATOM      8  C   UNL     1     -40.896  23.422   1.025  0.00  0.00    +0.110 C 
ATOM      9  C   UNL     1     -39.653  21.484   0.819  0.00  0.00    +0.252 C 
ATOM     10  N   UNL     1     -42.018  24.201   0.690  0.00  0.00    -0.346 N 
ATOM     11  H   UNL     1     -42.687  23.855   0.057  0.00  0.00    +0.143 HD
ATOM     12  H   UNL     1     -42.135  25.094   1.090  0.00  0.00    +0.143 HD
ENDROOT
BRANCH   1  21
ATOM     13  P   UNL     1     -34.731  26.868   3.413  0.00  0.00    +0.476 P 
ATOM     14  O   UNL     1     -36.396  23.884   4.786  0.00  0.00    -0.333 OA
ATOM     15  O   UNL     1     -35.137  25.501   2.658  0.00  0.00    -0.271 OA
ATOM     16  O   UNL     1     -35.106  26.554   4.954  0.00  0.00    -0.271 OA
ATOM     17  O   UNL     1     -35.367  28.110   2.859  0.00  0.00    -0.227 OA
ATOM     18  C   UNL     1     -34.711  24.253   3.192  0.00  0.00    +0.186 C 
ATOM     19  C   UNL     1     -34.983  24.139   4.688  0.00  0.00    +0.177 C 
ATOM     20  C   UNL     1     -35.619  23.176   2.629  0.00  0.00    +0.188 C 
ATOM     21  C   UNL     1     -36.789  23.134   3.619  0.00  0.00    +0.227 C 
ATOM     22  C   UNL     1     -34.616  25.351   5.529  0.00  0.00    +0.186 C 
BRANCH  20  23
ATOM     23  O   UNL     1     -34.955  21.916   2.667  0.00  0.00    -0.378 OA
ATOM     24  H   UNL     1     -35.390  21.302   2.054  0.00  0.00    +0.211 HD
ENDBRANCH  20  23
BRANCH  13  25
ATOM     25  O   UNL     1     -33.113  26.875   3.388  0.00  0.00    -0.302 OA
ATOM     26  H   UNL     1     -32.792  27.782   3.517  0.00  0.00    +0.222 HD
ENDBRANCH  13  25
ENDBRANCH   1  21
BRANCH   7  29
ATOM     27  O   UNL     1     -40.763  27.023   1.805  0.00  0.00    -0.271 OA
ATOM     28  N   UNL     1     -41.153  26.544   3.989  0.00  0.00    -0.326 N 
ATOM     29  C   UNL     1     -40.557  26.242   2.760  0.00  0.00    +0.241 C 
ATOM     30  H   UNL     1     -41.724  27.341   4.077  0.00  0.00    +0.145 HD
ATOM     31  H   UNL     1     -41.000  25.960   4.767  0.00  0.00    +0.145 HD
ENDBRANCH   7  29
TORSDOF 4
ENDMDL
MODEL 2
REMARK VINA RESULT:      -6.3      3.683      5.058
REMARK  Name = 191232
REMARK  4 active torsions:
REMARK  status: ('A' for Active; 'I' for Inactive)
REMARK    1  A    between atoms: N_1  and  C_18
REMARK    2  A    between atoms: C_7  and  C_26
REMARK    3  A    between atoms: P_10  and  O_22
REMARK    4  A    between atoms: C_17  and  O_20
REMARK                            x       y       z     vdW  Elec       q    Type
REMARK                         _______ _______ _______ _____ _____    ______ ____
ROOT
ATOM      1  N   UNL     1     -35.313  22.793   2.424  0.00  0.00    -0.250 N 
ATOM      2  N   UNL     1     -35.810  20.463   2.045  0.00  0.00    -0.233 NA
ATOM      3  N   UNL     1     -34.797  19.590   0.011  0.00  0.00    -0.234 NA
ATOM      4  C   UNL     1     -35.228  21.626   1.707  0.00  0.00    +0.122 C 
ATOM      5  C   UNL     1     -34.597  23.772   1.781  0.00  0.00    +0.069 C 
ATOM      6  C   UNL     1     -34.442  21.866   0.586  0.00  0.00    +0.135 C 
ATOM      7  C   UNL     1     -34.047  23.227   0.642  0.00  0.00    +0.059 C 
ATOM      8  C   UNL     1     -34.238  20.789  -0.275  0.00  0.00    +0.110 C 
ATOM      9  C   UNL     1     -35.539  19.503   1.138  0.00  0.00    +0.252 C 
ATOM     10  N   UNL     1     -33.458  20.927  -1.438  0.00  0.00    -0.346 N 
ATOM     11  H   UNL     1     -33.323  20.157  -2.035  0.00  0.00    +0.143 HD
ATOM     12  H   UNL     1     -33.046  21.796  -1.654  0.00  0.00    +0.143 HD
ENDROOT
BRANCH   1  21
ATOM     13  P   UNL     1     -33.658  26.282   4.932  0.00  0.00    +0.476 P 
ATOM     14  O   UNL     1     -36.548  24.326   3.756  0.00  0.00    -0.333 OA
ATOM     15  O   UNL     1     -33.854  24.680   4.915  0.00  0.00    -0.271 OA
ATOM     16  O   UNL     1     -35.098  26.826   4.438  0.00  0.00    -0.271 OA
ATOM     17  O   UNL     1     -32.494  26.786   4.129  0.00  0.00    -0.227 OA
ATOM     18  C   UNL     1     -35.009  24.109   5.517  0.00  0.00    +0.186 C 
ATOM     19  C   UNL     1     -36.293  24.809   5.088  0.00  0.00    +0.177 C 
ATOM     20  C   UNL     1     -35.199  22.724   4.928  0.00  0.00    +0.188 C 
ATOM     21  C   UNL     1     -36.048  22.976   3.677  0.00  0.00    +0.227 C 
ATOM     22  C   UNL     1     -36.259  26.330   5.089  0.00  0.00    +0.186 C 
BRANCH  20  23
ATOM     23  O   UNL     1     -35.955  21.917   5.827  0.00  0.00    -0.378 OA
ATOM     24  H   UNL     1     -36.259  21.118   5.368  0.00  0.00    +0.211 HD
ENDBRANCH  20  23
BRANCH  13  25
ATOM     25  O   UNL     1     -33.604  26.663   6.504  0.00  0.00    -0.302 OA
ATOM     26  H   UNL     1     -33.150  27.513   6.615  0.00  0.00    +0.222 HD
ENDBRANCH  13  25
ENDBRANCH   1  21
BRANCH   7  29
ATOM     27  O   UNL     1     -33.469  24.067  -1.506  0.00  0.00    -0.271 OA
ATOM     28  N   UNL     1     -32.078  24.580   0.212  0.00  0.00    -0.326 N 
ATOM     29  C   UNL     1     -33.229  23.961  -0.283  0.00  0.00    +0.241 C 
ATOM     30  H   UNL     1     -31.494  25.092  -0.394  0.00  0.00    +0.145 HD
ATOM     31  H   UNL     1     -31.850  24.505   1.167  0.00  0.00    +0.145 HD
ENDBRANCH   7  29
TORSDOF 4
ENDMDL
MODEL 3
REMARK VINA RESULT:      -6.3      3.659      5.647
REMARK  Name = 191232
REMARK  4 active torsions:
REMARK  status: ('A' for Active; 'I' for Inactive)
REMARK    1  A    between atoms: N_1  and  C_18
REMARK    2  A    between atoms: C_7  and  C_26
REMARK    3  A    between atoms: P_10  and  O_22
REMARK    4  A    between atoms: C_17  and  O_20
REMARK                            x       y       z     vdW  Elec       q    Type
REMARK                         _______ _______ _______ _____ _____    ______ ____
ROOT
ATOM      1  N   UNL     1     -35.463  21.937   2.812  0.00  0.00    -0.250 N 
ATOM      2  N   UNL     1     -35.247  23.967   1.527  0.00  0.00    -0.233 NA
ATOM      3  N   UNL     1     -34.029  23.652  -0.556  0.00  0.00    -0.234 NA
ATOM      4  C   UNL     1     -35.038  22.654   1.722  0.00  0.00    +0.122 C 
ATOM      5  C   UNL     1     -35.071  20.628   2.674  0.00  0.00    +0.069 C 
ATOM      6  C   UNL     1     -34.363  21.786   0.872  0.00  0.00    +0.135 C 
ATOM      7  C   UNL     1     -34.390  20.506   1.482  0.00  0.00    +0.059 C 
ATOM      8  C   UNL     1     -33.851  22.335  -0.303  0.00  0.00    +0.110 C 
ATOM      9  C   UNL     1     -34.707  24.377   0.362  0.00  0.00    +0.252 C 
ATOM     10  N   UNL     1     -33.152  21.541  -1.230  0.00  0.00    -0.346 N 
ATOM     11  H   UNL     1     -32.797  21.944  -2.054  0.00  0.00    +0.143 HD
ATOM     12  H   UNL     1     -33.018  20.581  -1.054  0.00  0.00    +0.143 HD
ENDROOT
BRANCH   1  21
ATOM     13  P   UNL     1     -33.772  25.955   4.296  0.00  0.00    +0.476 P 
ATOM     14  O   UNL     1     -36.686  23.799   3.642  0.00  0.00    -0.333 OA
ATOM     15  O   UNL     1     -34.003  24.414   4.717  0.00  0.00    -0.271 OA
ATOM     16  O   UNL     1     -35.191  26.366   3.639  0.00  0.00    -0.271 OA
ATOM     17  O   UNL     1     -32.584  26.198   3.411  0.00  0.00    -0.227 OA
ATOM     18  C   UNL     1     -35.180  24.052   5.428  0.00  0.00    +0.186 C 
ATOM     19  C   UNL     1     -36.442  24.627   4.794  0.00  0.00    +0.177 C 
ATOM     20  C   UNL     1     -35.392  22.561   5.239  0.00  0.00    +0.188 C 
ATOM     21  C   UNL     1     -36.215  22.472   3.949  0.00  0.00    +0.227 C 
ATOM     22  C   UNL     1     -36.374  26.088   4.376  0.00  0.00    +0.186 C 
BRANCH  20  23
ATOM     23  O   UNL     1     -36.180  22.046   6.309  0.00  0.00    -0.378 OA
ATOM     24  H   UNL     1     -35.631  21.480   6.873  0.00  0.00    +0.211 HD
ENDBRANCH  20  23
BRANCH  13  25
ATOM     25  O   UNL     1     -33.736  26.754   5.703  0.00  0.00    -0.302 OA
ATOM     26  H   UNL     1     -32.989  26.436   6.235  0.00  0.00    +0.222 HD
ENDBRANCH  13  25
ENDBRANCH   1  21
BRANCH   7  29
ATOM     27  O   UNL     1     -32.605  19.059   0.872  0.00  0.00    -0.271 OA
ATOM     28  N   UNL     1     -34.714  18.252   0.639  0.00  0.00    -0.326 N 
ATOM     29  C   UNL     1     -33.830  19.273   1.003  0.00  0.00    +0.241 C 
ATOM     30  H   UNL     1     -34.365  17.394   0.306  0.00  0.00    +0.145 HD
ATOM     31  H   UNL     1     -35.686  18.392   0.715  0.00  0.00    +0.145 HD
ENDBRANCH   7  29
TORSDOF 4
ENDMDL
MODEL 4
REMARK VINA RESULT:      -6.2      2.169      4.479
REMARK  Name = 191232
REMARK  4 active torsions:
REMARK  status: ('A' for Active; 'I' for Inactive)
REMARK    1  A    between atoms: N_1  and  C_18
REMARK    2  A    between atoms: C_7  and  C_26
REMARK    3  A    between atoms: P_10  and  O_22
REMARK    4  A    between atoms: C_17  and  O_20
REMARK                            x       y       z     vdW  Elec       q    Type
REMARK                         _______ _______ _______ _____ _____    ______ ____
ROOT
ATOM      1  N   UNL     1     -36.022  24.526   3.727  0.00  0.00    -0.250 N 
ATOM      2  N   UNL     1     -38.364  25.021   3.427  0.00  0.00    -0.233 NA
ATOM      3  N   UNL     1     -39.621  23.157   2.494  0.00  0.00    -0.234 NA
ATOM      4  C   UNL     1     -37.301  24.203   3.348  0.00  0.00    +0.122 C 
ATOM      5  C   UNL     1     -35.198  23.450   3.504  0.00  0.00    +0.069 C 
ATOM      6  C   UNL     1     -37.292  22.896   2.875  0.00  0.00    +0.135 C 
ATOM      7  C   UNL     1     -35.958  22.428   2.979  0.00  0.00    +0.059 C 
ATOM      8  C   UNL     1     -38.513  22.382   2.439  0.00  0.00    +0.110 C 
ATOM      9  C   UNL     1     -39.480  24.412   2.978  0.00  0.00    +0.252 C 
ATOM     10  N   UNL     1     -38.611  21.069   1.943  0.00  0.00    -0.346 N 
ATOM     11  H   UNL     1     -39.480  20.722   1.639  0.00  0.00    +0.143 HD
ATOM     12  H   UNL     1     -37.810  20.498   1.900  0.00  0.00    +0.143 HD
ENDROOT
BRANCH   1  21
ATOM     13  P   UNL     1     -32.223  26.133   1.681  0.00  0.00    +0.476 P 
ATOM     14  O   UNL     1     -35.500  26.791   3.228  0.00  0.00    -0.333 OA
ATOM     15  O   UNL     1     -32.805  25.590   3.084  0.00  0.00    -0.271 OA
ATOM     16  O   UNL     1     -33.375  27.153   1.184  0.00  0.00    -0.271 OA
ATOM     17  O   UNL     1     -31.867  25.066   0.687  0.00  0.00    -0.227 OA
ATOM     18  C   UNL     1     -33.312  26.514   4.038  0.00  0.00    +0.186 C 
ATOM     19  C   UNL     1     -34.274  27.521   3.415  0.00  0.00    +0.177 C 
ATOM     20  C   UNL     1     -34.228  25.753   4.977  0.00  0.00    +0.188 C 
ATOM     21  C   UNL     1     -35.592  25.812   4.281  0.00  0.00    +0.227 C 
ATOM     22  C   UNL     1     -33.833  28.140   2.097  0.00  0.00    +0.186 C 
BRANCH  20  23
ATOM     23  O   UNL     1     -34.329  26.444   6.219  0.00  0.00    -0.378 OA
ATOM     24  H   UNL     1     -33.673  27.158   6.246  0.00  0.00    +0.211 HD
ENDBRANCH  20  23
BRANCH  13  25
ATOM     25  O   UNL     1     -30.992  27.095   2.103  0.00  0.00    -0.302 OA
ATOM     26  H   UNL     1     -30.817  26.998   3.052  0.00  0.00    +0.222 HD
ENDBRANCH  13  25
ENDBRANCH   1  21
BRANCH   7  29
ATOM     27  O   UNL     1     -35.155  20.238   3.440  0.00  0.00    -0.271 OA
ATOM     28  N   UNL     1     -35.186  20.889   1.266  0.00  0.00    -0.326 N 
ATOM     29  C   UNL     1     -35.429  21.141   2.620  0.00  0.00    +0.241 C 
ATOM     30  H   UNL     1     -34.824  20.018   0.985  0.00  0.00    +0.145 HD
ATOM     31  H   UNL     1     -35.377  21.583   0.594  0.00  0.00    +0.145 HD
ENDBRANCH   7  29
TORSDOF 4
ENDMDL
MODEL 5
REMARK VINA RESULT:      -6.1      3.696      5.893
REMARK  Name = 191232
REMARK  4 active torsions:
REMARK  status: ('A' for Active; 'I' for Inactive)
REMARK    1  A    between atoms: N_1  and  C_18
REMARK    2  A    between atoms: C_7  and  C_26
REMARK    3  A    between atoms: P_10  and  O_22
REMARK    4  A    between atoms: C_17  and  O_20
REMARK                            x       y       z     vdW  Elec       q    Type
REMARK                         _______ _______ _______ _____ _____    ______ ____
ROOT
ATOM      1  N   UNL     1     -35.848  21.538   2.694  0.00  0.00    -0.250 N 
ATOM      2  N   UNL     1     -35.234  21.190   5.000  0.00  0.00    -0.233 NA
ATOM      3  N   UNL     1     -35.312  23.229   6.327  0.00  0.00    -0.234 NA
ATOM      4  C   UNL     1     -35.626  21.968   3.978  0.00  0.00    +0.122 C 
ATOM      5  C   UNL     1     -36.236  22.604   1.920  0.00  0.00    +0.069 C 
ATOM      6  C   UNL     1     -35.878  23.334   4.024  0.00  0.00    +0.135 C 
ATOM      7  C   UNL     1     -36.264  23.727   2.717  0.00  0.00    +0.059 C 
ATOM      8  C   UNL     1     -35.706  23.959   5.258  0.00  0.00    +0.110 C 
ATOM      9  C   UNL     1     -35.103  21.907   6.134  0.00  0.00    +0.252 C 
ATOM     10  N   UNL     1     -35.936  25.339   5.410  0.00  0.00    -0.346 N 
ATOM     11  H   UNL     1     -35.810  25.765   6.288  0.00  0.00    +0.143 HD
ATOM     12  H   UNL     1     -36.224  25.878   4.638  0.00  0.00    +0.143 HD
ENDROOT
BRANCH   1  21
ATOM     13  P   UNL     1     -32.985  21.244  -0.900  0.00  0.00    +0.476 P 
ATOM     14  O   UNL     1     -34.303  19.794   2.218  0.00  0.00    -0.333 OA
ATOM     15  O   UNL     1     -34.521  21.042  -0.451  0.00  0.00    -0.271 OA
ATOM     16  O   UNL     1     -32.163  20.524   0.292  0.00  0.00    -0.271 OA
ATOM     17  O   UNL     1     -32.582  22.666  -1.162  0.00  0.00    -0.227 OA
ATOM     18  C   UNL     1     -34.967  19.757  -0.035  0.00  0.00    +0.186 C 
ATOM     19  C   UNL     1     -34.025  19.117   0.979  0.00  0.00    +0.177 C 
ATOM     20  C   UNL     1     -36.225  19.950   0.790  0.00  0.00    +0.188 C 
ATOM     21  C   UNL     1     -35.696  20.163   2.213  0.00  0.00    +0.227 C 
ATOM     22  C   UNL     1     -32.540  19.205   0.662  0.00  0.00    +0.186 C 
BRANCH  20  23
ATOM     23  O   UNL     1     -37.001  18.755   0.775  0.00  0.00    -0.378 OA
ATOM     24  H   UNL     1     -37.904  18.951   1.070  0.00  0.00    +0.211 HD
ENDBRANCH  20  23
BRANCH  13  25
ATOM     25  O   UNL     1     -32.804  20.251  -2.166  0.00  0.00    -0.302 OA
ATOM     26  H   UNL     1     -33.585  19.682  -2.244  0.00  0.00    +0.222 HD
ENDBRANCH  13  25
ENDBRANCH   1  21
BRANCH   7  29
ATOM     27  O   UNL     1     -37.494  25.761   2.780  0.00  0.00    -0.271 OA
ATOM     28  N   UNL     1     -35.987  25.518   1.101  0.00  0.00    -0.326 N 
ATOM     29  C   UNL     1     -36.628  25.034   2.245  0.00  0.00    +0.241 C 
ATOM     30  H   UNL     1     -36.212  26.409   0.750  0.00  0.00    +0.145 HD
ATOM     31  H   UNL     1     -35.310  24.966   0.645  0.00  0.00    +0.145 HD
ENDBRANCH   7  29
TORSDOF 4
ENDMDL
MODEL 6
REMARK VINA RESULT:      -6.1      4.550      6.953
REMARK  Name = 191232
REMARK  4 active torsions:
REMARK  status: ('A' for Active; 'I' for Inactive)
REMARK    1  A    between atoms: N_1  and  C_18
REMARK    2  A    between atoms: C_7  and  C_26
REMARK    3  A    between atoms: P_10  and  O_22
REMARK    4  A    between atoms: C_17  and  O_20
REMARK                            x       y       z     vdW  Elec       q    Type
REMARK                         _______ _______ _______ _____ _____    ______ ____
ROOT
ATOM      1  N   UNL     1     -34.402  21.187   0.656  0.00  0.00    -0.250 N 
ATOM      2  N   UNL     1     -33.699  18.977   1.315  0.00  0.00    -0.233 NA
ATOM      3  N   UNL     1     -31.403  18.477   0.680  0.00  0.00    -0.234 NA
ATOM      4  C   UNL     1     -33.483  20.172   0.740  0.00  0.00    +0.122 C 
ATOM      5  C   UNL     1     -33.836  22.256   0.005  0.00  0.00    +0.069 C 
ATOM      6  C   UNL     1     -32.310  20.601   0.132  0.00  0.00    +0.135 C 
ATOM      7  C   UNL     1     -32.542  21.922  -0.330  0.00  0.00    +0.059 C 
ATOM      8  C   UNL     1     -31.248  19.698   0.117  0.00  0.00    +0.110 C 
ATOM      9  C   UNL     1     -32.602  18.195   1.236  0.00  0.00    +0.252 C 
ATOM     10  N   UNL     1     -30.017  20.035  -0.474  0.00  0.00    -0.346 N 
ATOM     11  H   UNL     1     -29.277  19.386  -0.476  0.00  0.00    +0.143 HD
ATOM     12  H   UNL     1     -29.895  20.922  -0.886  0.00  0.00    +0.143 HD
ENDROOT
BRANCH   1  21
ATOM     13  P   UNL     1     -35.052  24.158   4.113  0.00  0.00    +0.476 P 
ATOM     14  O   UNL     1     -36.354  22.466   1.112  0.00  0.00    -0.333 OA
ATOM     15  O   UNL     1     -35.022  22.588   3.746  0.00  0.00    -0.271 OA
ATOM     16  O   UNL     1     -35.920  24.793   2.906  0.00  0.00    -0.271 OA
ATOM     17  O   UNL     1     -33.704  24.790   4.308  0.00  0.00    -0.227 OA
ATOM     18  C   UNL     1     -36.230  21.926   3.395  0.00  0.00    +0.186 C 
ATOM     19  C   UNL     1     -37.035  22.701   2.358  0.00  0.00    +0.177 C 
ATOM     20  C   UNL     1     -35.863  20.671   2.627  0.00  0.00    +0.188 C 
ATOM     21  C   UNL     1     -35.771  21.149   1.174  0.00  0.00    +0.227 C 
ATOM     22  C   UNL     1     -37.173  24.197   2.598  0.00  0.00    +0.186 C 
BRANCH  20  23
ATOM     23  O   UNL     1     -36.921  19.721   2.720  0.00  0.00    -0.378 OA
ATOM     24  H   UNL     1     -37.004  19.245   1.879  0.00  0.00    +0.211 HD
ENDBRANCH  20  23
BRANCH  13  25
ATOM     25  O   UNL     1     -36.029  24.251   5.400  0.00  0.00    -0.302 OA
ATOM     26  H   UNL     1     -35.635  23.762   6.140  0.00  0.00    +0.222 HD
ENDBRANCH  13  25
ENDBRANCH   1  21
BRANCH   7  29
ATOM     27  O   UNL     1     -31.050  22.507  -2.085  0.00  0.00    -0.271 OA
ATOM     28  N   UNL     1     -31.395  24.057  -0.464  0.00  0.00    -0.326 N 
ATOM     29  C   UNL     1     -31.642  22.800  -1.024  0.00  0.00    +0.241 C 
ATOM     30  H   UNL     1     -30.784  24.685  -0.913  0.00  0.00    +0.145 HD
ATOM     31  H   UNL     1     -31.833  24.316   0.380  0.00  0.00    +0.145 HD
ENDBRANCH   7  29
TORSDOF 4
ENDMDL
MODEL 7
REMARK VINA RESULT:      -6.1      3.554      6.613
REMARK  Name = 191232
REMARK  4 active torsions:
REMARK  status: ('A' for Active; 'I' for Inactive)
REMARK    1  A    between atoms: N_1  and  C_18
REMARK    2  A    between atoms: C_7  and  C_26
REMARK    3  A    between atoms: P_10  and  O_22
REMARK    4  A    between atoms: C_17  and  O_20
REMARK                            x       y       z     vdW  Elec       q    Type
REMARK                         _______ _______ _______ _____ _____    ______ ____
ROOT
ATOM      1  N   UNL     1     -36.905  23.894   2.170  0.00  0.00    -0.250 N 
ATOM      2  N   UNL     1     -36.420  25.060   4.224  0.00  0.00    -0.233 NA
ATOM      3  N   UNL     1     -35.383  23.639   5.906  0.00  0.00    -0.234 NA
ATOM      4  C   UNL     1     -36.424  23.960   3.452  0.00  0.00    +0.122 C 
ATOM      5  C   UNL     1     -36.748  22.616   1.692  0.00  0.00    +0.069 C 
ATOM      6  C   UNL     1     -35.950  22.701   3.800  0.00  0.00    +0.135 C 
ATOM      7  C   UNL     1     -36.159  21.857   2.679  0.00  0.00    +0.059 C 
ATOM      8  C   UNL     1     -35.416  22.566   5.081  0.00  0.00    +0.110 C 
ATOM      9  C   UNL     1     -35.881  24.803   5.433  0.00  0.00    +0.252 C 
ATOM     10  N   UNL     1     -34.909  21.333   5.529  0.00  0.00    -0.346 N 
ATOM     11  H   UNL     1     -34.536  21.255   6.436  0.00  0.00    +0.143 HD
ATOM     12  H   UNL     1     -34.928  20.547   4.935  0.00  0.00    +0.143 HD
ENDROOT
BRANCH   1  21
ATOM     13  P   UNL     1     -40.757  22.663  -0.034  0.00  0.00    +0.476 P 
ATOM     14  O   UNL     1     -38.861  25.206   1.838  0.00  0.00    -0.333 OA
ATOM     15  O   UNL     1     -39.240  23.162  -0.262  0.00  0.00    -0.271 OA
ATOM     16  O   UNL     1     -41.291  23.652   1.128  0.00  0.00    -0.271 OA
ATOM     17  O   UNL     1     -40.903  21.202   0.279  0.00  0.00    -0.227 OA
ATOM     18  C   UNL     1     -38.975  24.551  -0.415  0.00  0.00    +0.186 C 
ATOM     19  C   UNL     1     -39.659  25.394   0.655  0.00  0.00    +0.177 C 
ATOM     20  C   UNL     1     -37.509  24.779  -0.098  0.00  0.00    +0.188 C 
ATOM     21  C   UNL     1     -37.497  25.004   1.418  0.00  0.00    +0.227 C 
ATOM     22  C   UNL     1     -41.111  25.051   0.950  0.00  0.00    +0.186 C 
BRANCH  20  23
ATOM     23  O   UNL     1     -37.057  25.973  -0.731  0.00  0.00    -0.378 OA
ATOM     24  H   UNL     1     -36.122  26.120  -0.518  0.00  0.00    +0.211 HD
ENDBRANCH  20  23
BRANCH  13  25
ATOM     25  O   UNL     1     -41.543  23.147  -1.363  0.00  0.00    -0.302 OA
ATOM     26  H   UNL     1     -40.933  23.635  -1.939  0.00  0.00    +0.222 HD
ENDBRANCH  13  25
ENDBRANCH   1  21
BRANCH   7  29
ATOM     27  O   UNL     1     -34.705  19.977   2.727  0.00  0.00    -0.271 OA
ATOM     28  N   UNL     1     -36.862  19.598   2.133  0.00  0.00    -0.326 N 
ATOM     29  C   UNL     1     -35.840  20.464   2.535  0.00  0.00    +0.241 C 
ATOM     30  H   UNL     1     -36.678  18.637   2.024  0.00  0.00    +0.145 HD
ATOM     31  H   UNL     1     -37.766  19.950   1.959  0.00  0.00    +0.145 HD
ENDBRANCH   7  29
TORSDOF 4
ENDMDL
MODEL 8
REMARK VINA RESULT:      -6.1      4.593      7.406
REMARK  Name = 191232
REMARK  4 active torsions:
REMARK  status: ('A' for Active; 'I' for Inactive)
REMARK    1  A    between atoms: N_1  and  C_18
REMARK    2  A    between atoms: C_7  and  C_26
REMARK    3  A    between atoms: P_10  and  O_22
REMARK    4  A    between atoms: C_17  and  O_20
REMARK                            x       y       z     vdW  Elec       q    Type
REMARK                         _______ _______ _______ _____ _____    ______ ____
ROOT
ATOM      1  N   UNL     1     -33.586  26.240   3.918  0.00  0.00    -0.250 N 
ATOM      2  N   UNL     1     -32.893  28.339   4.881  0.00  0.00    -0.233 NA
ATOM      3  N   UNL     1     -31.272  29.529   3.509  0.00  0.00    -0.234 NA
ATOM      4  C   UNL     1     -32.860  27.403   3.918  0.00  0.00    +0.122 C 
ATOM      5  C   UNL     1     -33.301  25.527   2.779  0.00  0.00    +0.069 C 
ATOM      6  C   UNL     1     -32.097  27.434   2.756  0.00  0.00    +0.135 C 
ATOM      7  C   UNL     1     -32.384  26.243   2.042  0.00  0.00    +0.059 C 
ATOM      8  C   UNL     1     -31.283  28.551   2.573  0.00  0.00    +0.110 C 
ATOM      9  C   UNL     1     -32.067  29.364   4.591  0.00  0.00    +0.252 C 
ATOM     10  N   UNL     1     -30.473  28.679   1.431  0.00  0.00    -0.346 N 
ATOM     11  H   UNL     1     -29.904  29.473   1.317  0.00  0.00    +0.143 HD
ATOM     12  H   UNL     1     -30.475  27.972   0.744  0.00  0.00    +0.143 HD
ENDROOT
BRANCH   1  21
ATOM     13  P   UNL     1     -36.244  22.731   2.567  0.00  0.00    +0.476 P 
ATOM     14  O   UNL     1     -34.341  24.410   5.235  0.00  0.00    -0.333 OA
ATOM     15  O   UNL     1     -36.276  24.283   3.007  0.00  0.00    -0.271 OA
ATOM     16  O   UNL     1     -35.277  22.061   3.676  0.00  0.00    -0.271 OA
ATOM     17  O   UNL     1     -35.825  22.483   1.147  0.00  0.00    -0.227 OA
ATOM     18  C   UNL     1     -36.514  24.620   4.368  0.00  0.00    +0.186 C 
ATOM     19  C   UNL     1     -35.646  23.811   5.326  0.00  0.00    +0.177 C 
ATOM     20  C   UNL     1     -35.992  26.027   4.592  0.00  0.00    +0.188 C 
ATOM     21  C   UNL     1     -34.520  25.813   4.963  0.00  0.00    +0.227 C 
ATOM     22  C   UNL     1     -35.552  22.319   5.046  0.00  0.00    +0.186 C 
BRANCH  20  23
ATOM     23  O   UNL     1     -36.654  26.615   5.709  0.00  0.00    -0.378 OA
ATOM     24  H   UNL     1     -36.839  27.548   5.521  0.00  0.00    +0.211 HD
ENDBRANCH  20  23
BRANCH  13  25
ATOM     25  O   UNL     1     -37.720  22.178   2.937  0.00  0.00    -0.302 OA
ATOM     26  H   UNL     1     -37.823  21.277   2.591  0.00  0.00    +0.222 HD
ENDBRANCH  13  25
ENDBRANCH   1  21
BRANCH   7  29
ATOM     27  O   UNL     1     -30.632  25.716   0.524  0.00  0.00    -0.271 OA
ATOM     28  N   UNL     1     -32.758  25.472  -0.230  0.00  0.00    -0.326 N 
ATOM     29  C   UNL     1     -31.852  25.804   0.782  0.00  0.00    +0.241 C 
ATOM     30  H   UNL     1     -32.428  25.167  -1.106  0.00  0.00    +0.145 HD
ATOM     31  H   UNL     1     -33.727  25.543  -0.067  0.00  0.00    +0.145 HD
ENDBRANCH   7  29
TORSDOF 4
ENDMDL
MODEL 9
REMARK VINA RESULT:      -6.1      3.769      6.118
REMARK  Name = 191232
REMARK  4 active torsions:
REMARK  status: ('A' for Active; 'I' for Inactive)
REMARK    1  A    between atoms: N_1  and  C_18
REMARK    2  A    between atoms: C_7  and  C_26
REMARK    3  A    between atoms: P_10  and  O_22
REMARK    4  A    between atoms: C_17  and  O_20
REMARK                            x       y       z     vdW  Elec       q    Type
REMARK                         _______ _______ _______ _____ _____    ______ ____
ROOT
ATOM      1  N   UNL     1     -34.852  23.542   2.363  0.00  0.00    -0.250 N 
ATOM      2  N   UNL     1     -33.528  24.554   0.620  0.00  0.00    -0.233 NA
ATOM      3  N   UNL     1     -32.927  26.863   1.098  0.00  0.00    -0.234 NA
ATOM      4  C   UNL     1     -34.160  24.586   1.805  0.00  0.00    +0.122 C 
ATOM      5  C   UNL     1     -35.365  23.934   3.575  0.00  0.00    +0.069 C 
ATOM      6  C   UNL     1     -34.232  25.665   2.678  0.00  0.00    +0.135 C 
ATOM      7  C   UNL     1     -34.996  25.243   3.796  0.00  0.00    +0.059 C 
ATOM      8  C   UNL     1     -33.582  26.834   2.282  0.00  0.00    +0.110 C 
ATOM      9  C   UNL     1     -32.941  25.737   0.350  0.00  0.00    +0.252 C 
ATOM     10  N   UNL     1     -33.595  27.982   3.094  0.00  0.00    -0.346 N 
ATOM     11  H   UNL     1     -33.130  28.798   2.800  0.00  0.00    +0.143 HD
ATOM     12  H   UNL     1     -34.068  27.969   3.958  0.00  0.00    +0.143 HD
ENDROOT
BRANCH   1  21
ATOM     13  P   UNL     1     -39.287  22.412   1.857  0.00  0.00    +0.476 P 
ATOM     14  O   UNL     1     -35.834  22.312   0.581  0.00  0.00    -0.333 OA
ATOM     15  O   UNL     1     -37.933  22.015   2.638  0.00  0.00    -0.271 OA
ATOM     16  O   UNL     1     -38.778  22.619   0.336  0.00  0.00    -0.271 OA
ATOM     17  O   UNL     1     -40.029  23.585   2.429  0.00  0.00    -0.227 OA
ATOM     18  C   UNL     1     -37.077  21.017   2.096  0.00  0.00    +0.186 C 
ATOM     19  C   UNL     1     -36.793  21.240   0.615  0.00  0.00    +0.177 C 
ATOM     20  C   UNL     1     -35.701  21.208   2.707  0.00  0.00    +0.188 C 
ATOM     21  C   UNL     1     -35.025  22.214   1.769  0.00  0.00    +0.227 C 
ATOM     22  C   UNL     1     -37.993  21.590  -0.252  0.00  0.00    +0.186 C 
BRANCH  20  23
ATOM     23  O   UNL     1     -34.974  19.983   2.649  0.00  0.00    -0.378 OA
ATOM     24  H   UNL     1     -35.126  19.556   1.792  0.00  0.00    +0.211 HD
ENDBRANCH  20  23
BRANCH  13  25
ATOM     25  O   UNL     1     -40.140  21.037   1.809  0.00  0.00    -0.302 OA
ATOM     26  H   UNL     1     -40.190  20.720   0.893  0.00  0.00    +0.222 HD
ENDBRANCH  13  25
ENDBRANCH   1  21
BRANCH   7  29
ATOM     27  O   UNL     1     -34.533  26.449   5.791  0.00  0.00    -0.271 OA
ATOM     28  N   UNL     1     -36.715  26.198   5.220  0.00  0.00    -0.326 N 
ATOM     29  C   UNL     1     -35.355  25.989   4.969  0.00  0.00    +0.241 C 
ATOM     30  H   UNL     1     -36.997  26.705   6.015  0.00  0.00    +0.145 HD
ATOM     31  H   UNL     1     -37.391  25.837   4.601  0.00  0.00    +0.145 HD
ENDBRANCH   7  29
TORSDOF 4
ENDMDL
