MODEL 1
REMARK VINA RESULT:      -6.0      0.000      0.000
REMARK  Name = 51066531
REMARK  11 active torsions:
REMARK  status: ('A' for Active; 'I' for Inactive)
REMARK    1  A    between atoms: O_1  and  C_5
REMARK    2  A    between atoms: O_1  and  C_19
REMARK    3  A    between atoms: C_7  and  C_15
REMARK    4  A    between atoms: C_9  and  C_12
REMARK    5  A    between atoms: C_12  and  O_13
REMARK    6  A    between atoms: C_15  and  O_16
REMARK    7  A    between atoms: C_20  and  O_24
REMARK    8  A    between atoms: C_21  and  O_26
REMARK    9  A    between atoms: C_22  and  O_28
REMARK   10  A    between atoms: C_23  and  C_30
REMARK   11  A    between atoms: C_30  and  O_31
REMARK                            x       y       z     vdW  Elec       q    Type
REMARK                         _______ _______ _______ _____ _____    ______ ____
ROOT
ATOM      1  O   UNL     1     -36.819  24.801   2.425  0.00  0.00    -0.293 OA
ENDROOT
BRANCH   1   5
ATOM      2  O   UNL     1     -34.951  23.957   1.236  0.00  0.00    -0.449 OA
ATOM      3  C   UNL     1     -34.991  23.779   3.666  0.00  0.00    +0.077 C 
ATOM      4  C   UNL     1     -35.666  22.399   3.567  0.00  0.00    +0.038 C 
ATOM      5  C   UNL     1     -35.409  24.605   2.450  0.00  0.00    +0.290 C 
ATOM      6  C   UNL     1     -35.386  21.785   4.938  0.00  0.00    +0.005 C 
ATOM      7  C   UNL     1     -35.322  24.141   5.080  0.00  0.00    +0.036 C 
ATOM      8  C   UNL     1     -35.494  23.018   5.799  0.00  0.00    +0.003 C 
ATOM      9  C   UNL     1     -35.222  21.786   2.286  0.00  0.00    +0.090 C 
ATOM     10  C   UNL     1     -34.915  22.575   1.243  0.00  0.00    +0.177 C 
BRANCH   9  12
ATOM     11  O   UNL     1     -34.087  19.714   2.104  0.00  0.00    -0.245 OA
ATOM     12  C   UNL     1     -35.139  20.339   2.120  0.00  0.00    +0.340 C 
BRANCH  12  13
ATOM     13  O   UNL     1     -36.395  19.838   1.988  0.00  0.00    -0.441 OA
ATOM     14  C   UNL     1     -36.778  19.469   0.659  0.00  0.00    +0.256 C 
ENDBRANCH  12  13
ENDBRANCH   9  12
BRANCH   7  15
ATOM     15  C   UNL     1     -35.328  25.540   5.571  0.00  0.00    +0.137 C 
BRANCH  15  16
ATOM     16  O   UNL     1     -36.566  26.168   5.265  0.00  0.00    -0.382 OA
ATOM     17  H   UNL     1     -37.014  25.672   4.561  0.00  0.00    +0.210 HD
ENDBRANCH  15  16
ENDBRANCH   7  15
ENDBRANCH   1   5
BRANCH   1  19
ATOM     18  O   UNL     1     -37.895  24.105   0.431  0.00  0.00    -0.326 OA
ATOM     19  C   UNL     1     -37.270  25.184   1.129  0.00  0.00    +0.268 C 
ATOM     20  C   UNL     1     -38.193  26.404   1.164  0.00  0.00    +0.197 C 
ATOM     21  C   UNL     1     -39.560  26.059   1.753  0.00  0.00    +0.172 C 
ATOM     22  C   UNL     1     -40.143  24.819   1.071  0.00  0.00    +0.169 C 
ATOM     23  C   UNL     1     -39.121  23.675   1.033  0.00  0.00    +0.176 C 
BRANCH  20  24
ATOM     24  O   UNL     1     -37.601  27.448   1.927  0.00  0.00    -0.378 OA
ATOM     25  H   UNL     1     -36.912  27.079   2.501  0.00  0.00    +0.211 HD
ENDBRANCH  20  24
BRANCH  21  26
ATOM     26  O   UNL     1     -40.453  27.153   1.533  0.00  0.00    -0.379 OA
ATOM     27  H   UNL     1     -40.604  27.620   2.371  0.00  0.00    +0.211 HD
ENDBRANCH  21  26
BRANCH  22  28
ATOM     28  O   UNL     1     -41.304  24.423   1.795  0.00  0.00    -0.379 OA
ATOM     29  H   UNL     1     -41.279  24.808   2.685  0.00  0.00    +0.211 HD
ENDBRANCH  22  28
BRANCH  23  30
ATOM     30  C   UNL     1     -39.623  22.485   0.220  0.00  0.00    +0.169 C 
BRANCH  30  31
ATOM     31  O   UNL     1     -40.396  21.655   1.068  0.00  0.00    -0.379 OA
ATOM     32  H   UNL     1     -41.167  21.325   0.581  0.00  0.00    +0.211 HD
ENDBRANCH  30  31
ENDBRANCH  23  30
ENDBRANCH   1  19
TORSDOF 11
ENDMDL
MODEL 2
REMARK VINA RESULT:      -5.9      2.138      6.037
REMARK  Name = 51066531
REMARK  11 active torsions:
REMARK  status: ('A' for Active; 'I' for Inactive)
REMARK    1  A    between atoms: O_1  and  C_5
REMARK    2  A    between atoms: O_1  and  C_19
REMARK    3  A    between atoms: C_7  and  C_15
REMARK    4  A    between atoms: C_9  and  C_12
REMARK    5  A    between atoms: C_12  and  O_13
REMARK    6  A    between atoms: C_15  and  O_16
REMARK    7  A    between atoms: C_20  and  O_24
REMARK    8  A    between atoms: C_21  and  O_26
REMARK    9  A    between atoms: C_22  and  O_28
REMARK   10  A    between atoms: C_23  and  C_30
REMARK   11  A    between atoms: C_30  and  O_31
REMARK                            x       y       z     vdW  Elec       q    Type
REMARK                         _______ _______ _______ _____ _____    ______ ____
ROOT
ATOM      1  O   UNL     1     -35.702  22.181   2.701  0.00  0.00    -0.293 OA
ENDROOT
BRANCH   1   5
ATOM      2  O   UNL     1     -37.583  23.572   2.322  0.00  0.00    -0.449 OA
ATOM      3  C   UNL     1     -36.313  23.828   4.386  0.00  0.00    +0.077 C 
ATOM      4  C   UNL     1     -35.410  24.880   3.715  0.00  0.00    +0.038 C 
ATOM      5  C   UNL     1     -36.797  22.858   3.309  0.00  0.00    +0.290 C 
ATOM      6  C   UNL     1     -34.797  25.611   4.909  0.00  0.00    +0.005 C 
ATOM      7  C   UNL     1     -35.453  23.434   5.545  0.00  0.00    +0.036 C 
ATOM      8  C   UNL     1     -34.639  24.456   5.865  0.00  0.00    +0.003 C 
ATOM      9  C   UNL     1     -36.228  25.555   2.671  0.00  0.00    +0.090 C 
ATOM     10  C   UNL     1     -37.214  24.879   2.061  0.00  0.00    +0.177 C 
BRANCH   9  12
ATOM     11  O   UNL     1     -34.862  27.460   2.321  0.00  0.00    -0.245 OA
ATOM     12  C   UNL     1     -35.964  26.931   2.266  0.00  0.00    +0.340 C 
BRANCH  12  13
ATOM     13  O   UNL     1     -37.125  27.494   1.836  0.00  0.00    -0.441 OA
ATOM     14  C   UNL     1     -37.009  28.367   0.709  0.00  0.00    +0.256 C 
ENDBRANCH  12  13
ENDBRANCH   9  12
BRANCH   7  15
ATOM     15  C   UNL     1     -35.608  22.143   6.258  0.00  0.00    +0.137 C 
BRANCH  15  16
ATOM     16  O   UNL     1     -35.126  21.073   5.456  0.00  0.00    -0.382 OA
ATOM     17  H   UNL     1     -34.643  20.442   6.013  0.00  0.00    +0.210 HD
ENDBRANCH  15  16
ENDBRANCH   7  15
ENDBRANCH   1   5
BRANCH   1  19
ATOM     18  O   UNL     1     -35.289  22.291   0.370  0.00  0.00    -0.326 OA
ATOM     19  C   UNL     1     -36.049  21.679   1.413  0.00  0.00    +0.268 C 
ATOM     20  C   UNL     1     -35.945  20.155   1.328  0.00  0.00    +0.197 C 
ATOM     21  C   UNL     1     -34.491  19.689   1.335  0.00  0.00    +0.172 C 
ATOM     22  C   UNL     1     -33.674  20.457   0.293  0.00  0.00    +0.169 C 
ATOM     23  C   UNL     1     -33.893  21.970   0.423  0.00  0.00    +0.176 C 
BRANCH  20  24
ATOM     24  O   UNL     1     -36.639  19.552   2.414  0.00  0.00    -0.378 OA
ATOM     25  H   UNL     1     -37.525  19.940   2.488  0.00  0.00    +0.211 HD
ENDBRANCH  20  24
BRANCH  21  26
ATOM     26  O   UNL     1     -34.444  18.298   1.004  0.00  0.00    -0.379 OA
ATOM     27  H   UNL     1     -33.567  17.944   1.219  0.00  0.00    +0.211 HD
ENDBRANCH  21  26
BRANCH  22  28
ATOM     28  O   UNL     1     -32.299  20.137   0.487  0.00  0.00    -0.379 OA
ATOM     29  H   UNL     1     -32.226  19.276   0.927  0.00  0.00    +0.211 HD
ENDBRANCH  22  28
BRANCH  23  30
ATOM     30  C   UNL     1     -33.215  22.746  -0.702  0.00  0.00    +0.169 C 
BRANCH  30  31
ATOM     31  O   UNL     1     -31.836  22.861  -0.402  0.00  0.00    -0.379 OA
ATOM     32  H   UNL     1     -31.566  22.121   0.163  0.00  0.00    +0.211 HD
ENDBRANCH  30  31
ENDBRANCH  23  30
ENDBRANCH   1  19
TORSDOF 11
ENDMDL
MODEL 3
REMARK VINA RESULT:      -5.9      1.035      1.185
REMARK  Name = 51066531
REMARK  11 active torsions:
REMARK  status: ('A' for Active; 'I' for Inactive)
REMARK    1  A    between atoms: O_1  and  C_5
REMARK    2  A    between atoms: O_1  and  C_19
REMARK    3  A    between atoms: C_7  and  C_15
REMARK    4  A    between atoms: C_9  and  C_12
REMARK    5  A    between atoms: C_12  and  O_13
REMARK    6  A    between atoms: C_15  and  O_16
REMARK    7  A    between atoms: C_20  and  O_24
REMARK    8  A    between atoms: C_21  and  O_26
REMARK    9  A    between atoms: C_22  and  O_28
REMARK   10  A    between atoms: C_23  and  C_30
REMARK   11  A    between atoms: C_30  and  O_31
REMARK                            x       y       z     vdW  Elec       q    Type
REMARK                         _______ _______ _______ _____ _____    ______ ____
ROOT
ATOM      1  O   UNL     1     -37.284  24.593   2.586  0.00  0.00    -0.293 OA
ENDROOT
BRANCH   1   5
ATOM      2  O   UNL     1     -35.486  23.916   1.198  0.00  0.00    -0.449 OA
ATOM      3  C   UNL     1     -35.242  23.762   3.618  0.00  0.00    +0.077 C 
ATOM      4  C   UNL     1     -35.790  22.323   3.595  0.00  0.00    +0.038 C 
ATOM      5  C   UNL     1     -35.867  24.531   2.455  0.00  0.00    +0.290 C 
ATOM      6  C   UNL     1     -35.303  21.754   4.927  0.00  0.00    +0.005 C 
ATOM      7  C   UNL     1     -35.449  24.107   5.059  0.00  0.00    +0.036 C 
ATOM      8  C   UNL     1     -35.433  22.980   5.794  0.00  0.00    +0.003 C 
ATOM      9  C   UNL     1     -35.432  21.741   2.273  0.00  0.00    +0.090 C 
ATOM     10  C   UNL     1     -35.318  22.544   1.203  0.00  0.00    +0.177 C 
BRANCH   9  12
ATOM     11  O   UNL     1     -34.137  19.759   2.166  0.00  0.00    -0.245 OA
ATOM     12  C   UNL     1     -35.230  20.307   2.100  0.00  0.00    +0.340 C 
BRANCH  12  13
ATOM     13  O   UNL     1     -36.431  19.719   1.858  0.00  0.00    -0.441 OA
ATOM     14  C   UNL     1     -36.627  19.236   0.525  0.00  0.00    +0.256 C 
ENDBRANCH  12  13
ENDBRANCH   9  12
BRANCH   7  15
ATOM     15  C   UNL     1     -35.534  25.505   5.547  0.00  0.00    +0.137 C 
BRANCH  15  16
ATOM     16  O   UNL     1     -36.798  26.067   5.222  0.00  0.00    -0.382 OA
ATOM     17  H   UNL     1     -37.416  25.357   4.984  0.00  0.00    +0.210 HD
ENDBRANCH  15  16
ENDBRANCH   7  15
ENDBRANCH   1   5
BRANCH   1  19
ATOM     18  O   UNL     1     -37.981  25.048   0.367  0.00  0.00    -0.326 OA
ATOM     19  C   UNL     1     -37.849  25.553   1.697  0.00  0.00    +0.268 C 
ATOM     20  C   UNL     1     -39.187  26.101   2.197  0.00  0.00    +0.197 C 
ATOM     21  C   UNL     1     -40.298  25.058   2.090  0.00  0.00    +0.172 C 
ATOM     22  C   UNL     1     -40.327  24.443   0.689  0.00  0.00    +0.169 C 
ATOM     23  C   UNL     1     -38.930  23.980   0.257  0.00  0.00    +0.176 C 
BRANCH  20  24
ATOM     24  O   UNL     1     -39.070  26.530   3.548  0.00  0.00    -0.378 OA
ATOM     25  H   UNL     1     -39.426  25.845   4.136  0.00  0.00    +0.211 HD
ENDBRANCH  20  24
BRANCH  21  26
ATOM     26  O   UNL     1     -41.558  25.691   2.329  0.00  0.00    -0.379 OA
ATOM     27  H   UNL     1     -41.492  26.254   3.117  0.00  0.00    +0.211 HD
ENDBRANCH  21  26
BRANCH  22  28
ATOM     28  O   UNL     1     -41.230  23.341   0.710  0.00  0.00    -0.379 OA
ATOM     29  H   UNL     1     -42.122  23.648   0.483  0.00  0.00    +0.211 HD
ENDBRANCH  22  28
BRANCH  23  30
ATOM     30  C   UNL     1     -38.905  23.509  -1.194  0.00  0.00    +0.169 C 
BRANCH  30  31
ATOM     31  O   UNL     1     -40.032  24.047  -1.861  0.00  0.00    -0.379 OA
ATOM     32  H   UNL     1     -40.830  23.876  -1.337  0.00  0.00    +0.211 HD
ENDBRANCH  30  31
ENDBRANCH  23  30
ENDBRANCH   1  19
TORSDOF 11
ENDMDL
MODEL 4
REMARK VINA RESULT:      -5.6      2.163      5.010
REMARK  Name = 51066531
REMARK  11 active torsions:
REMARK  status: ('A' for Active; 'I' for Inactive)
REMARK    1  A    between atoms: O_1  and  C_5
REMARK    2  A    between atoms: O_1  and  C_19
REMARK    3  A    between atoms: C_7  and  C_15
REMARK    4  A    between atoms: C_9  and  C_12
REMARK    5  A    between atoms: C_12  and  O_13
REMARK    6  A    between atoms: C_15  and  O_16
REMARK    7  A    between atoms: C_20  and  O_24
REMARK    8  A    between atoms: C_21  and  O_26
REMARK    9  A    between atoms: C_22  and  O_28
REMARK   10  A    between atoms: C_23  and  C_30
REMARK   11  A    between atoms: C_30  and  O_31
REMARK                            x       y       z     vdW  Elec       q    Type
REMARK                         _______ _______ _______ _____ _____    ______ ____
ROOT
ATOM      1  O   UNL     1     -36.448  23.204   2.198  0.00  0.00    -0.293 OA
ENDROOT
BRANCH   1   5
ATOM      2  O   UNL     1     -36.346  20.869   2.593  0.00  0.00    -0.449 OA
ATOM      3  C   UNL     1     -36.560  21.678   0.304  0.00  0.00    +0.077 C 
ATOM      4  C   UNL     1     -35.027  21.713   0.159  0.00  0.00    +0.038 C 
ATOM      5  C   UNL     1     -36.907  21.925   1.772  0.00  0.00    +0.290 C 
ATOM      6  C   UNL     1     -34.830  21.717  -1.356  0.00  0.00    +0.005 C 
ATOM      7  C   UNL     1     -36.957  22.588  -0.816  0.00  0.00    +0.036 C 
ATOM      8  C   UNL     1     -36.006  22.567  -1.766  0.00  0.00    +0.003 C 
ATOM      9  C   UNL     1     -34.480  20.659   1.055  0.00  0.00    +0.090 C 
ATOM     10  C   UNL     1     -35.145  20.327   2.174  0.00  0.00    +0.177 C 
BRANCH   9  12
ATOM     11  O   UNL     1     -32.237  20.558   0.297  0.00  0.00    -0.245 OA
ATOM     12  C   UNL     1     -33.215  19.991   0.767  0.00  0.00    +0.340 C 
BRANCH  12  13
ATOM     13  O   UNL     1     -33.324  18.678   1.100  0.00  0.00    -0.441 OA
ATOM     14  C   UNL     1     -32.087  17.992   1.319  0.00  0.00    +0.256 C 
ENDBRANCH  12  13
ENDBRANCH   9  12
BRANCH   7  15
ATOM     15  C   UNL     1     -38.267  23.283  -0.861  0.00  0.00    +0.137 C 
BRANCH  15  16
ATOM     16  O   UNL     1     -38.235  24.451  -0.052  0.00  0.00    -0.382 OA
ATOM     17  H   UNL     1     -38.774  24.309   0.743  0.00  0.00    +0.210 HD
ENDBRANCH  15  16
ENDBRANCH   7  15
ENDBRANCH   1   5
BRANCH   1  19
ATOM     18  O   UNL     1     -36.748  22.942   4.534  0.00  0.00    -0.326 OA
ATOM     19  C   UNL     1     -37.146  23.648   3.358  0.00  0.00    +0.268 C 
ATOM     20  C   UNL     1     -37.026  25.159   3.574  0.00  0.00    +0.197 C 
ATOM     21  C   UNL     1     -35.621  25.551   4.028  0.00  0.00    +0.172 C 
ATOM     22  C   UNL     1     -35.174  24.686   5.207  0.00  0.00    +0.169 C 
ATOM     23  C   UNL     1     -35.390  23.195   4.915  0.00  0.00    +0.176 C 
BRANCH  20  24
ATOM     24  O   UNL     1     -37.347  25.855   2.377  0.00  0.00    -0.378 OA
ATOM     25  H   UNL     1     -37.027  25.351   1.613  0.00  0.00    +0.211 HD
ENDBRANCH  20  24
BRANCH  21  26
ATOM     26  O   UNL     1     -35.633  26.917   4.453  0.00  0.00    -0.379 OA
ATOM     27  H   UNL     1     -36.376  27.380   4.034  0.00  0.00    +0.211 HD
ENDBRANCH  21  26
BRANCH  22  28
ATOM     28  O   UNL     1     -33.794  24.948   5.448  0.00  0.00    -0.379 OA
ATOM     29  H   UNL     1     -33.258  24.516   4.766  0.00  0.00    +0.211 HD
ENDBRANCH  22  28
BRANCH  23  30
ATOM     30  C   UNL     1     -35.100  22.324   6.134  0.00  0.00    +0.169 C 
BRANCH  30  31
ATOM     31  O   UNL     1     -35.353  20.974   5.793  0.00  0.00    -0.379 OA
ATOM     32  H   UNL     1     -34.897  20.391   6.419  0.00  0.00    +0.211 HD
ENDBRANCH  30  31
ENDBRANCH  23  30
ENDBRANCH   1  19
TORSDOF 11
ENDMDL
MODEL 5
REMARK VINA RESULT:      -5.5      2.097      5.103
REMARK  Name = 51066531
REMARK  11 active torsions:
REMARK  status: ('A' for Active; 'I' for Inactive)
REMARK    1  A    between atoms: O_1  and  C_5
REMARK    2  A    between atoms: O_1  and  C_19
REMARK    3  A    between atoms: C_7  and  C_15
REMARK    4  A    between atoms: C_9  and  C_12
REMARK    5  A    between atoms: C_12  and  O_13
REMARK    6  A    between atoms: C_15  and  O_16
REMARK    7  A    between atoms: C_20  and  O_24
REMARK    8  A    between atoms: C_21  and  O_26
REMARK    9  A    between atoms: C_22  and  O_28
REMARK   10  A    between atoms: C_23  and  C_30
REMARK   11  A    between atoms: C_30  and  O_31
REMARK                            x       y       z     vdW  Elec       q    Type
REMARK                         _______ _______ _______ _____ _____    ______ ____
ROOT
ATOM      1  O   UNL     1     -36.591  22.653   2.639  0.00  0.00    -0.293 OA
ENDROOT
BRANCH   1   5
ATOM      2  O   UNL     1     -37.867  24.639   2.850  0.00  0.00    -0.449 OA
ATOM      3  C   UNL     1     -36.182  24.126   4.534  0.00  0.00    +0.077 C 
ATOM      4  C   UNL     1     -35.123  24.902   3.730  0.00  0.00    +0.038 C 
ATOM      5  C   UNL     1     -37.206  23.556   3.552  0.00  0.00    +0.290 C 
ATOM      6  C   UNL     1     -34.046  25.188   4.775  0.00  0.00    +0.005 C 
ATOM      7  C   UNL     1     -35.300  23.289   5.405  0.00  0.00    +0.036 C 
ATOM      8  C   UNL     1     -34.121  23.913   5.576  0.00  0.00    +0.003 C 
ATOM      9  C   UNL     1     -35.841  25.967   2.977  0.00  0.00    +0.090 C 
ATOM     10  C   UNL     1     -37.112  25.768   2.594  0.00  0.00    +0.177 C 
BRANCH   9  12
ATOM     11  O   UNL     1     -34.951  28.121   3.408  0.00  0.00    -0.245 OA
ATOM     12  C   UNL     1     -35.186  27.220   2.615  0.00  0.00    +0.340 C 
BRANCH  12  13
ATOM     13  O   UNL     1     -34.899  27.198   1.286  0.00  0.00    -0.441 OA
ATOM     14  C   UNL     1     -33.566  26.805   0.947  0.00  0.00    +0.256 C 
ENDBRANCH  12  13
ENDBRANCH   9  12
BRANCH   7  15
ATOM     15  C   UNL     1     -35.760  22.031   6.043  0.00  0.00    +0.137 C 
BRANCH  15  16
ATOM     16  O   UNL     1     -35.074  20.916   5.490  0.00  0.00    -0.382 OA
ATOM     17  H   UNL     1     -35.707  20.341   5.032  0.00  0.00    +0.210 HD
ENDBRANCH  15  16
ENDBRANCH   7  15
ENDBRANCH   1   5
BRANCH   1  19
ATOM     18  O   UNL     1     -38.477  21.374   1.988  0.00  0.00    -0.326 OA
ATOM     19  C   UNL     1     -37.220  21.375   2.666  0.00  0.00    +0.268 C 
ATOM     20  C   UNL     1     -36.318  20.264   2.122  0.00  0.00    +0.197 C 
ATOM     21  C   UNL     1     -36.150  20.368   0.608  0.00  0.00    +0.172 C 
ATOM     22  C   UNL     1     -37.511  20.497  -0.078  0.00  0.00    +0.169 C 
ATOM     23  C   UNL     1     -38.361  21.594   0.577  0.00  0.00    +0.176 C 
BRANCH  20  24
ATOM     24  O   UNL     1     -35.040  20.318   2.744  0.00  0.00    -0.378 OA
ATOM     25  H   UNL     1     -34.598  21.147   2.503  0.00  0.00    +0.211 HD
ENDBRANCH  20  24
BRANCH  21  26
ATOM     26  O   UNL     1     -35.516  19.179   0.126  0.00  0.00    -0.379 OA
ATOM     27  H   UNL     1     -35.931  18.403   0.535  0.00  0.00    +0.211 HD
ENDBRANCH  21  26
BRANCH  22  28
ATOM     28  O   UNL     1     -37.286  20.800  -1.452  0.00  0.00    -0.379 OA
ATOM     29  H   UNL     1     -36.339  20.726  -1.650  0.00  0.00    +0.211 HD
ENDBRANCH  22  28
BRANCH  23  30
ATOM     30  C   UNL     1     -39.778  21.635   0.014  0.00  0.00    +0.169 C 
BRANCH  30  31
ATOM     31  O   UNL     1     -40.647  21.006   0.938  0.00  0.00    -0.379 OA
ATOM     32  H   UNL     1     -41.478  20.774   0.494  0.00  0.00    +0.211 HD
ENDBRANCH  30  31
ENDBRANCH  23  30
ENDBRANCH   1  19
TORSDOF 11
ENDMDL
MODEL 6
REMARK VINA RESULT:      -5.3      2.210      5.130
REMARK  Name = 51066531
REMARK  11 active torsions:
REMARK  status: ('A' for Active; 'I' for Inactive)
REMARK    1  A    between atoms: O_1  and  C_5
REMARK    2  A    between atoms: O_1  and  C_19
REMARK    3  A    between atoms: C_7  and  C_15
REMARK    4  A    between atoms: C_9  and  C_12
REMARK    5  A    between atoms: C_12  and  O_13
REMARK    6  A    between atoms: C_15  and  O_16
REMARK    7  A    between atoms: C_20  and  O_24
REMARK    8  A    between atoms: C_21  and  O_26
REMARK    9  A    between atoms: C_22  and  O_28
REMARK   10  A    between atoms: C_23  and  C_30
REMARK   11  A    between atoms: C_30  and  O_31
REMARK                            x       y       z     vdW  Elec       q    Type
REMARK                         _______ _______ _______ _____ _____    ______ ____
ROOT
ATOM      1  O   UNL     1     -36.385  22.607   2.054  0.00  0.00    -0.293 OA
ENDROOT
BRANCH   1   5
ATOM      2  O   UNL     1     -35.598  20.502   2.808  0.00  0.00    -0.449 OA
ATOM      3  C   UNL     1     -37.371  20.578   1.137  0.00  0.00    +0.077 C 
ATOM      4  C   UNL     1     -36.325  20.556   0.007  0.00  0.00    +0.038 C 
ATOM      5  C   UNL     1     -36.746  21.262   2.353  0.00  0.00    +0.290 C 
ATOM      6  C   UNL     1     -37.142  20.098  -1.200  0.00  0.00    +0.005 C 
ATOM      7  C   UNL     1     -38.559  21.107   0.396  0.00  0.00    +0.036 C 
ATOM      8  C   UNL     1     -38.447  20.791  -0.907  0.00  0.00    +0.003 C 
ATOM      9  C   UNL     1     -35.140  19.820   0.524  0.00  0.00    +0.090 C 
ATOM     10  C   UNL     1     -34.861  19.850   1.837  0.00  0.00    +0.177 C 
BRANCH   9  12
ATOM     11  O   UNL     1     -33.427  19.622  -1.102  0.00  0.00    -0.245 OA
ATOM     12  C   UNL     1     -34.247  19.087  -0.367  0.00  0.00    +0.340 C 
BRANCH  12  13
ATOM     13  O   UNL     1     -34.488  17.756  -0.235  0.00  0.00    -0.441 OA
ATOM     14  C   UNL     1     -33.349  16.949   0.077  0.00  0.00    +0.256 C 
ENDBRANCH  12  13
ENDBRANCH   9  12
BRANCH   7  15
ATOM     15  C   UNL     1     -39.702  21.765   1.074  0.00  0.00    +0.137 C 
BRANCH  15  16
ATOM     16  O   UNL     1     -40.187  20.949   2.131  0.00  0.00    -0.382 OA
ATOM     17  H   UNL     1     -40.243  20.028   1.829  0.00  0.00    +0.210 HD
ENDBRANCH  15  16
ENDBRANCH   7  15
ENDBRANCH   1   5
BRANCH   1  19
ATOM     18  O   UNL     1     -36.752  23.215   4.315  0.00  0.00    -0.326 OA
ATOM     19  C   UNL     1     -37.012  23.526   2.945  0.00  0.00    +0.268 C 
ATOM     20  C   UNL     1     -36.642  24.980   2.646  0.00  0.00    +0.197 C 
ATOM     21  C   UNL     1     -35.197  25.284   3.035  0.00  0.00    +0.172 C 
ATOM     22  C   UNL     1     -34.915  24.820   4.466  0.00  0.00    +0.169 C 
ATOM     23  C   UNL     1     -35.375  23.373   4.681  0.00  0.00    +0.176 C 
BRANCH  20  24
ATOM     24  O   UNL     1     -36.828  25.262   1.264  0.00  0.00    -0.378 OA
ATOM     25  H   UNL     1     -37.764  25.154   1.035  0.00  0.00    +0.211 HD
ENDBRANCH  20  24
BRANCH  21  26
ATOM     26  O   UNL     1     -34.983  26.697   2.972  0.00  0.00    -0.379 OA
ATOM     27  H   UNL     1     -34.039  26.887   3.093  0.00  0.00    +0.211 HD
ENDBRANCH  21  26
BRANCH  22  28
ATOM     28  O   UNL     1     -33.513  24.934   4.698  0.00  0.00    -0.379 OA
ATOM     29  H   UNL     1     -33.232  25.849   4.541  0.00  0.00    +0.211 HD
ENDBRANCH  22  28
BRANCH  23  30
ATOM     30  C   UNL     1     -35.249  22.941   6.139  0.00  0.00    +0.169 C 
BRANCH  30  31
ATOM     31  O   UNL     1     -36.080  21.815   6.348  0.00  0.00    -0.379 OA
ATOM     32  H   UNL     1     -36.009  21.528   7.272  0.00  0.00    +0.211 HD
ENDBRANCH  30  31
ENDBRANCH  23  30
ENDBRANCH   1  19
TORSDOF 11
ENDMDL
MODEL 7
REMARK VINA RESULT:      -5.3      2.035      4.925
REMARK  Name = 51066531
REMARK  11 active torsions:
REMARK  status: ('A' for Active; 'I' for Inactive)
REMARK    1  A    between atoms: O_1  and  C_5
REMARK    2  A    between atoms: O_1  and  C_19
REMARK    3  A    between atoms: C_7  and  C_15
REMARK    4  A    between atoms: C_9  and  C_12
REMARK    5  A    between atoms: C_12  and  O_13
REMARK    6  A    between atoms: C_15  and  O_16
REMARK    7  A    between atoms: C_20  and  O_24
REMARK    8  A    between atoms: C_21  and  O_26
REMARK    9  A    between atoms: C_22  and  O_28
REMARK   10  A    between atoms: C_23  and  C_30
REMARK   11  A    between atoms: C_30  and  O_31
REMARK                            x       y       z     vdW  Elec       q    Type
REMARK                         _______ _______ _______ _____ _____    ______ ____
ROOT
ATOM      1  O   UNL     1     -37.591  23.493   2.444  0.00  0.00    -0.293 OA
ENDROOT
BRANCH   1   5
ATOM      2  O   UNL     1     -36.567  23.347   4.576  0.00  0.00    -0.449 OA
ATOM      3  C   UNL     1     -35.182  23.166   2.578  0.00  0.00    +0.077 C 
ATOM      4  C   UNL     1     -34.955  24.689   2.582  0.00  0.00    +0.038 C 
ATOM      5  C   UNL     1     -36.550  22.885   3.202  0.00  0.00    +0.290 C 
ATOM      6  C   UNL     1     -33.706  24.847   1.717  0.00  0.00    +0.005 C 
ATOM      7  C   UNL     1     -34.824  22.843   1.162  0.00  0.00    +0.036 C 
ATOM      8  C   UNL     1     -33.958  23.763   0.701  0.00  0.00    +0.003 C 
ATOM      9  C   UNL     1     -35.036  25.139   3.999  0.00  0.00    +0.090 C 
ATOM     10  C   UNL     1     -35.814  24.470   4.865  0.00  0.00    +0.177 C 
BRANCH   9  12
ATOM     11  O   UNL     1     -33.322  26.264   5.187  0.00  0.00    -0.245 OA
ATOM     12  C   UNL     1     -34.311  26.315   4.469  0.00  0.00    +0.340 C 
BRANCH  12  13
ATOM     13  O   UNL     1     -34.918  27.430   3.982  0.00  0.00    -0.441 OA
ATOM     14  C   UNL     1     -34.093  28.283   3.183  0.00  0.00    +0.256 C 
ENDBRANCH  12  13
ENDBRANCH   9  12
BRANCH   7  15
ATOM     15  C   UNL     1     -35.297  21.618   0.473  0.00  0.00    +0.137 C 
BRANCH  15  16
ATOM     16  O   UNL     1     -36.618  21.804  -0.017  0.00  0.00    -0.382 OA
ATOM     17  H   UNL     1     -36.605  22.441  -0.749  0.00  0.00    +0.210 HD
ENDBRANCH  15  16
ENDBRANCH   7  15
ENDBRANCH   1   5
BRANCH   1  19
ATOM     18  O   UNL     1     -39.683  24.303   3.210  0.00  0.00    -0.326 OA
ATOM     19  C   UNL     1     -38.877  23.151   2.956  0.00  0.00    +0.268 C 
ATOM     20  C   UNL     1     -39.624  22.162   2.058  0.00  0.00    +0.197 C 
ATOM     21  C   UNL     1     -40.097  22.823   0.766  0.00  0.00    +0.172 C 
ATOM     22  C   UNL     1     -40.845  24.123   1.068  0.00  0.00    +0.169 C 
ATOM     23  C   UNL     1     -40.041  25.017   2.021  0.00  0.00    +0.176 C 
BRANCH  20  24
ATOM     24  O   UNL     1     -38.788  21.054   1.744  0.00  0.00    -0.378 OA
ATOM     25  H   UNL     1     -39.306  20.382   1.275  0.00  0.00    +0.211 HD
ENDBRANCH  20  24
BRANCH  21  26
ATOM     26  O   UNL     1     -40.993  21.937   0.089  0.00  0.00    -0.379 OA
ATOM     27  H   UNL     1     -41.901  22.272   0.169  0.00  0.00    +0.211 HD
ENDBRANCH  21  26
BRANCH  22  28
ATOM     28  O   UNL     1     -41.076  24.797  -0.167  0.00  0.00    -0.379 OA
ATOM     29  H   UNL     1     -40.778  25.717  -0.094  0.00  0.00    +0.211 HD
ENDBRANCH  22  28
BRANCH  23  30
ATOM     30  C   UNL     1     -40.834  26.244   2.461  0.00  0.00    +0.169 C 
BRANCH  30  31
ATOM     31  O   UNL     1     -40.417  26.606   3.765  0.00  0.00    -0.379 OA
ATOM     32  H   UNL     1     -41.183  26.610   4.360  0.00  0.00    +0.211 HD
ENDBRANCH  30  31
ENDBRANCH  23  30
ENDBRANCH   1  19
TORSDOF 11
ENDMDL
MODEL 8
REMARK VINA RESULT:      -5.3      1.643      6.610
REMARK  Name = 51066531
REMARK  11 active torsions:
REMARK  status: ('A' for Active; 'I' for Inactive)
REMARK    1  A    between atoms: O_1  and  C_5
REMARK    2  A    between atoms: O_1  and  C_19
REMARK    3  A    between atoms: C_7  and  C_15
REMARK    4  A    between atoms: C_9  and  C_12
REMARK    5  A    between atoms: C_12  and  O_13
REMARK    6  A    between atoms: C_15  and  O_16
REMARK    7  A    between atoms: C_20  and  O_24
REMARK    8  A    between atoms: C_21  and  O_26
REMARK    9  A    between atoms: C_22  and  O_28
REMARK   10  A    between atoms: C_23  and  C_30
REMARK   11  A    between atoms: C_30  and  O_31
REMARK                            x       y       z     vdW  Elec       q    Type
REMARK                         _______ _______ _______ _____ _____    ______ ____
ROOT
ATOM      1  O   UNL     1     -36.812  22.853   2.071  0.00  0.00    -0.293 OA
ENDROOT
BRANCH   1   5
ATOM      2  O   UNL     1     -36.598  24.883   0.866  0.00  0.00    -0.449 OA
ATOM      3  C   UNL     1     -38.395  23.341   0.287  0.00  0.00    +0.077 C 
ATOM      4  C   UNL     1     -39.335  24.043   1.285  0.00  0.00    +0.038 C 
ATOM      5  C   UNL     1     -36.962  23.480   0.802  0.00  0.00    +0.290 C 
ATOM      6  C   UNL     1     -40.720  23.613   0.805  0.00  0.00    +0.005 C 
ATOM      7  C   UNL     1     -39.104  22.034   0.122  0.00  0.00    +0.036 C 
ATOM      8  C   UNL     1     -40.415  22.204   0.366  0.00  0.00    +0.003 C 
ATOM      9  C   UNL     1     -38.899  25.463   1.371  0.00  0.00    +0.090 C 
ATOM     10  C   UNL     1     -37.608  25.774   1.173  0.00  0.00    +0.177 C 
BRANCH   9  12
ATOM     11  O   UNL     1     -40.232  27.363   0.891  0.00  0.00    -0.245 OA
ATOM     12  C   UNL     1     -39.837  26.532   1.698  0.00  0.00    +0.340 C 
BRANCH  12  13
ATOM     13  O   UNL     1     -40.174  26.436   3.011  0.00  0.00    -0.441 OA
ATOM     14  C   UNL     1     -41.559  26.634   3.311  0.00  0.00    +0.256 C 
ENDBRANCH  12  13
ENDBRANCH   9  12
BRANCH   7  15
ATOM     15  C   UNL     1     -38.423  20.805  -0.353  0.00  0.00    +0.137 C 
BRANCH  15  16
ATOM     16  O   UNL     1     -37.880  20.084   0.745  0.00  0.00    -0.382 OA
ATOM     17  H   UNL     1     -37.178  19.493   0.429  0.00  0.00    +0.210 HD
ENDBRANCH  15  16
ENDBRANCH   7  15
ENDBRANCH   1   5
BRANCH   1  19
ATOM     18  O   UNL     1     -34.608  23.505   2.652  0.00  0.00    -0.326 OA
ATOM     19  C   UNL     1     -35.469  22.425   2.286  0.00  0.00    +0.268 C 
ATOM     20  C   UNL     1     -35.370  21.291   3.308  0.00  0.00    +0.197 C 
ATOM     21  C   UNL     1     -35.647  21.785   4.726  0.00  0.00    +0.172 C 
ATOM     22  C   UNL     1     -34.802  23.022   5.040  0.00  0.00    +0.169 C 
ATOM     23  C   UNL     1     -34.923  24.073   3.929  0.00  0.00    +0.176 C 
BRANCH  20  24
ATOM     24  O   UNL     1     -36.286  20.253   2.982  0.00  0.00    -0.378 OA
ATOM     25  H   UNL     1     -36.308  19.603   3.702  0.00  0.00    +0.211 HD
ENDBRANCH  20  24
BRANCH  21  26
ATOM     26  O   UNL     1     -35.298  20.756   5.656  0.00  0.00    -0.379 OA
ATOM     27  H   UNL     1     -36.103  20.303   5.953  0.00  0.00    +0.211 HD
ENDBRANCH  21  26
BRANCH  22  28
ATOM     28  O   UNL     1     -35.251  23.559   6.281  0.00  0.00    -0.379 OA
ATOM     29  H   UNL     1     -35.855  22.931   6.707  0.00  0.00    +0.211 HD
ENDBRANCH  22  28
BRANCH  23  30
ATOM     30  C   UNL     1     -33.969  25.245   4.142  0.00  0.00    +0.169 C 
BRANCH  30  31
ATOM     31  O   UNL     1     -34.575  26.161   5.035  0.00  0.00    -0.379 OA
ATOM     32  H   UNL     1     -34.025  26.957   5.104  0.00  0.00    +0.211 HD
ENDBRANCH  30  31
ENDBRANCH  23  30
ENDBRANCH   1  19
TORSDOF 11
ENDMDL
MODEL 9
REMARK VINA RESULT:      -5.3      1.914      4.787
REMARK  Name = 51066531
REMARK  11 active torsions:
REMARK  status: ('A' for Active; 'I' for Inactive)
REMARK    1  A    between atoms: O_1  and  C_5
REMARK    2  A    between atoms: O_1  and  C_19
REMARK    3  A    between atoms: C_7  and  C_15
REMARK    4  A    between atoms: C_9  and  C_12
REMARK    5  A    between atoms: C_12  and  O_13
REMARK    6  A    between atoms: C_15  and  O_16
REMARK    7  A    between atoms: C_20  and  O_24
REMARK    8  A    between atoms: C_21  and  O_26
REMARK    9  A    between atoms: C_22  and  O_28
REMARK   10  A    between atoms: C_23  and  C_30
REMARK   11  A    between atoms: C_30  and  O_31
REMARK                            x       y       z     vdW  Elec       q    Type
REMARK                         _______ _______ _______ _____ _____    ______ ____
ROOT
ATOM      1  O   UNL     1     -37.050  23.387   2.388  0.00  0.00    -0.293 OA
ENDROOT
BRANCH   1   5
ATOM      2  O   UNL     1     -36.046  21.642   3.639  0.00  0.00    -0.449 OA
ATOM      3  C   UNL     1     -37.414  21.081   1.701  0.00  0.00    +0.077 C 
ATOM      4  C   UNL     1     -36.172  21.133   0.793  0.00  0.00    +0.038 C 
ATOM      5  C   UNL     1     -37.200  22.053   2.861  0.00  0.00    +0.290 C 
ATOM      6  C   UNL     1     -36.616  20.337  -0.433  0.00  0.00    +0.005 C 
ATOM      7  C   UNL     1     -38.501  21.218   0.682  0.00  0.00    +0.036 C 
ATOM      8  C   UNL     1     -38.063  20.754  -0.502  0.00  0.00    +0.003 C 
ATOM      9  C   UNL     1     -35.001  20.763   1.633  0.00  0.00    +0.090 C 
ATOM     10  C   UNL     1     -35.012  21.041   2.947  0.00  0.00    +0.177 C 
BRANCH   9  12
ATOM     11  O   UNL     1     -33.114  20.650   0.203  0.00  0.00    -0.245 OA
ATOM     12  C   UNL     1     -33.818  20.130   1.059  0.00  0.00    +0.340 C 
BRANCH  12  13
ATOM     13  O   UNL     1     -33.654  18.906   1.627  0.00  0.00    -0.441 OA
ATOM     14  C   UNL     1     -32.445  18.222   1.282  0.00  0.00    +0.256 C 
ENDBRANCH  12  13
ENDBRANCH   9  12
BRANCH   7  15
ATOM     15  C   UNL     1     -39.865  21.693   1.020  0.00  0.00    +0.137 C 
BRANCH  15  16
ATOM     16  O   UNL     1     -40.366  20.993   2.150  0.00  0.00    -0.382 OA
ATOM     17  H   UNL     1     -39.694  20.984   2.850  0.00  0.00    +0.210 HD
ENDBRANCH  15  16
ENDBRANCH   7  15
ENDBRANCH   1   5
BRANCH   1  19
ATOM     18  O   UNL     1     -36.886  24.564   4.440  0.00  0.00    -0.326 OA
ATOM     19  C   UNL     1     -37.668  24.324   3.268  0.00  0.00    +0.268 C 
ATOM     20  C   UNL     1     -38.010  25.645   2.573  0.00  0.00    +0.197 C 
ATOM     21  C   UNL     1     -36.756  26.460   2.266  0.00  0.00    +0.172 C 
ATOM     22  C   UNL     1     -35.877  26.587   3.513  0.00  0.00    +0.169 C 
ATOM     23  C   UNL     1     -35.642  25.220   4.168  0.00  0.00    +0.176 C 
BRANCH  20  24
ATOM     24  O   UNL     1     -38.719  25.397   1.366  0.00  0.00    -0.378 OA
ATOM     25  H   UNL     1     -39.507  25.962   1.331  0.00  0.00    +0.211 HD
ENDBRANCH  20  24
BRANCH  21  26
ATOM     26  O   UNL     1     -37.143  27.774   1.855  0.00  0.00    -0.379 OA
ATOM     27  H   UNL     1     -36.400  28.385   1.985  0.00  0.00    +0.211 HD
ENDBRANCH  21  26
BRANCH  22  28
ATOM     28  O   UNL     1     -34.636  27.168   3.120  0.00  0.00    -0.379 OA
ATOM     29  H   UNL     1     -34.661  27.375   2.173  0.00  0.00    +0.211 HD
ENDBRANCH  22  28
BRANCH  23  30
ATOM     30  C   UNL     1     -34.902  25.340   5.496  0.00  0.00    +0.169 C 
BRANCH  30  31
ATOM     31  O   UNL     1     -33.540  25.618   5.230  0.00  0.00    -0.379 OA
ATOM     32  H   UNL     1     -33.300  26.468   5.630  0.00  0.00    +0.211 HD
ENDBRANCH  30  31
ENDBRANCH  23  30
ENDBRANCH   1  19
TORSDOF 11
ENDMDL
