MODEL 1
REMARK VINA RESULT:      -5.9      0.000      0.000
REMARK  Name = 191264
REMARK  12 active torsions:
REMARK  status: ('A' for Active; 'I' for Inactive)
REMARK    1  A    between atoms: C_1  and  N_3
REMARK    2  A    between atoms: C_1  and  C_18
REMARK    3  A    between atoms: C_1  and  C_21
REMARK    4  A    between atoms: C_4  and  O_6
REMARK    5  A    between atoms: O_6  and  C_7
REMARK    6  A    between atoms: C_7  and  C_8
REMARK    7  A    between atoms: C_13  and  N_16
REMARK    8  A    between atoms: C_18  and  C_20
REMARK    9  A    between atoms: C_21  and  C_22
REMARK   10  A    between atoms: C_22  and  C_23
REMARK   11  A    between atoms: C_23  and  N_24
REMARK   12  A    between atoms: N_24  and  C_27
REMARK                            x       y       z     vdW  Elec       q    Type
REMARK                         _______ _______ _______ _____ _____    ______ ____
ROOT
ATOM      1  C   UNL     1     -31.409  29.664   5.278  0.00  0.00    +0.134 C 
ENDROOT
BRANCH   1   3
ATOM      2  O   UNL     1     -31.848  27.134   3.919  0.00  0.00    -0.226 OA
ATOM      3  N   UNL     1     -32.607  28.867   5.263  0.00  0.00    -0.266 N 
ATOM      4  C   UNL     1     -32.729  27.668   4.585  0.00  0.00    +0.402 C 
ATOM      5  H   UNL     1     -33.388  29.195   5.766  0.00  0.00    +0.153 HD
BRANCH   4   6
ATOM      6  O   UNL     1     -33.982  27.157   4.765  0.00  0.00    -0.430 OA
BRANCH   6   7
ATOM      7  C   UNL     1     -34.087  26.076   5.699  0.00  0.00    +0.237 C 
BRANCH   7   8
ATOM      8  C   UNL     1     -34.577  24.854   4.980  0.00  0.00    +0.021 C 
ATOM      9  C   UNL     1     -34.552  24.817   3.591  0.00  0.00    +0.001 C 
ATOM     10  C   UNL     1     -35.051  23.769   5.709  0.00  0.00    +0.001 C 
ATOM     11  C   UNL     1     -35.007  23.680   2.922  0.00  0.00    +0.024 C 
ATOM     12  C   UNL     1     -35.505  22.633   5.040  0.00  0.00    +0.024 C 
ATOM     13  C   UNL     1     -35.483  22.589   3.646  0.00  0.00    +0.143 C 
BRANCH  13  16
ATOM     14  O   UNL     1     -36.992  21.509   2.279  0.00  0.00    -0.126 OA
ATOM     15  O   UNL     1     -35.295  20.363   3.069  0.00  0.00    -0.126 OA
ATOM     16  N   UNL     1     -35.945  21.432   2.965  0.00  0.00    +0.058 N 
ENDBRANCH  13  16
ENDBRANCH   7   8
ENDBRANCH   6   7
ENDBRANCH   4   6
ENDBRANCH   1   3
BRANCH   1  18
ATOM     17  O   UNL     1     -31.434  29.666   7.685  0.00  0.00    -0.293 OA
ATOM     18  C   UNL     1     -30.782  29.489   6.656  0.00  0.00    +0.185 C 
BRANCH  18  20
ATOM     19 CL   UNL     1     -28.520  29.584   8.138  0.00  0.00    -0.105 Cl
ATOM     20  C   UNL     1     -29.335  29.044   6.663  0.00  0.00    +0.161 C 
ENDBRANCH  18  20
ENDBRANCH   1  18
BRANCH   1  21
ATOM     21  C   UNL     1     -31.683  31.144   5.006  0.00  0.00    +0.029 C 
BRANCH  21  22
ATOM     22  C   UNL     1     -31.707  31.464   3.506  0.00  0.00    +0.029 C 
BRANCH  22  23
ATOM     23  C   UNL     1     -33.104  31.820   3.010  0.00  0.00    +0.129 C 
BRANCH  23  24
ATOM     24  N   UNL     1     -34.103  31.026   3.725  0.00  0.00    -0.240 NA
BRANCH  24  27
ATOM     25  N   UNL     1     -35.976  31.305   2.248  0.00  0.00    -0.370 N 
ATOM     26  N   UNL     1     -35.395  29.238   3.013  0.00  0.00    -0.370 N 
ATOM     27  C   UNL     1     -35.103  30.582   3.029  0.00  0.00    +0.189 C 
ATOM     28  H   UNL     1     -35.877  32.282   2.173  0.00  0.00    +0.159 HD
ATOM     29  H   UNL     1     -36.701  30.846   1.766  0.00  0.00    +0.159 HD
ATOM     30  H   UNL     1     -34.845  28.608   3.532  0.00  0.00    +0.159 HD
ATOM     31  H   UNL     1     -36.157  28.906   2.484  0.00  0.00    +0.159 HD
ENDBRANCH  24  27
ENDBRANCH  23  24
ENDBRANCH  22  23
ENDBRANCH  21  22
ENDBRANCH   1  21
TORSDOF 12
ENDMDL
MODEL 2
REMARK VINA RESULT:      -5.7      5.592      8.663
REMARK  Name = 191264
REMARK  12 active torsions:
REMARK  status: ('A' for Active; 'I' for Inactive)
REMARK    1  A    between atoms: C_1  and  N_3
REMARK    2  A    between atoms: C_1  and  C_18
REMARK    3  A    between atoms: C_1  and  C_21
REMARK    4  A    between atoms: C_4  and  O_6
REMARK    5  A    between atoms: O_6  and  C_7
REMARK    6  A    between atoms: C_7  and  C_8
REMARK    7  A    between atoms: C_13  and  N_16
REMARK    8  A    between atoms: C_18  and  C_20
REMARK    9  A    between atoms: C_21  and  C_22
REMARK   10  A    between atoms: C_22  and  C_23
REMARK   11  A    between atoms: C_23  and  N_24
REMARK   12  A    between atoms: N_24  and  C_27
REMARK                            x       y       z     vdW  Elec       q    Type
REMARK                         _______ _______ _______ _____ _____    ______ ____
ROOT
ATOM      1  C   UNL     1     -35.689  21.809   3.367  0.00  0.00    +0.134 C 
ENDROOT
BRANCH   1   3
ATOM      2  O   UNL     1     -36.784  24.357   2.505  0.00  0.00    -0.226 OA
ATOM      3  N   UNL     1     -37.056  22.253   3.445  0.00  0.00    -0.266 N 
ATOM      4  C   UNL     1     -37.491  23.491   3.008  0.00  0.00    +0.402 C 
ATOM      5  H   UNL     1     -37.721  21.640   3.833  0.00  0.00    +0.153 HD
BRANCH   4   6
ATOM      6  O   UNL     1     -38.835  23.611   3.218  0.00  0.00    -0.430 OA
BRANCH   6   7
ATOM      7  C   UNL     1     -39.647  23.678   2.041  0.00  0.00    +0.237 C 
BRANCH   7   8
ATOM      8  C   UNL     1     -40.547  24.876   2.133  0.00  0.00    +0.021 C 
ATOM      9  C   UNL     1     -41.413  25.167   1.086  0.00  0.00    +0.001 C 
ATOM     10  C   UNL     1     -40.505  25.682   3.265  0.00  0.00    +0.001 C 
ATOM     11  C   UNL     1     -42.250  26.280   1.172  0.00  0.00    +0.024 C 
ATOM     12  C   UNL     1     -41.341  26.795   3.350  0.00  0.00    +0.024 C 
ATOM     13  C   UNL     1     -42.214  27.094   2.304  0.00  0.00    +0.143 C 
BRANCH  13  16
ATOM     14  O   UNL     1     -42.675  29.231   3.033  0.00  0.00    -0.126 OA
ATOM     15  O   UNL     1     -44.186  28.192   1.827  0.00  0.00    -0.126 OA
ATOM     16  N   UNL     1     -43.066  28.226   2.392  0.00  0.00    +0.058 N 
ENDBRANCH  13  16
ENDBRANCH   7   8
ENDBRANCH   6   7
ENDBRANCH   4   6
ENDBRANCH   1   3
BRANCH   1  18
ATOM     17  O   UNL     1     -36.579  19.962   2.104  0.00  0.00    -0.293 OA
ATOM     18  C   UNL     1     -35.638  20.734   2.287  0.00  0.00    +0.185 C 
BRANCH  18  20
ATOM     19 CL   UNL     1     -33.576  19.146   1.546  0.00  0.00    -0.105 Cl
ATOM     20  C   UNL     1     -34.383  20.718   1.441  0.00  0.00    +0.161 C 
ENDBRANCH  18  20
ENDBRANCH   1  18
BRANCH   1  21
ATOM     21  C   UNL     1     -35.175  21.249   4.694  0.00  0.00    +0.029 C 
BRANCH  21  22
ATOM     22  C   UNL     1     -35.305  22.261   5.840  0.00  0.00    +0.029 C 
BRANCH  22  23
ATOM     23  C   UNL     1     -34.726  23.624   5.479  0.00  0.00    +0.129 C 
BRANCH  23  24
ATOM     24  N   UNL     1     -35.666  24.680   5.858  0.00  0.00    -0.240 NA
BRANCH  24  27
ATOM     25  N   UNL     1     -34.219  26.575   5.574  0.00  0.00    -0.370 N 
ATOM     26  N   UNL     1     -36.353  26.610   4.774  0.00  0.00    -0.370 N 
ATOM     27  C   UNL     1     -35.398  25.878   5.441  0.00  0.00    +0.189 C 
ATOM     28  H   UNL     1     -33.452  26.163   6.034  0.00  0.00    +0.159 HD
ATOM     29  H   UNL     1     -34.142  27.486   5.210  0.00  0.00    +0.159 HD
ATOM     30  H   UNL     1     -37.245  26.225   4.612  0.00  0.00    +0.159 HD
ATOM     31  H   UNL     1     -36.145  27.520   4.460  0.00  0.00    +0.159 HD
ENDBRANCH  24  27
ENDBRANCH  23  24
ENDBRANCH  22  23
ENDBRANCH  21  22
ENDBRANCH   1  21
TORSDOF 12
ENDMDL
MODEL 3
REMARK VINA RESULT:      -5.7      4.484      7.357
REMARK  Name = 191264
REMARK  12 active torsions:
REMARK  status: ('A' for Active; 'I' for Inactive)
REMARK    1  A    between atoms: C_1  and  N_3
REMARK    2  A    between atoms: C_1  and  C_18
REMARK    3  A    between atoms: C_1  and  C_21
REMARK    4  A    between atoms: C_4  and  O_6
REMARK    5  A    between atoms: O_6  and  C_7
REMARK    6  A    between atoms: C_7  and  C_8
REMARK    7  A    between atoms: C_13  and  N_16
REMARK    8  A    between atoms: C_18  and  C_20
REMARK    9  A    between atoms: C_21  and  C_22
REMARK   10  A    between atoms: C_22  and  C_23
REMARK   11  A    between atoms: C_23  and  N_24
REMARK   12  A    between atoms: N_24  and  C_27
REMARK                            x       y       z     vdW  Elec       q    Type
REMARK                         _______ _______ _______ _____ _____    ______ ____
ROOT
ATOM      1  C   UNL     1     -36.020  23.607   3.944  0.00  0.00    +0.134 C 
ENDROOT
BRANCH   1   3
ATOM      2  O   UNL     1     -35.114  20.992   4.825  0.00  0.00    -0.226 OA
ATOM      3  N   UNL     1     -35.897  22.406   3.160  0.00  0.00    -0.266 N 
ATOM      4  C   UNL     1     -35.454  21.197   3.665  0.00  0.00    +0.402 C 
ATOM      5  H   UNL     1     -36.144  22.446   2.208  0.00  0.00    +0.153 HD
BRANCH   4   6
ATOM      6  O   UNL     1     -35.450  20.254   2.677  0.00  0.00    -0.430 OA
BRANCH   6   7
ATOM      7  C   UNL     1     -35.016  20.702   1.388  0.00  0.00    +0.237 C 
BRANCH   7   8
ATOM      8  C   UNL     1     -33.707  20.048   1.057  0.00  0.00    +0.021 C 
ATOM      9  C   UNL     1     -32.790  20.713   0.251  0.00  0.00    +0.001 C 
ATOM     10  C   UNL     1     -33.422  18.784   1.561  0.00  0.00    +0.001 C 
ATOM     11  C   UNL     1     -31.573  20.105  -0.056  0.00  0.00    +0.024 C 
ATOM     12  C   UNL     1     -32.205  18.177   1.255  0.00  0.00    +0.024 C 
ATOM     13  C   UNL     1     -31.279  18.838   0.446  0.00  0.00    +0.143 C 
BRANCH  13  16
ATOM     14  O   UNL     1     -28.992  18.908   0.169  0.00  0.00    -0.126 OA
ATOM     15  O   UNL     1     -30.026  17.001  -0.167  0.00  0.00    -0.126 OA
ATOM     16  N   UNL     1     -30.040  18.219   0.134  0.00  0.00    +0.058 N 
ENDBRANCH  13  16
ENDBRANCH   7   8
ENDBRANCH   6   7
ENDBRANCH   4   6
ENDBRANCH   1   3
BRANCH   1  18
ATOM     17  O   UNL     1     -38.346  23.714   3.329  0.00  0.00    -0.293 OA
ATOM     18  C   UNL     1     -37.281  24.317   3.464  0.00  0.00    +0.185 C 
BRANCH  18  20
ATOM     19 CL   UNL     1     -38.291  26.348   1.987  0.00  0.00    -0.105 Cl
ATOM     20  C   UNL     1     -37.138  25.804   3.215  0.00  0.00    +0.161 C 
ENDBRANCH  18  20
ENDBRANCH   1  18
BRANCH   1  21
ATOM     21  C   UNL     1     -34.808  24.529   3.802  0.00  0.00    +0.029 C 
BRANCH  21  22
ATOM     22  C   UNL     1     -34.026  24.664   5.114  0.00  0.00    +0.029 C 
BRANCH  22  23
ATOM     23  C   UNL     1     -34.206  26.034   5.760  0.00  0.00    +0.129 C 
BRANCH  23  24
ATOM     24  N   UNL     1     -33.176  26.952   5.274  0.00  0.00    -0.240 NA
BRANCH  24  27
ATOM     25  N   UNL     1     -31.790  28.778   5.988  0.00  0.00    -0.370 N 
ATOM     26  N   UNL     1     -32.539  27.231   7.485  0.00  0.00    -0.370 N 
ATOM     27  C   UNL     1     -32.531  27.633   6.169  0.00  0.00    +0.189 C 
ATOM     28  H   UNL     1     -31.704  29.172   5.090  0.00  0.00    +0.159 HD
ATOM     29  H   UNL     1     -31.345  29.203   6.756  0.00  0.00    +0.159 HD
ATOM     30  H   UNL     1     -33.034  26.422   7.750  0.00  0.00    +0.159 HD
ATOM     31  H   UNL     1     -32.046  27.751   8.161  0.00  0.00    +0.159 HD
ENDBRANCH  24  27
ENDBRANCH  23  24
ENDBRANCH  22  23
ENDBRANCH  21  22
ENDBRANCH   1  21
TORSDOF 12
ENDMDL
MODEL 4
REMARK VINA RESULT:      -5.7      5.450      7.620
REMARK  Name = 191264
REMARK  12 active torsions:
REMARK  status: ('A' for Active; 'I' for Inactive)
REMARK    1  A    between atoms: C_1  and  N_3
REMARK    2  A    between atoms: C_1  and  C_18
REMARK    3  A    between atoms: C_1  and  C_21
REMARK    4  A    between atoms: C_4  and  O_6
REMARK    5  A    between atoms: O_6  and  C_7
REMARK    6  A    between atoms: C_7  and  C_8
REMARK    7  A    between atoms: C_13  and  N_16
REMARK    8  A    between atoms: C_18  and  C_20
REMARK    9  A    between atoms: C_21  and  C_22
REMARK   10  A    between atoms: C_22  and  C_23
REMARK   11  A    between atoms: C_23  and  N_24
REMARK   12  A    between atoms: N_24  and  C_27
REMARK                            x       y       z     vdW  Elec       q    Type
REMARK                         _______ _______ _______ _____ _____    ______ ____
ROOT
ATOM      1  C   UNL     1     -35.705  24.534   3.567  0.00  0.00    +0.134 C 
ENDROOT
BRANCH   1   3
ATOM      2  O   UNL     1     -34.510  24.875   0.942  0.00  0.00    -0.226 OA
ATOM      3  N   UNL     1     -35.480  23.528   2.564  0.00  0.00    -0.266 N 
ATOM      4  C   UNL     1     -34.902  23.781   1.334  0.00  0.00    +0.402 C 
ATOM      5  H   UNL     1     -35.754  22.603   2.764  0.00  0.00    +0.153 HD
BRANCH   4   6
ATOM      6  O   UNL     1     -34.826  22.625   0.609  0.00  0.00    -0.430 OA
BRANCH   6   7
ATOM      7  C   UNL     1     -33.665  22.481  -0.217  0.00  0.00    +0.237 C 
BRANCH   7   8
ATOM      8  C   UNL     1     -33.007  21.167   0.087  0.00  0.00    +0.021 C 
ATOM      9  C   UNL     1     -33.678  20.224   0.858  0.00  0.00    +0.001 C 
ATOM     10  C   UNL     1     -31.735  20.903  -0.407  0.00  0.00    +0.001 C 
ATOM     11  C   UNL     1     -33.068  19.002   1.139  0.00  0.00    +0.024 C 
ATOM     12  C   UNL     1     -31.125  19.681  -0.125  0.00  0.00    +0.024 C 
ATOM     13  C   UNL     1     -31.792  18.730   0.649  0.00  0.00    +0.143 C 
BRANCH  13  16
ATOM     14  O   UNL     1     -30.018  17.483   1.431  0.00  0.00    -0.126 OA
ATOM     15  O   UNL     1     -31.789  16.424   0.684  0.00  0.00    -0.126 OA
ATOM     16  N   UNL     1     -31.170  17.486   0.935  0.00  0.00    +0.058 N 
ENDBRANCH  13  16
ENDBRANCH   7   8
ENDBRANCH   6   7
ENDBRANCH   4   6
ENDBRANCH   1   3
BRANCH   1  18
ATOM     17  O   UNL     1     -33.540  24.688   4.609  0.00  0.00    -0.293 OA
ATOM     18  C   UNL     1     -34.698  24.276   4.682  0.00  0.00    +0.185 C 
BRANCH  18  20
ATOM     19 CL   UNL     1     -35.052  21.783   5.671  0.00  0.00    -0.105 Cl
ATOM     20  C   UNL     1     -35.233  23.530   5.886  0.00  0.00    +0.161 C 
ENDBRANCH  18  20
ENDBRANCH   1  18
BRANCH   1  21
ATOM     21  C   UNL     1     -37.129  24.502   4.124  0.00  0.00    +0.029 C 
BRANCH  21  22
ATOM     22  C   UNL     1     -38.155  25.057   3.128  0.00  0.00    +0.029 C 
BRANCH  22  23
ATOM     23  C   UNL     1     -39.145  23.995   2.661  0.00  0.00    +0.129 C 
BRANCH  23  24
ATOM     24  N   UNL     1     -38.475  23.050   1.768  0.00  0.00    -0.240 NA
BRANCH  24  27
ATOM     25  N   UNL     1     -37.728  20.808   2.196  0.00  0.00    -0.370 N 
ATOM     26  N   UNL     1     -39.953  21.289   2.068  0.00  0.00    -0.370 N 
ATOM     27  C   UNL     1     -38.673  21.789   1.998  0.00  0.00    +0.189 C 
ATOM     28  H   UNL     1     -36.771  21.034   2.171  0.00  0.00    +0.159 HD
ATOM     29  H   UNL     1     -38.010  19.880   2.363  0.00  0.00    +0.159 HD
ATOM     30  H   UNL     1     -40.723  21.889   1.943  0.00  0.00    +0.159 HD
ATOM     31  H   UNL     1     -40.098  20.330   2.242  0.00  0.00    +0.159 HD
ENDBRANCH  24  27
ENDBRANCH  23  24
ENDBRANCH  22  23
ENDBRANCH  21  22
ENDBRANCH   1  21
TORSDOF 12
ENDMDL
MODEL 5
REMARK VINA RESULT:      -5.6      5.394      7.898
REMARK  Name = 191264
REMARK  12 active torsions:
REMARK  status: ('A' for Active; 'I' for Inactive)
REMARK    1  A    between atoms: C_1  and  N_3
REMARK    2  A    between atoms: C_1  and  C_18
REMARK    3  A    between atoms: C_1  and  C_21
REMARK    4  A    between atoms: C_4  and  O_6
REMARK    5  A    between atoms: O_6  and  C_7
REMARK    6  A    between atoms: C_7  and  C_8
REMARK    7  A    between atoms: C_13  and  N_16
REMARK    8  A    between atoms: C_18  and  C_20
REMARK    9  A    between atoms: C_21  and  C_22
REMARK   10  A    between atoms: C_22  and  C_23
REMARK   11  A    between atoms: C_23  and  N_24
REMARK   12  A    between atoms: N_24  and  C_27
REMARK                            x       y       z     vdW  Elec       q    Type
REMARK                         _______ _______ _______ _____ _____    ______ ____
ROOT
ATOM      1  C   UNL     1     -36.493  22.996   3.155  0.00  0.00    +0.134 C 
ENDROOT
BRANCH   1   3
ATOM      2  O   UNL     1     -38.313  21.251   1.713  0.00  0.00    -0.226 OA
ATOM      3  N   UNL     1     -37.904  23.179   2.939  0.00  0.00    -0.266 N 
ATOM      4  C   UNL     1     -38.698  22.292   2.235  0.00  0.00    +0.402 C 
ATOM      5  H   UNL     1     -38.330  23.983   3.314  0.00  0.00    +0.153 HD
BRANCH   4   6
ATOM      6  O   UNL     1     -39.986  22.744   2.206  0.00  0.00    -0.430 OA
BRANCH   6   7
ATOM      7  C   UNL     1     -40.261  23.785   1.261  0.00  0.00    +0.237 C 
BRANCH   7   8
ATOM      8  C   UNL     1     -40.935  24.924   1.970  0.00  0.00    +0.021 C 
ATOM      9  C   UNL     1     -42.139  25.419   1.484  0.00  0.00    +0.001 C 
ATOM     10  C   UNL     1     -40.349  25.471   3.106  0.00  0.00    +0.001 C 
ATOM     11  C   UNL     1     -42.766  26.477   2.143  0.00  0.00    +0.024 C 
ATOM     12  C   UNL     1     -40.976  26.528   3.764  0.00  0.00    +0.024 C 
ATOM     13  C   UNL     1     -42.185  27.031   3.283  0.00  0.00    +0.143 C 
BRANCH  13  16
ATOM     14  O   UNL     1     -42.128  28.890   4.645  0.00  0.00    -0.126 OA
ATOM     15  O   UNL     1     -44.065  28.247   3.838  0.00  0.00    -0.126 OA
ATOM     16  N   UNL     1     -42.823  28.108   3.954  0.00  0.00    +0.058 N 
ENDBRANCH  13  16
ENDBRANCH   7   8
ENDBRANCH   6   7
ENDBRANCH   4   6
ENDBRANCH   1   3
BRANCH   1  18
ATOM     17  O   UNL     1     -36.883  24.507   4.989  0.00  0.00    -0.293 OA
ATOM     18  C   UNL     1     -36.170  23.628   4.505  0.00  0.00    +0.185 C 
BRANCH  18  20
ATOM     19 CL   UNL     1     -35.415  21.756   6.308  0.00  0.00    -0.105 Cl
ATOM     20  C   UNL     1     -34.955  23.068   5.214  0.00  0.00    +0.161 C 
ENDBRANCH  18  20
ENDBRANCH   1  18
BRANCH   1  21
ATOM     21  C   UNL     1     -35.641  23.633   2.057  0.00  0.00    +0.029 C 
BRANCH  21  22
ATOM     22  C   UNL     1     -36.308  24.874   1.451  0.00  0.00    +0.029 C 
BRANCH  22  23
ATOM     23  C   UNL     1     -35.360  26.066   1.378  0.00  0.00    +0.129 C 
BRANCH  23  24
ATOM     24  N   UNL     1     -34.680  26.240   2.662  0.00  0.00    -0.240 NA
BRANCH  24  27
ATOM     25  N   UNL     1     -35.065  28.569   3.100  0.00  0.00    -0.370 N 
ATOM     26  N   UNL     1     -35.585  26.990   4.660  0.00  0.00    -0.370 N 
ATOM     27  C   UNL     1     -35.077  27.227   3.404  0.00  0.00    +0.189 C 
ATOM     28  H   UNL     1     -34.724  28.874   2.228  0.00  0.00    +0.159 HD
ATOM     29  H   UNL     1     -35.396  29.225   3.755  0.00  0.00    +0.159 HD
ATOM     30  H   UNL     1     -35.648  26.069   5.000  0.00  0.00    +0.159 HD
ATOM     31  H   UNL     1     -35.884  27.744   5.220  0.00  0.00    +0.159 HD
ENDBRANCH  24  27
ENDBRANCH  23  24
ENDBRANCH  22  23
ENDBRANCH  21  22
ENDBRANCH   1  21
TORSDOF 12
ENDMDL
MODEL 6
REMARK VINA RESULT:      -5.6      2.770      4.458
REMARK  Name = 191264
REMARK  12 active torsions:
REMARK  status: ('A' for Active; 'I' for Inactive)
REMARK    1  A    between atoms: C_1  and  N_3
REMARK    2  A    between atoms: C_1  and  C_18
REMARK    3  A    between atoms: C_1  and  C_21
REMARK    4  A    between atoms: C_4  and  O_6
REMARK    5  A    between atoms: O_6  and  C_7
REMARK    6  A    between atoms: C_7  and  C_8
REMARK    7  A    between atoms: C_13  and  N_16
REMARK    8  A    between atoms: C_18  and  C_20
REMARK    9  A    between atoms: C_21  and  C_22
REMARK   10  A    between atoms: C_22  and  C_23
REMARK   11  A    between atoms: C_23  and  N_24
REMARK   12  A    between atoms: N_24  and  C_27
REMARK                            x       y       z     vdW  Elec       q    Type
REMARK                         _______ _______ _______ _____ _____    ______ ____
ROOT
ATOM      1  C   UNL     1     -32.439  30.350   4.475  0.00  0.00    +0.134 C 
ENDROOT
BRANCH   1   3
ATOM      2  O   UNL     1     -31.958  28.539   6.694  0.00  0.00    -0.226 OA
ATOM      3  N   UNL     1     -32.687  28.934   4.526  0.00  0.00    -0.266 N 
ATOM      4  C   UNL     1     -32.425  28.144   5.631  0.00  0.00    +0.402 C 
ATOM      5  H   UNL     1     -33.065  28.500   3.727  0.00  0.00    +0.153 HD
BRANCH   4   6
ATOM      6  O   UNL     1     -32.768  26.848   5.368  0.00  0.00    -0.430 OA
BRANCH   6   7
ATOM      7  C   UNL     1     -33.749  26.273   6.237  0.00  0.00    +0.237 C 
BRANCH   7   8
ATOM      8  C   UNL     1     -34.701  25.446   5.422  0.00  0.00    +0.021 C 
ATOM      9  C   UNL     1     -34.281  24.227   4.904  0.00  0.00    +0.001 C 
ATOM     10  C   UNL     1     -35.992  25.907   5.194  0.00  0.00    +0.001 C 
ATOM     11  C   UNL     1     -35.165  23.458   4.147  0.00  0.00    +0.024 C 
ATOM     12  C   UNL     1     -36.876  25.138   4.437  0.00  0.00    +0.024 C 
ATOM     13  C   UNL     1     -36.462  23.913   3.913  0.00  0.00    +0.143 C 
BRANCH  13  16
ATOM     14  O   UNL     1     -36.925  22.125   2.534  0.00  0.00    -0.126 OA
ATOM     15  O   UNL     1     -38.571  23.465   3.092  0.00  0.00    -0.126 OA
ATOM     16  N   UNL     1     -37.362  23.130   3.143  0.00  0.00    +0.058 N 
ENDBRANCH  13  16
ENDBRANCH   7   8
ENDBRANCH   6   7
ENDBRANCH   4   6
ENDBRANCH   1   3
BRANCH   1  18
ATOM     17  O   UNL     1     -34.693  30.891   3.822  0.00  0.00    -0.293 OA
ATOM     18  C   UNL     1     -33.494  30.947   3.549  0.00  0.00    +0.185 C 
BRANCH  18  20
ATOM     19 CL   UNL     1     -33.429  33.349   2.305  0.00  0.00    -0.105 Cl
ATOM     20  C   UNL     1     -32.961  31.643   2.315  0.00  0.00    +0.161 C 
ENDBRANCH  18  20
ENDBRANCH   1  18
BRANCH   1  21
ATOM     21  C   UNL     1     -31.037  30.685   3.963  0.00  0.00    +0.029 C 
BRANCH  21  22
ATOM     22  C   UNL     1     -30.079  31.061   5.100  0.00  0.00    +0.029 C 
BRANCH  22  23
ATOM     23  C   UNL     1     -28.883  30.119   5.188  0.00  0.00    +0.129 C 
BRANCH  23  24
ATOM     24  N   UNL     1     -28.275  30.210   6.515  0.00  0.00    -0.240 NA
BRANCH  24  27
ATOM     25  N   UNL     1     -28.574  29.360   8.741  0.00  0.00    -0.370 N 
ATOM     26  N   UNL     1     -29.002  28.048   6.926  0.00  0.00    -0.370 N 
ATOM     27  C   UNL     1     -28.590  29.285   7.367  0.00  0.00    +0.189 C 
ATOM     28  H   UNL     1     -28.297  30.193   9.185  0.00  0.00    +0.159 HD
ATOM     29  H   UNL     1     -28.838  28.580   9.279  0.00  0.00    +0.159 HD
ATOM     30  H   UNL     1     -29.058  27.862   5.961  0.00  0.00    +0.159 HD
ATOM     31  H   UNL     1     -29.239  27.348   7.577  0.00  0.00    +0.159 HD
ENDBRANCH  24  27
ENDBRANCH  23  24
ENDBRANCH  22  23
ENDBRANCH  21  22
ENDBRANCH   1  21
TORSDOF 12
ENDMDL
MODEL 7
REMARK VINA RESULT:      -5.6      5.142      7.751
REMARK  Name = 191264
REMARK  12 active torsions:
REMARK  status: ('A' for Active; 'I' for Inactive)
REMARK    1  A    between atoms: C_1  and  N_3
REMARK    2  A    between atoms: C_1  and  C_18
REMARK    3  A    between atoms: C_1  and  C_21
REMARK    4  A    between atoms: C_4  and  O_6
REMARK    5  A    between atoms: O_6  and  C_7
REMARK    6  A    between atoms: C_7  and  C_8
REMARK    7  A    between atoms: C_13  and  N_16
REMARK    8  A    between atoms: C_18  and  C_20
REMARK    9  A    between atoms: C_21  and  C_22
REMARK   10  A    between atoms: C_22  and  C_23
REMARK   11  A    between atoms: C_23  and  N_24
REMARK   12  A    between atoms: N_24  and  C_27
REMARK                            x       y       z     vdW  Elec       q    Type
REMARK                         _______ _______ _______ _____ _____    ______ ____
ROOT
ATOM      1  C   UNL     1     -36.903  23.764   2.822  0.00  0.00    +0.134 C 
ENDROOT
BRANCH   1   3
ATOM      2  O   UNL     1     -35.241  22.199   4.618  0.00  0.00    -0.226 OA
ATOM      3  N   UNL     1     -36.492  22.393   2.673  0.00  0.00    -0.266 N 
ATOM      4  C   UNL     1     -35.694  21.723   3.583  0.00  0.00    +0.402 C 
ATOM      5  H   UNL     1     -36.796  21.902   1.876  0.00  0.00    +0.153 HD
BRANCH   4   6
ATOM      6  O   UNL     1     -35.483  20.442   3.160  0.00  0.00    -0.430 OA
BRANCH   6   7
ATOM      7  C   UNL     1     -35.545  20.233   1.744  0.00  0.00    +0.237 C 
BRANCH   7   8
ATOM      8  C   UNL     1     -34.154  20.044   1.216  0.00  0.00    +0.021 C 
ATOM      9  C   UNL     1     -33.459  18.877   1.509  0.00  0.00    +0.001 C 
ATOM     10  C   UNL     1     -33.573  21.038   0.436  0.00  0.00    +0.001 C 
ATOM     11  C   UNL     1     -32.166  18.701   1.017  0.00  0.00    +0.024 C 
ATOM     12  C   UNL     1     -32.280  20.862  -0.056  0.00  0.00    +0.024 C 
ATOM     13  C   UNL     1     -31.576  19.693   0.235  0.00  0.00    +0.143 C 
BRANCH  13  16
ATOM     14  O   UNL     1     -29.704  18.398  -0.129  0.00  0.00    -0.126 OA
ATOM     15  O   UNL     1     -29.688  20.477  -0.833  0.00  0.00    -0.126 OA
ATOM     16  N   UNL     1     -30.260  19.514  -0.267  0.00  0.00    +0.058 N 
ENDBRANCH  13  16
ENDBRANCH   7   8
ENDBRANCH   6   7
ENDBRANCH   4   6
ENDBRANCH   1   3
BRANCH   1  18
ATOM     17  O   UNL     1     -39.109  24.370   3.574  0.00  0.00    -0.293 OA
ATOM     18  C   UNL     1     -38.425  23.778   2.739  0.00  0.00    +0.185 C 
BRANCH  18  20
ATOM     19 CL   UNL     1     -39.786  21.545   2.043  0.00  0.00    -0.105 Cl
ATOM     20  C   UNL     1     -39.019  23.061   1.545  0.00  0.00    +0.161 C 
ENDBRANCH  18  20
ENDBRANCH   1  18
BRANCH   1  21
ATOM     21  C   UNL     1     -36.306  24.678   1.751  0.00  0.00    +0.029 C 
BRANCH  21  22
ATOM     22  C   UNL     1     -36.239  26.141   2.207  0.00  0.00    +0.029 C 
BRANCH  22  23
ATOM     23  C   UNL     1     -34.843  26.541   2.671  0.00  0.00    +0.129 C 
BRANCH  23  24
ATOM     24  N   UNL     1     -34.905  27.064   4.037  0.00  0.00    -0.240 NA
BRANCH  24  27
ATOM     25  N   UNL     1     -34.592  25.115   5.405  0.00  0.00    -0.370 N 
ATOM     26  N   UNL     1     -36.449  26.416   5.640  0.00  0.00    -0.370 N 
ATOM     27  C   UNL     1     -35.265  26.232   4.964  0.00  0.00    +0.189 C 
ATOM     28  H   UNL     1     -33.728  24.870   5.002  0.00  0.00    +0.159 HD
ATOM     29  H   UNL     1     -34.975  24.561   6.123  0.00  0.00    +0.159 HD
ATOM     30  H   UNL     1     -37.028  27.181   5.420  0.00  0.00    +0.159 HD
ATOM     31  H   UNL     1     -36.718  25.781   6.343  0.00  0.00    +0.159 HD
ENDBRANCH  24  27
ENDBRANCH  23  24
ENDBRANCH  22  23
ENDBRANCH  21  22
ENDBRANCH   1  21
TORSDOF 12
ENDMDL
MODEL 8
REMARK VINA RESULT:      -5.5      5.917      8.949
REMARK  Name = 191264
REMARK  12 active torsions:
REMARK  status: ('A' for Active; 'I' for Inactive)
REMARK    1  A    between atoms: C_1  and  N_3
REMARK    2  A    between atoms: C_1  and  C_18
REMARK    3  A    between atoms: C_1  and  C_21
REMARK    4  A    between atoms: C_4  and  O_6
REMARK    5  A    between atoms: O_6  and  C_7
REMARK    6  A    between atoms: C_7  and  C_8
REMARK    7  A    between atoms: C_13  and  N_16
REMARK    8  A    between atoms: C_18  and  C_20
REMARK    9  A    between atoms: C_21  and  C_22
REMARK   10  A    between atoms: C_22  and  C_23
REMARK   11  A    between atoms: C_23  and  N_24
REMARK   12  A    between atoms: N_24  and  C_27
REMARK                            x       y       z     vdW  Elec       q    Type
REMARK                         _______ _______ _______ _____ _____    ______ ____
ROOT
ATOM      1  C   UNL     1     -38.071  22.079   2.441  0.00  0.00    +0.134 C 
ENDROOT
BRANCH   1   3
ATOM      2  O   UNL     1     -35.698  21.975   4.114  0.00  0.00    -0.226 OA
ATOM      3  N   UNL     1     -36.967  21.161   2.349  0.00  0.00    -0.266 N 
ATOM      4  C   UNL     1     -35.871  21.185   3.192  0.00  0.00    +0.402 C 
ATOM      5  H   UNL     1     -36.992  20.474   1.644  0.00  0.00    +0.153 HD
BRANCH   4   6
ATOM      6  O   UNL     1     -35.000  20.190   2.850  0.00  0.00    -0.430 OA
BRANCH   6   7
ATOM      7  C   UNL     1     -34.998  19.809   1.470  0.00  0.00    +0.237 C 
BRANCH   7   8
ATOM      8  C   UNL     1     -33.586  19.541   1.038  0.00  0.00    +0.021 C 
ATOM      9  C   UNL     1     -32.966  18.354   1.413  0.00  0.00    +0.001 C 
ATOM     10  C   UNL     1     -32.910  20.480   0.268  0.00  0.00    +0.001 C 
ATOM     11  C   UNL     1     -31.654  18.103   1.011  0.00  0.00    +0.024 C 
ATOM     12  C   UNL     1     -31.598  20.230  -0.133  0.00  0.00    +0.024 C 
ATOM     13  C   UNL     1     -30.970  19.041   0.238  0.00  0.00    +0.143 C 
BRANCH  13  16
ATOM     14  O   UNL     1     -28.841  19.750  -0.287  0.00  0.00    -0.126 OA
ATOM     15  O   UNL     1     -29.284  17.604  -0.405  0.00  0.00    -0.126 OA
ATOM     16  N   UNL     1     -29.635  18.786  -0.171  0.00  0.00    +0.058 N 
ENDBRANCH  13  16
ENDBRANCH   7   8
ENDBRANCH   6   7
ENDBRANCH   4   6
ENDBRANCH   1   3
BRANCH   1  18
ATOM     17  O   UNL     1     -40.298  21.236   2.088  0.00  0.00    -0.293 OA
ATOM     18  C   UNL     1     -39.199  21.496   1.598  0.00  0.00    +0.185 C 
BRANCH  18  20
ATOM     19 CL   UNL     1     -38.745  19.588  -0.266  0.00  0.00    -0.105 Cl
ATOM     20  C   UNL     1     -38.886  21.307   0.129  0.00  0.00    +0.161 C 
ENDBRANCH  18  20
ENDBRANCH   1  18
BRANCH   1  21
ATOM     21  C   UNL     1     -37.713  23.482   1.947  0.00  0.00    +0.029 C 
BRANCH  21  22
ATOM     22  C   UNL     1     -38.589  24.565   2.590  0.00  0.00    +0.029 C 
BRANCH  22  23
ATOM     23  C   UNL     1     -37.765  25.628   3.307  0.00  0.00    +0.129 C 
BRANCH  23  24
ATOM     24  N   UNL     1     -37.299  25.112   4.595  0.00  0.00    -0.240 NA
BRANCH  24  27
ATOM     25  N   UNL     1     -35.067  24.612   5.328  0.00  0.00    -0.370 N 
ATOM     26  N   UNL     1     -35.730  26.769   5.003  0.00  0.00    -0.370 N 
ATOM     27  C   UNL     1     -36.099  25.445   4.957  0.00  0.00    +0.189 C 
ATOM     28  H   UNL     1     -35.201  23.637   5.338  0.00  0.00    +0.159 HD
ATOM     29  H   UNL     1     -34.196  24.992   5.584  0.00  0.00    +0.159 HD
ATOM     30  H   UNL     1     -36.378  27.470   4.762  0.00  0.00    +0.159 HD
ATOM     31  H   UNL     1     -34.818  27.016   5.280  0.00  0.00    +0.159 HD
ENDBRANCH  24  27
ENDBRANCH  23  24
ENDBRANCH  22  23
ENDBRANCH  21  22
ENDBRANCH   1  21
TORSDOF 12
ENDMDL
MODEL 9
REMARK VINA RESULT:      -5.5      4.010      8.495
REMARK  Name = 191264
REMARK  12 active torsions:
REMARK  status: ('A' for Active; 'I' for Inactive)
REMARK    1  A    between atoms: C_1  and  N_3
REMARK    2  A    between atoms: C_1  and  C_18
REMARK    3  A    between atoms: C_1  and  C_21
REMARK    4  A    between atoms: C_4  and  O_6
REMARK    5  A    between atoms: O_6  and  C_7
REMARK    6  A    between atoms: C_7  and  C_8
REMARK    7  A    between atoms: C_13  and  N_16
REMARK    8  A    between atoms: C_18  and  C_20
REMARK    9  A    between atoms: C_21  and  C_22
REMARK   10  A    between atoms: C_22  and  C_23
REMARK   11  A    between atoms: C_23  and  N_24
REMARK   12  A    between atoms: N_24  and  C_27
REMARK                            x       y       z     vdW  Elec       q    Type
REMARK                         _______ _______ _______ _____ _____    ______ ____
ROOT
ATOM      1  C   UNL     1     -35.787  20.879   2.416  0.00  0.00    +0.134 C 
ENDROOT
BRANCH   1   3
ATOM      2  O   UNL     1     -34.981  21.224   5.185  0.00  0.00    -0.226 OA
ATOM      3  N   UNL     1     -36.144  21.947   3.311  0.00  0.00    -0.266 N 
ATOM      4  C   UNL     1     -35.713  22.032   4.622  0.00  0.00    +0.402 C 
ATOM      5  H   UNL     1     -36.731  22.661   2.971  0.00  0.00    +0.153 HD
BRANCH   4   6
ATOM      6  O   UNL     1     -36.221  23.157   5.207  0.00  0.00    -0.430 OA
BRANCH   6   7
ATOM      7  C   UNL     1     -36.422  24.277   4.338  0.00  0.00    +0.237 C 
BRANCH   7   8
ATOM      8  C   UNL     1     -35.304  25.258   4.537  0.00  0.00    +0.021 C 
ATOM      9  C   UNL     1     -34.752  25.903   3.437  0.00  0.00    +0.001 C 
ATOM     10  C   UNL     1     -34.832  25.513   5.820  0.00  0.00    +0.001 C 
ATOM     11  C   UNL     1     -33.713  26.816   3.622  0.00  0.00    +0.024 C 
ATOM     12  C   UNL     1     -33.794  26.425   6.004  0.00  0.00    +0.024 C 
ATOM     13  C   UNL     1     -33.234  27.077   4.905  0.00  0.00    +0.143 C 
BRANCH  13  16
ATOM     14  O   UNL     1     -32.394  29.044   5.765  0.00  0.00    -0.126 OA
ATOM     15  O   UNL     1     -31.057  27.766   4.583  0.00  0.00    -0.126 OA
ATOM     16  N   UNL     1     -32.178  28.006   5.093  0.00  0.00    +0.058 N 
ENDBRANCH  13  16
ENDBRANCH   7   8
ENDBRANCH   6   7
ENDBRANCH   4   6
ENDBRANCH   1   3
BRANCH   1  18
ATOM     17  O   UNL     1     -34.527  22.652   1.383  0.00  0.00    -0.293 OA
ATOM     18  C   UNL     1     -34.749  21.443   1.451  0.00  0.00    +0.185 C 
BRANCH  18  20
ATOM     19 CL   UNL     1     -33.621  18.989   1.608  0.00  0.00    -0.105 Cl
ATOM     20  C   UNL     1     -33.994  20.418   0.633  0.00  0.00    +0.161 C 
ENDBRANCH  18  20
ENDBRANCH   1  18
BRANCH   1  21
ATOM     21  C   UNL     1     -36.987  20.335   1.640  0.00  0.00    +0.029 C 
BRANCH  21  22
ATOM     22  C   UNL     1     -37.724  21.433   0.864  0.00  0.00    +0.029 C 
BRANCH  22  23
ATOM     23  C   UNL     1     -39.239  21.259   0.907  0.00  0.00    +0.129 C 
BRANCH  23  24
ATOM     24  N   UNL     1     -39.772  21.845   2.137  0.00  0.00    -0.240 NA
BRANCH  24  27
ATOM     25  N   UNL     1     -40.871  23.776   1.225  0.00  0.00    -0.370 N 
ATOM     26  N   UNL     1     -39.499  23.964   3.036  0.00  0.00    -0.370 N 
ATOM     27  C   UNL     1     -40.050  23.112   2.107  0.00  0.00    +0.189 C 
ATOM     28  H   UNL     1     -41.328  23.280   0.508  0.00  0.00    +0.159 HD
ATOM     29  H   UNL     1     -41.000  24.748   1.310  0.00  0.00    +0.159 HD
ATOM     30  H   UNL     1     -38.891  23.614   3.727  0.00  0.00    +0.159 HD
ATOM     31  H   UNL     1     -39.713  24.925   3.009  0.00  0.00    +0.159 HD
ENDBRANCH  24  27
ENDBRANCH  23  24
ENDBRANCH  22  23
ENDBRANCH  21  22
ENDBRANCH   1  21
TORSDOF 12
ENDMDL
