MODEL 1
REMARK VINA RESULT:      -6.4      0.000      0.000
REMARK  Name = 193962
REMARK  5 active torsions:
REMARK  status: ('A' for Active; 'I' for Inactive)
REMARK    1  A    between atoms: N_2  and  C_10
REMARK    2  A    between atoms: C_5  and  O_21
REMARK    3  A    between atoms: C_15  and  C_17
REMARK    4  A    between atoms: O_21  and  C_22
REMARK    5  A    between atoms: C_27  and  C_31
REMARK                            x       y       z     vdW  Elec       q    Type
REMARK                         _______ _______ _______ _____ _____    ______ ____
ROOT
ATOM      1 BR   UNL     1     -30.695  30.760   4.771  0.00  0.00    -0.061 Br
ATOM      2  N   UNL     1     -34.063  25.982   6.073  0.00  0.00    -0.238 N 
ATOM      3  N   UNL     1     -33.294  27.541   4.497  0.00  0.00    -0.293 NA
ATOM      4  N   UNL     1     -32.560  27.635   6.790  0.00  0.00    -0.316 NA
ATOM      5  C   UNL     1     -32.523  28.619   4.245  0.00  0.00    +0.288 C 
ATOM      6  C   UNL     1     -33.268  27.105   5.773  0.00  0.00    +0.207 C 
ATOM      7  C   UNL     1     -31.753  29.251   5.200  0.00  0.00    +0.213 C 
ATOM      8  C   UNL     1     -31.811  28.710   6.468  0.00  0.00    +0.188 C 
ATOM      9  H   UNL     1     -34.013  25.702   7.016  0.00  0.00    +0.166 HD
ATOM     10  N   UNL     1     -31.052  29.301   7.506  0.00  0.00    -0.334 N 
ATOM     11  H   UNL     1     -31.084  28.925   8.415  0.00  0.00    +0.144 HD
ATOM     12  H   UNL     1     -30.491  30.089   7.319  0.00  0.00    +0.144 HD
ENDROOT
BRANCH   2  13
ATOM     13  C   UNL     1     -34.917  25.179   5.289  0.00  0.00    +0.058 C 
ATOM     14  C   UNL     1     -34.501  23.913   4.875  0.00  0.00    +0.016 C 
ATOM     15  C   UNL     1     -36.179  25.651   4.927  0.00  0.00    +0.016 C 
ATOM     16  C   UNL     1     -35.347  23.120   4.098  0.00  0.00    +0.012 C 
ATOM     17  C   UNL     1     -37.024  24.858   4.151  0.00  0.00    +0.012 C 
ATOM     18  C   UNL     1     -36.608  23.593   3.737  0.00  0.00    +0.069 C 
BRANCH  18  20
ATOM     19  N   UNL     1     -38.180  22.121   2.297  0.00  0.00    -0.191 NA
ATOM     20  C   UNL     1     -37.475  22.781   2.942  0.00  0.00    +0.100 C 
ENDBRANCH  18  20
ENDBRANCH   2  13
BRANCH   5  21
ATOM     21  O   UNL     1     -32.540  29.071   2.952  0.00  0.00    -0.430 OA
BRANCH  21  22
ATOM     22  C   UNL     1     -33.757  29.082   2.300  0.00  0.00    +0.140 C 
ATOM     23  C   UNL     1     -34.071  28.049   1.429  0.00  0.00    +0.013 C 
ATOM     24  C   UNL     1     -34.641  30.126   2.525  0.00  0.00    +0.013 C 
ATOM     25  C   UNL     1     -35.300  28.060   0.770  0.00  0.00    +0.009 C 
ATOM     26  C   UNL     1     -35.870  30.136   1.865  0.00  0.00    +0.009 C 
ATOM     27  C   UNL     1     -36.200  29.103   0.987  0.00  0.00    +0.068 C 
ATOM     28  C   UNL     1     -33.121  26.923   1.183  0.00  0.00    +0.034 C 
ATOM     29  C   UNL     1     -34.307  31.241   3.461  0.00  0.00    +0.034 C 
BRANCH  27  31
ATOM     30  N   UNL     1     -38.482  29.123  -0.238  0.00  0.00    -0.191 NA
ATOM     31  C   UNL     1     -37.458  29.114   0.311  0.00  0.00    +0.100 C 
ENDBRANCH  27  31
ENDBRANCH  21  22
ENDBRANCH   5  21
TORSDOF 5
ENDMDL
MODEL 2
REMARK VINA RESULT:      -6.4      0.026      1.624
REMARK  Name = 193962
REMARK  5 active torsions:
REMARK  status: ('A' for Active; 'I' for Inactive)
REMARK    1  A    between atoms: N_2  and  C_10
REMARK    2  A    between atoms: C_5  and  O_21
REMARK    3  A    between atoms: C_15  and  C_17
REMARK    4  A    between atoms: O_21  and  C_22
REMARK    5  A    between atoms: C_27  and  C_31
REMARK                            x       y       z     vdW  Elec       q    Type
REMARK                         _______ _______ _______ _____ _____    ______ ____
ROOT
ATOM      1 BR   UNL     1     -30.695  30.759   4.770  0.00  0.00    -0.061 Br
ATOM      2  N   UNL     1     -34.078  25.986   6.054  0.00  0.00    -0.238 N 
ATOM      3  N   UNL     1     -33.304  27.548   4.484  0.00  0.00    -0.293 NA
ATOM      4  N   UNL     1     -32.571  27.632   6.778  0.00  0.00    -0.316 NA
ATOM      5  C   UNL     1     -32.529  28.625   4.237  0.00  0.00    +0.288 C 
ATOM      6  C   UNL     1     -33.280  27.108   5.758  0.00  0.00    +0.207 C 
ATOM      7  C   UNL     1     -31.757  29.251   5.193  0.00  0.00    +0.213 C 
ATOM      8  C   UNL     1     -31.818  28.706   6.459  0.00  0.00    +0.188 C 
ATOM      9  H   UNL     1     -34.029  25.703   6.996  0.00  0.00    +0.166 HD
ATOM     10  N   UNL     1     -31.057  29.291   7.500  0.00  0.00    -0.334 N 
ATOM     11  H   UNL     1     -31.091  28.912   8.408  0.00  0.00    +0.144 HD
ATOM     12  H   UNL     1     -30.494  30.077   7.316  0.00  0.00    +0.144 HD
ENDROOT
BRANCH   2  13
ATOM     13  C   UNL     1     -34.935  25.189   5.267  0.00  0.00    +0.058 C 
ATOM     14  C   UNL     1     -34.524  23.922   4.852  0.00  0.00    +0.016 C 
ATOM     15  C   UNL     1     -36.193  25.668   4.904  0.00  0.00    +0.016 C 
ATOM     16  C   UNL     1     -35.372  23.134   4.072  0.00  0.00    +0.012 C 
ATOM     17  C   UNL     1     -37.041  24.880   4.124  0.00  0.00    +0.012 C 
ATOM     18  C   UNL     1     -36.630  23.613   3.708  0.00  0.00    +0.069 C 
BRANCH  18  20
ATOM     19  N   UNL     1     -38.205  22.150   2.263  0.00  0.00    -0.191 NA
ATOM     20  C   UNL     1     -37.499  22.806   2.911  0.00  0.00    +0.100 C 
ENDBRANCH  18  20
ENDBRANCH   2  13
BRANCH   5  21
ATOM     21  O   UNL     1     -32.545  29.082   2.945  0.00  0.00    -0.430 OA
BRANCH  21  22
ATOM     22  C   UNL     1     -33.760  29.094   2.290  0.00  0.00    +0.140 C 
ATOM     23  C   UNL     1     -34.647  30.135   2.522  0.00  0.00    +0.013 C 
ATOM     24  C   UNL     1     -34.073  28.066   1.414  0.00  0.00    +0.013 C 
ATOM     25  C   UNL     1     -35.875  30.148   1.860  0.00  0.00    +0.009 C 
ATOM     26  C   UNL     1     -35.301  28.080   0.753  0.00  0.00    +0.009 C 
ATOM     27  C   UNL     1     -36.202  29.121   0.976  0.00  0.00    +0.068 C 
ATOM     28  C   UNL     1     -34.315  31.244   3.465  0.00  0.00    +0.034 C 
ATOM     29  C   UNL     1     -33.121  26.944   1.161  0.00  0.00    +0.034 C 
BRANCH  27  31
ATOM     30  N   UNL     1     -38.484  29.146  -0.251  0.00  0.00    -0.191 NA
ATOM     31  C   UNL     1     -37.460  29.135   0.299  0.00  0.00    +0.100 C 
ENDBRANCH  27  31
ENDBRANCH  21  22
ENDBRANCH   5  21
TORSDOF 5
ENDMDL
MODEL 3
REMARK VINA RESULT:      -6.2      4.107      7.499
REMARK  Name = 193962
REMARK  5 active torsions:
REMARK  status: ('A' for Active; 'I' for Inactive)
REMARK    1  A    between atoms: N_2  and  C_10
REMARK    2  A    between atoms: C_5  and  O_21
REMARK    3  A    between atoms: C_15  and  C_17
REMARK    4  A    between atoms: O_21  and  C_22
REMARK    5  A    between atoms: C_27  and  C_31
REMARK                            x       y       z     vdW  Elec       q    Type
REMARK                         _______ _______ _______ _____ _____    ______ ____
ROOT
ATOM      1 BR   UNL     1     -40.478  25.778   3.377  0.00  0.00    -0.061 Br
ATOM      2  N   UNL     1     -37.950  21.048   0.713  0.00  0.00    -0.238 N 
ATOM      3  N   UNL     1     -37.835  22.771   2.301  0.00  0.00    -0.293 NA
ATOM      4  N   UNL     1     -39.780  22.502   0.907  0.00  0.00    -0.316 NA
ATOM      5  C   UNL     1     -38.439  23.832   2.876  0.00  0.00    +0.288 C 
ATOM      6  C   UNL     1     -38.550  22.158   1.336  0.00  0.00    +0.207 C 
ATOM      7  C   UNL     1     -39.695  24.281   2.525  0.00  0.00    +0.213 C 
ATOM      8  C   UNL     1     -40.325  23.571   1.524  0.00  0.00    +0.188 C 
ATOM      9  H   UNL     1     -38.508  20.635   0.015  0.00  0.00    +0.166 HD
ATOM     10  N   UNL     1     -41.617  23.968   1.104  0.00  0.00    -0.334 N 
ATOM     11  H   UNL     1     -42.079  23.471   0.391  0.00  0.00    +0.144 HD
ATOM     12  H   UNL     1     -42.055  24.744   1.524  0.00  0.00    +0.144 HD
ENDROOT
BRANCH   2  13
ATOM     13  C   UNL     1     -36.704  20.409   0.891  0.00  0.00    +0.058 C 
ATOM     14  C   UNL     1     -35.911  20.721   1.995  0.00  0.00    +0.016 C 
ATOM     15  C   UNL     1     -36.267  19.466  -0.038  0.00  0.00    +0.016 C 
ATOM     16  C   UNL     1     -34.679  20.090   2.170  0.00  0.00    +0.012 C 
ATOM     17  C   UNL     1     -35.034  18.835   0.136  0.00  0.00    +0.012 C 
ATOM     18  C   UNL     1     -34.241  19.147   1.241  0.00  0.00    +0.069 C 
BRANCH  18  20
ATOM     19  N   UNL     1     -31.955  17.972   1.565  0.00  0.00    -0.191 NA
ATOM     20  C   UNL     1     -32.980  18.499   1.419  0.00  0.00    +0.100 C 
ENDBRANCH  18  20
ENDBRANCH   2  13
BRANCH   5  21
ATOM     21  O   UNL     1     -37.722  24.462   3.858  0.00  0.00    -0.430 OA
BRANCH  21  22
ATOM     22  C   UNL     1     -36.416  24.806   3.570  0.00  0.00    +0.140 C 
ATOM     23  C   UNL     1     -35.380  24.112   4.179  0.00  0.00    +0.013 C 
ATOM     24  C   UNL     1     -36.163  25.838   2.679  0.00  0.00    +0.013 C 
ATOM     25  C   UNL     1     -34.061  24.459   3.888  0.00  0.00    +0.009 C 
ATOM     26  C   UNL     1     -34.844  26.184   2.389  0.00  0.00    +0.009 C 
ATOM     27  C   UNL     1     -33.792  25.495   2.993  0.00  0.00    +0.068 C 
ATOM     28  C   UNL     1     -35.647  23.001   5.140  0.00  0.00    +0.034 C 
ATOM     29  C   UNL     1     -37.275  26.587   2.022  0.00  0.00    +0.034 C 
BRANCH  27  31
ATOM     30  N   UNL     1     -31.341  26.139   2.455  0.00  0.00    -0.191 NA
ATOM     31  C   UNL     1     -32.441  25.850   2.696  0.00  0.00    +0.100 C 
ENDBRANCH  27  31
ENDBRANCH  21  22
ENDBRANCH   5  21
TORSDOF 5
ENDMDL
MODEL 4
REMARK VINA RESULT:      -6.0      0.648      1.969
REMARK  Name = 193962
REMARK  5 active torsions:
REMARK  status: ('A' for Active; 'I' for Inactive)
REMARK    1  A    between atoms: N_2  and  C_10
REMARK    2  A    between atoms: C_5  and  O_21
REMARK    3  A    between atoms: C_15  and  C_17
REMARK    4  A    between atoms: O_21  and  C_22
REMARK    5  A    between atoms: C_27  and  C_31
REMARK                            x       y       z     vdW  Elec       q    Type
REMARK                         _______ _______ _______ _____ _____    ______ ____
ROOT
ATOM      1 BR   UNL     1     -30.896  30.178   4.459  0.00  0.00    -0.061 Br
ATOM      2  N   UNL     1     -34.465  25.544   5.743  0.00  0.00    -0.238 N 
ATOM      3  N   UNL     1     -33.609  27.056   4.167  0.00  0.00    -0.293 NA
ATOM      4  N   UNL     1     -32.915  27.146   6.473  0.00  0.00    -0.316 NA
ATOM      5  C   UNL     1     -32.793  28.102   3.920  0.00  0.00    +0.288 C 
ATOM      6  C   UNL     1     -33.623  26.633   5.447  0.00  0.00    +0.207 C 
ATOM      7  C   UNL     1     -32.017  28.714   4.882  0.00  0.00    +0.213 C 
ATOM      8  C   UNL     1     -32.120  28.189   6.154  0.00  0.00    +0.188 C 
ATOM      9  H   UNL     1     -34.443  25.272   6.690  0.00  0.00    +0.166 HD
ATOM     10  N   UNL     1     -31.358  28.761   7.201  0.00  0.00    -0.334 N 
ATOM     11  H   UNL     1     -31.421  28.397   8.113  0.00  0.00    +0.144 HD
ATOM     12  H   UNL     1     -30.764  29.526   7.017  0.00  0.00    +0.144 HD
ENDROOT
BRANCH   2  13
ATOM     13  C   UNL     1     -35.335  24.765   4.951  0.00  0.00    +0.058 C 
ATOM     14  C   UNL     1     -36.499  25.330   4.431  0.00  0.00    +0.016 C 
ATOM     15  C   UNL     1     -35.030  23.430   4.689  0.00  0.00    +0.016 C 
ATOM     16  C   UNL     1     -37.360  24.559   3.649  0.00  0.00    +0.012 C 
ATOM     17  C   UNL     1     -35.890  22.659   3.906  0.00  0.00    +0.012 C 
ATOM     18  C   UNL     1     -37.055  23.223   3.386  0.00  0.00    +0.069 C 
BRANCH  18  20
ATOM     19  N   UNL     1     -38.650  21.791   1.932  0.00  0.00    -0.191 NA
ATOM     20  C   UNL     1     -37.935  22.433   2.584  0.00  0.00    +0.100 C 
ENDBRANCH  18  20
ENDBRANCH   2  13
BRANCH   5  21
ATOM     21  O   UNL     1     -32.769  28.541   2.622  0.00  0.00    -0.430 OA
BRANCH  21  22
ATOM     22  C   UNL     1     -33.975  28.615   1.955  0.00  0.00    +0.140 C 
ATOM     23  C   UNL     1     -34.831  29.677   2.211  0.00  0.00    +0.013 C 
ATOM     24  C   UNL     1     -34.311  27.627   1.041  0.00  0.00    +0.013 C 
ATOM     25  C   UNL     1     -36.049  29.752   1.536  0.00  0.00    +0.009 C 
ATOM     26  C   UNL     1     -35.529  27.703   0.368  0.00  0.00    +0.009 C 
ATOM     27  C   UNL     1     -36.399  28.766   0.615  0.00  0.00    +0.068 C 
ATOM     28  C   UNL     1     -34.474  30.743   3.194  0.00  0.00    +0.034 C 
ATOM     29  C   UNL     1     -33.393  26.483   0.762  0.00  0.00    +0.034 C 
BRANCH  27  31
ATOM     30  N   UNL     1     -38.663  28.906  -0.637  0.00  0.00    -0.191 NA
ATOM     31  C   UNL     1     -37.647  28.843  -0.075  0.00  0.00    +0.100 C 
ENDBRANCH  27  31
ENDBRANCH  21  22
ENDBRANCH   5  21
TORSDOF 5
ENDMDL
MODEL 5
REMARK VINA RESULT:      -5.8      1.705      2.480
REMARK  Name = 193962
REMARK  5 active torsions:
REMARK  status: ('A' for Active; 'I' for Inactive)
REMARK    1  A    between atoms: N_2  and  C_10
REMARK    2  A    between atoms: C_5  and  O_21
REMARK    3  A    between atoms: C_15  and  C_17
REMARK    4  A    between atoms: O_21  and  C_22
REMARK    5  A    between atoms: C_27  and  C_31
REMARK                            x       y       z     vdW  Elec       q    Type
REMARK                         _______ _______ _______ _____ _____    ______ ____
ROOT
ATOM      1 BR   UNL     1     -30.715  30.776   4.785  0.00  0.00    -0.061 Br
ATOM      2  N   UNL     1     -34.062  25.979   6.070  0.00  0.00    -0.238 N 
ATOM      3  N   UNL     1     -33.312  27.556   4.503  0.00  0.00    -0.293 NA
ATOM      4  N   UNL     1     -32.555  27.626   6.789  0.00  0.00    -0.316 NA
ATOM      5  C   UNL     1     -32.545  28.638   4.255  0.00  0.00    +0.288 C 
ATOM      6  C   UNL     1     -33.273  27.106   5.774  0.00  0.00    +0.207 C 
ATOM      7  C   UNL     1     -31.766  29.260   5.208  0.00  0.00    +0.213 C 
ATOM      8  C   UNL     1     -31.810  28.705   6.471  0.00  0.00    +0.188 C 
ATOM      9  H   UNL     1     -34.002  25.689   7.009  0.00  0.00    +0.166 HD
ATOM     10  N   UNL     1     -31.041  29.286   7.508  0.00  0.00    -0.334 N 
ATOM     11  H   UNL     1     -31.063  28.900   8.413  0.00  0.00    +0.144 HD
ATOM     12  H   UNL     1     -30.483  30.077   7.324  0.00  0.00    +0.144 HD
ENDROOT
BRANCH   2  13
ATOM     13  C   UNL     1     -34.924  25.183   5.286  0.00  0.00    +0.058 C 
ATOM     14  C   UNL     1     -34.516  23.917   4.866  0.00  0.00    +0.016 C 
ATOM     15  C   UNL     1     -36.184  25.663   4.931  0.00  0.00    +0.016 C 
ATOM     16  C   UNL     1     -35.369  23.132   4.089  0.00  0.00    +0.012 C 
ATOM     17  C   UNL     1     -37.037  24.878   4.155  0.00  0.00    +0.012 C 
ATOM     18  C   UNL     1     -36.629  23.612   3.734  0.00  0.00    +0.069 C 
BRANCH  18  20
ATOM     19  N   UNL     1     -38.214  22.153   2.294  0.00  0.00    -0.191 NA
ATOM     20  C   UNL     1     -37.503  22.807   2.940  0.00  0.00    +0.100 C 
ENDBRANCH  18  20
ENDBRANCH   2  13
BRANCH   5  21
ATOM     21  O   UNL     1     -32.576  29.104   2.968  0.00  0.00    -0.430 OA
BRANCH  21  22
ATOM     22  C   UNL     1     -32.701  28.171   1.957  0.00  0.00    +0.140 C 
ATOM     23  C   UNL     1     -31.586  27.451   1.554  0.00  0.00    +0.013 C 
ATOM     24  C   UNL     1     -33.938  27.972   1.363  0.00  0.00    +0.013 C 
ATOM     25  C   UNL     1     -31.712  26.509   0.534  0.00  0.00    +0.009 C 
ATOM     26  C   UNL     1     -34.063  27.029   0.343  0.00  0.00    +0.009 C 
ATOM     27  C   UNL     1     -32.950  26.298  -0.072  0.00  0.00    +0.068 C 
ATOM     28  C   UNL     1     -30.252  27.663   2.191  0.00  0.00    +0.034 C 
ATOM     29  C   UNL     1     -35.141  28.745   1.793  0.00  0.00    +0.034 C 
BRANCH  27  31
ATOM     30  N   UNL     1     -33.183  24.547  -1.968  0.00  0.00    -0.191 NA
ATOM     31  C   UNL     1     -33.078  25.332  -1.118  0.00  0.00    +0.100 C 
ENDBRANCH  27  31
ENDBRANCH  21  22
ENDBRANCH   5  21
TORSDOF 5
ENDMDL
MODEL 6
REMARK VINA RESULT:      -5.7      4.013      7.521
REMARK  Name = 193962
REMARK  5 active torsions:
REMARK  status: ('A' for Active; 'I' for Inactive)
REMARK    1  A    between atoms: N_2  and  C_10
REMARK    2  A    between atoms: C_5  and  O_21
REMARK    3  A    between atoms: C_15  and  C_17
REMARK    4  A    between atoms: O_21  and  C_22
REMARK    5  A    between atoms: C_27  and  C_31
REMARK                            x       y       z     vdW  Elec       q    Type
REMARK                         _______ _______ _______ _____ _____    ______ ____
ROOT
ATOM      1 BR   UNL     1     -34.100  19.498   1.498  0.00  0.00    -0.061 Br
ATOM      2  N   UNL     1     -39.360  22.317   1.002  0.00  0.00    -0.238 N 
ATOM      3  N   UNL     1     -37.229  22.176   1.973  0.00  0.00    -0.293 NA
ATOM      4  N   UNL     1     -37.960  20.551   0.351  0.00  0.00    -0.316 NA
ATOM      5  C   UNL     1     -36.058  21.512   2.056  0.00  0.00    +0.288 C 
ATOM      6  C   UNL     1     -38.125  21.651   1.114  0.00  0.00    +0.207 C 
ATOM      7  C   UNL     1     -35.767  20.377   1.328  0.00  0.00    +0.213 C 
ATOM      8  C   UNL     1     -36.766  19.937   0.484  0.00  0.00    +0.188 C 
ATOM      9  H   UNL     1     -39.982  21.895   0.365  0.00  0.00    +0.166 HD
ATOM     10  N   UNL     1     -36.548  18.776  -0.298  0.00  0.00    -0.334 N 
ATOM     11  H   UNL     1     -37.251  18.452  -0.905  0.00  0.00    +0.144 HD
ATOM     12  H   UNL     1     -35.692  18.293  -0.234  0.00  0.00    +0.144 HD
ENDROOT
BRANCH   2  13
ATOM     13  C   UNL     1     -39.884  23.470   1.625  0.00  0.00    +0.058 C 
ATOM     14  C   UNL     1     -41.022  24.087   1.106  0.00  0.00    +0.016 C 
ATOM     15  C   UNL     1     -39.262  23.992   2.759  0.00  0.00    +0.016 C 
ATOM     16  C   UNL     1     -41.538  25.228   1.722  0.00  0.00    +0.012 C 
ATOM     17  C   UNL     1     -39.779  25.133   3.374  0.00  0.00    +0.012 C 
ATOM     18  C   UNL     1     -40.917  25.750   2.856  0.00  0.00    +0.069 C 
BRANCH  18  20
ATOM     19  N   UNL     1     -41.875  27.868   4.000  0.00  0.00    -0.191 NA
ATOM     20  C   UNL     1     -41.446  26.918   3.487  0.00  0.00    +0.100 C 
ENDBRANCH  18  20
ENDBRANCH   2  13
BRANCH   5  21
ATOM     21  O   UNL     1     -35.139  22.037   2.925  0.00  0.00    -0.430 OA
BRANCH  21  22
ATOM     22  C   UNL     1     -35.050  23.413   3.001  0.00  0.00    +0.140 C 
ATOM     23  C   UNL     1     -34.587  24.127   1.906  0.00  0.00    +0.013 C 
ATOM     24  C   UNL     1     -35.426  24.056   4.171  0.00  0.00    +0.013 C 
ATOM     25  C   UNL     1     -34.498  25.516   1.983  0.00  0.00    +0.009 C 
ATOM     26  C   UNL     1     -35.336  25.445   4.247  0.00  0.00    +0.009 C 
ATOM     27  C   UNL     1     -34.872  26.176   3.153  0.00  0.00    +0.068 C 
ATOM     28  C   UNL     1     -34.181  23.438   0.645  0.00  0.00    +0.034 C 
ATOM     29  C   UNL     1     -35.925  23.292   5.353  0.00  0.00    +0.034 C 
BRANCH  27  31
ATOM     30  N   UNL     1     -34.704  28.758   3.295  0.00  0.00    -0.191 NA
ATOM     31  C   UNL     1     -34.780  27.600   3.231  0.00  0.00    +0.100 C 
ENDBRANCH  27  31
ENDBRANCH  21  22
ENDBRANCH   5  21
TORSDOF 5
ENDMDL
MODEL 7
REMARK VINA RESULT:      -5.6      2.994      5.404
REMARK  Name = 193962
REMARK  5 active torsions:
REMARK  status: ('A' for Active; 'I' for Inactive)
REMARK    1  A    between atoms: N_2  and  C_10
REMARK    2  A    between atoms: C_5  and  O_21
REMARK    3  A    between atoms: C_15  and  C_17
REMARK    4  A    between atoms: O_21  and  C_22
REMARK    5  A    between atoms: C_27  and  C_31
REMARK                            x       y       z     vdW  Elec       q    Type
REMARK                         _______ _______ _______ _____ _____    ______ ____
ROOT
ATOM      1 BR   UNL     1     -33.758  30.770   3.351  0.00  0.00    -0.061 Br
ATOM      2  N   UNL     1     -32.541  25.826   0.198  0.00  0.00    -0.238 N 
ATOM      3  N   UNL     1     -33.721  26.874   1.934  0.00  0.00    -0.293 NA
ATOM      4  N   UNL     1     -32.169  28.112   0.570  0.00  0.00    -0.316 NA
ATOM      5  C   UNL     1     -33.967  28.009   2.620  0.00  0.00    +0.288 C 
ATOM      6  C   UNL     1     -32.824  26.992   0.935  0.00  0.00    +0.207 C 
ATOM      7  C   UNL     1     -33.362  29.218   2.344  0.00  0.00    +0.213 C 
ATOM      8  C   UNL     1     -32.463  29.210   1.297  0.00  0.00    +0.188 C 
ATOM      9  H   UNL     1     -31.880  25.962  -0.519  0.00  0.00    +0.166 HD
ATOM     10  N   UNL     1     -31.797  30.410   0.950  0.00  0.00    -0.334 N 
ATOM     11  H   UNL     1     -31.154  30.420   0.206  0.00  0.00    +0.144 HD
ATOM     12  H   UNL     1     -31.978  31.237   1.454  0.00  0.00    +0.144 HD
ENDROOT
BRANCH   2  13
ATOM     13  C   UNL     1     -33.018  24.501   0.285  0.00  0.00    +0.058 C 
ATOM     14  C   UNL     1     -34.140  24.213   1.061  0.00  0.00    +0.016 C 
ATOM     15  C   UNL     1     -32.366  23.480  -0.406  0.00  0.00    +0.016 C 
ATOM     16  C   UNL     1     -34.610  22.902   1.147  0.00  0.00    +0.012 C 
ATOM     17  C   UNL     1     -32.836  22.169  -0.320  0.00  0.00    +0.012 C 
ATOM     18  C   UNL     1     -33.958  21.880   0.457  0.00  0.00    +0.069 C 
BRANCH  18  20
ATOM     19  N   UNL     1     -34.831  19.446   0.615  0.00  0.00    -0.191 NA
ATOM     20  C   UNL     1     -34.440  20.538   0.544  0.00  0.00    +0.100 C 
ENDBRANCH  18  20
ENDBRANCH   2  13
BRANCH   5  21
ATOM     21  O   UNL     1     -34.877  27.901   3.638  0.00  0.00    -0.430 OA
BRANCH  21  22
ATOM     22  C   UNL     1     -35.069  26.650   4.188  0.00  0.00    +0.140 C 
ATOM     23  C   UNL     1     -34.222  26.212   5.196  0.00  0.00    +0.013 C 
ATOM     24  C   UNL     1     -36.105  25.853   3.724  0.00  0.00    +0.013 C 
ATOM     25  C   UNL     1     -34.417  24.948   5.752  0.00  0.00    +0.009 C 
ATOM     26  C   UNL     1     -36.299  24.589   4.280  0.00  0.00    +0.009 C 
ATOM     27  C   UNL     1     -35.454  24.136   5.295  0.00  0.00    +0.068 C 
ATOM     28  C   UNL     1     -33.106  27.066   5.699  0.00  0.00    +0.034 C 
ATOM     29  C   UNL     1     -37.019  26.320   2.640  0.00  0.00    +0.034 C 
BRANCH  27  31
ATOM     30  N   UNL     1     -35.813  21.787   6.328  0.00  0.00    -0.191 NA
ATOM     31  C   UNL     1     -35.652  22.841   5.865  0.00  0.00    +0.100 C 
ENDBRANCH  27  31
ENDBRANCH  21  22
ENDBRANCH   5  21
TORSDOF 5
ENDMDL
MODEL 8
REMARK VINA RESULT:      -5.5      4.139      7.835
REMARK  Name = 193962
REMARK  5 active torsions:
REMARK  status: ('A' for Active; 'I' for Inactive)
REMARK    1  A    between atoms: N_2  and  C_10
REMARK    2  A    between atoms: C_5  and  O_21
REMARK    3  A    between atoms: C_15  and  C_17
REMARK    4  A    between atoms: O_21  and  C_22
REMARK    5  A    between atoms: C_27  and  C_31
REMARK                            x       y       z     vdW  Elec       q    Type
REMARK                         _______ _______ _______ _____ _____    ______ ____
ROOT
ATOM      1 BR   UNL     1     -39.523  21.404   1.886  0.00  0.00    -0.061 Br
ATOM      2  N   UNL     1     -34.515  23.834  -0.324  0.00  0.00    -0.238 N 
ATOM      3  N   UNL     1     -35.959  23.487   1.492  0.00  0.00    -0.293 NA
ATOM      4  N   UNL     1     -36.439  22.539  -0.670  0.00  0.00    -0.316 NA
ATOM      5  C   UNL     1     -37.096  22.923   1.950  0.00  0.00    +0.288 C 
ATOM      6  C   UNL     1     -35.693  23.259   0.190  0.00  0.00    +0.207 C 
ATOM      7  C   UNL     1     -37.944  22.164   1.171  0.00  0.00    +0.213 C 
ATOM      8  C   UNL     1     -37.561  22.004  -0.145  0.00  0.00    +0.188 C 
ATOM      9  H   UNL     1     -34.364  23.642  -1.278  0.00  0.00    +0.166 HD
ATOM     10  N   UNL     1     -38.378  21.239  -1.013  0.00  0.00    -0.334 N 
ATOM     11  H   UNL     1     -38.117  21.116  -1.954  0.00  0.00    +0.144 HD
ATOM     12  H   UNL     1     -39.208  20.830  -0.675  0.00  0.00    +0.144 HD
ENDROOT
BRANCH   2  13
ATOM     13  C   UNL     1     -33.508  24.632   0.259  0.00  0.00    +0.058 C 
ATOM     14  C   UNL     1     -33.659  25.107   1.562  0.00  0.00    +0.016 C 
ATOM     15  C   UNL     1     -32.361  24.946  -0.469  0.00  0.00    +0.016 C 
ATOM     16  C   UNL     1     -32.663  25.897   2.136  0.00  0.00    +0.012 C 
ATOM     17  C   UNL     1     -31.364  25.737   0.105  0.00  0.00    +0.012 C 
ATOM     18  C   UNL     1     -31.516  26.212   1.408  0.00  0.00    +0.069 C 
BRANCH  18  20
ATOM     19  N   UNL     1     -29.665  27.677   2.475  0.00  0.00    -0.191 NA
ATOM     20  C   UNL     1     -30.495  27.020   1.997  0.00  0.00    +0.100 C 
ENDBRANCH  18  20
ENDBRANCH   2  13
BRANCH   5  21
ATOM     21  O   UNL     1     -37.377  23.147   3.272  0.00  0.00    -0.430 OA
BRANCH  21  22
ATOM     22  C   UNL     1     -36.490  23.926   3.988  0.00  0.00    +0.140 C 
ATOM     23  C   UNL     1     -35.498  23.313   4.739  0.00  0.00    +0.013 C 
ATOM     24  C   UNL     1     -36.607  25.307   3.943  0.00  0.00    +0.013 C 
ATOM     25  C   UNL     1     -34.601  24.101   5.461  0.00  0.00    +0.009 C 
ATOM     26  C   UNL     1     -35.710  26.094   4.665  0.00  0.00    +0.009 C 
ATOM     27  C   UNL     1     -34.707  25.490   5.425  0.00  0.00    +0.068 C 
ATOM     28  C   UNL     1     -35.368  21.826   4.790  0.00  0.00    +0.034 C 
ATOM     29  C   UNL     1     -37.673  25.972   3.136  0.00  0.00    +0.034 C 
BRANCH  27  31
ATOM     30  N   UNL     1     -33.041  26.951   6.767  0.00  0.00    -0.191 NA
ATOM     31  C   UNL     1     -33.788  26.296   6.165  0.00  0.00    +0.100 C 
ENDBRANCH  27  31
ENDBRANCH  21  22
ENDBRANCH   5  21
TORSDOF 5
ENDMDL
MODEL 9
REMARK VINA RESULT:      -5.5      4.351      7.734
REMARK  Name = 193962
REMARK  5 active torsions:
REMARK  status: ('A' for Active; 'I' for Inactive)
REMARK    1  A    between atoms: N_2  and  C_10
REMARK    2  A    between atoms: C_5  and  O_21
REMARK    3  A    between atoms: C_15  and  C_17
REMARK    4  A    between atoms: O_21  and  C_22
REMARK    5  A    between atoms: C_27  and  C_31
REMARK                            x       y       z     vdW  Elec       q    Type
REMARK                         _______ _______ _______ _____ _____    ______ ____
ROOT
ATOM      1 BR   UNL     1     -40.304  20.397  -1.196  0.00  0.00    -0.061 Br
ATOM      2  N   UNL     1     -35.739  21.250   2.586  0.00  0.00    -0.238 N 
ATOM      3  N   UNL     1     -37.657  22.076   1.519  0.00  0.00    -0.293 NA
ATOM      4  N   UNL     1     -36.884  19.832   1.109  0.00  0.00    -0.316 NA
ATOM      5  C   UNL     1     -38.671  21.844   0.660  0.00  0.00    +0.288 C 
ATOM      6  C   UNL     1     -36.810  21.043   1.697  0.00  0.00    +0.207 C 
ATOM      7  C   UNL     1     -38.856  20.649  -0.003  0.00  0.00    +0.213 C 
ATOM      8  C   UNL     1     -37.922  19.668   0.263  0.00  0.00    +0.188 C 
ATOM      9  H   UNL     1     -35.147  20.468   2.682  0.00  0.00    +0.166 HD
ATOM     10  N   UNL     1     -38.039  18.412  -0.379  0.00  0.00    -0.334 N 
ATOM     11  H   UNL     1     -37.380  17.703  -0.198  0.00  0.00    +0.144 HD
ATOM     12  H   UNL     1     -38.780  18.246  -1.007  0.00  0.00    +0.144 HD
ENDROOT
BRANCH   2  13
ATOM     13  C   UNL     1     -35.345  22.356   3.367  0.00  0.00    +0.058 C 
ATOM     14  C   UNL     1     -34.896  23.523   2.748  0.00  0.00    +0.016 C 
ATOM     15  C   UNL     1     -35.403  22.283   4.758  0.00  0.00    +0.016 C 
ATOM     16  C   UNL     1     -34.505  24.617   3.521  0.00  0.00    +0.012 C 
ATOM     17  C   UNL     1     -35.012  23.377   5.531  0.00  0.00    +0.012 C 
ATOM     18  C   UNL     1     -34.563  24.544   4.912  0.00  0.00    +0.069 C 
BRANCH  18  20
ATOM     19  N   UNL     1     -33.839  26.575   6.348  0.00  0.00    -0.191 NA
ATOM     20  C   UNL     1     -34.164  25.664   5.705  0.00  0.00    +0.100 C 
ENDBRANCH  18  20
ENDBRANCH   2  13
BRANCH   5  21
ATOM     21  O   UNL     1     -39.539  22.887   0.471  0.00  0.00    -0.430 OA
BRANCH  21  22
ATOM     22  C   UNL     1     -39.021  24.165   0.542  0.00  0.00    +0.140 C 
ATOM     23  C   UNL     1     -38.363  24.695  -0.559  0.00  0.00    +0.013 C 
ATOM     24  C   UNL     1     -39.167  24.896   1.711  0.00  0.00    +0.013 C 
ATOM     25  C   UNL     1     -37.840  25.986  -0.487  0.00  0.00    +0.009 C 
ATOM     26  C   UNL     1     -38.644  26.187   1.782  0.00  0.00    +0.009 C 
ATOM     27  C   UNL     1     -37.980  26.732   0.682  0.00  0.00    +0.068 C 
ATOM     28  C   UNL     1     -38.203  23.912  -1.820  0.00  0.00    +0.034 C 
ATOM     29  C   UNL     1     -39.875  24.330   2.899  0.00  0.00    +0.034 C 
BRANCH  27  31
ATOM     30  N   UNL     1     -37.007  29.129   0.814  0.00  0.00    -0.191 NA
ATOM     31  C   UNL     1     -37.444  28.054   0.755  0.00  0.00    +0.100 C 
ENDBRANCH  27  31
ENDBRANCH  21  22
ENDBRANCH   5  21
TORSDOF 5
ENDMDL
