MODEL 1
REMARK VINA RESULT:      -6.3      0.000      0.000
REMARK  Name = 5281691
REMARK  6 active torsions:
REMARK  status: ('A' for Active; 'I' for Inactive)
REMARK    1  A    between atoms: C_5  and  C_12
REMARK    2  A    between atoms: C_7  and  O_22
REMARK    3  A    between atoms: C_8  and  O_26
REMARK    4  A    between atoms: C_10  and  O_24
REMARK    5  A    between atoms: C_15  and  O_18
REMARK    6  A    between atoms: C_17  and  O_20
REMARK                            x       y       z     vdW  Elec       q    Type
REMARK                         _______ _______ _______ _____ _____    ______ ____
ROOT
ATOM      1  O   UNL     1     -34.793  23.847   3.242  0.00  0.00    -0.450 OA
ATOM      2  O   UNL     1     -38.835  24.318   3.454  0.00  0.00    -0.283 OA
ATOM      3  C   UNL     1     -37.013  22.969   2.802  0.00  0.00    +0.110 A 
ATOM      4  C   UNL     1     -35.624  22.870   2.758  0.00  0.00    +0.155 A 
ATOM      5  C   UNL     1     -35.361  24.976   3.811  0.00  0.00    +0.182 A 
ATOM      6  C   UNL     1     -37.621  24.171   3.392  0.00  0.00    +0.238 A 
ATOM      7  C   UNL     1     -36.684  25.199   3.907  0.00  0.00    +0.208 A 
ATOM      8  C   UNL     1     -37.811  21.942   2.293  0.00  0.00    +0.143 C 
ATOM      9  C   UNL     1     -35.023  21.741   2.201  0.00  0.00    +0.075 C 
ATOM     10  C   UNL     1     -35.816  20.713   1.691  0.00  0.00    +0.145 C 
ATOM     11  C   UNL     1     -37.207  20.814   1.737  0.00  0.00    +0.074 C 
ENDROOT
BRANCH   5  12
ATOM     12  C   UNL     1     -34.358  25.945   4.289  0.00  0.00    +0.041 C 
ATOM     13  C   UNL     1     -34.043  26.009   5.647  0.00  0.00    +0.043 C 
ATOM     14  C   UNL     1     -33.724  26.797   3.385  0.00  0.00    +0.006 C 
ATOM     15  C   UNL     1     -33.095  26.926   6.099  0.00  0.00    +0.168 C 
ATOM     16  C   UNL     1     -32.776  27.714   3.837  0.00  0.00    +0.040 C 
ATOM     17  C   UNL     1     -32.461  27.779   5.195  0.00  0.00    +0.167 C 
BRANCH  15  18
ATOM     18  O   UNL     1     -32.795  26.981   7.427  0.00  0.00    -0.503 OA
ATOM     19  H   UNL     1     -32.344  27.725   7.776  0.00  0.00    +0.292 HD
ENDBRANCH  15  18
BRANCH  17  20
ATOM     20  O   UNL     1     -31.532  28.678   5.625  0.00  0.00    -0.503 OA
ATOM     21  H   UNL     1     -31.769  29.332   6.254  0.00  0.00    +0.292 HD
ENDBRANCH  17  20
ENDBRANCH   5  12
BRANCH   7  22
ATOM     22  O   UNL     1     -37.216  26.349   4.449  0.00  0.00    -0.501 OA
ATOM     23  H   UNL     1     -37.513  27.037   3.888  0.00  0.00    +0.292 HD
ENDBRANCH   7  22
BRANCH  10  24
ATOM     24  O   UNL     1     -35.231  19.610   1.147  0.00  0.00    -0.471 OA
ATOM     25  C   UNL     1     -33.850  19.399   1.438  0.00  0.00    +0.252 C 
ENDBRANCH  10  24
BRANCH   8  26
ATOM     26  O   UNL     1     -39.172  21.990   2.310  0.00  0.00    -0.505 OA
ATOM     27  H   UNL     1     -39.663  21.595   1.617  0.00  0.00    +0.292 HD
ENDBRANCH   8  26
TORSDOF 6
ENDMDL
MODEL 2
REMARK VINA RESULT:      -6.1      1.740      2.687
REMARK  Name = 5281691
REMARK  6 active torsions:
REMARK  status: ('A' for Active; 'I' for Inactive)
REMARK    1  A    between atoms: C_5  and  C_12
REMARK    2  A    between atoms: C_7  and  O_22
REMARK    3  A    between atoms: C_8  and  O_26
REMARK    4  A    between atoms: C_10  and  O_24
REMARK    5  A    between atoms: C_15  and  O_18
REMARK    6  A    between atoms: C_17  and  O_20
REMARK                            x       y       z     vdW  Elec       q    Type
REMARK                         _______ _______ _______ _____ _____    ______ ____
ROOT
ATOM      1  O   UNL     1     -36.405  22.679   2.272  0.00  0.00    -0.450 OA
ATOM      2  O   UNL     1     -40.466  23.003   2.192  0.00  0.00    -0.283 OA
ATOM      3  C   UNL     1     -38.538  21.878   1.432  0.00  0.00    +0.110 A 
ATOM      4  C   UNL     1     -37.147  21.821   1.501  0.00  0.00    +0.155 A 
ATOM      5  C   UNL     1     -37.070  23.636   3.023  0.00  0.00    +0.182 A 
ATOM      6  C   UNL     1     -39.247  22.901   2.216  0.00  0.00    +0.238 A 
ATOM      7  C   UNL     1     -38.404  23.803   3.039  0.00  0.00    +0.208 A 
ATOM      8  C   UNL     1     -39.242  20.978   0.629  0.00  0.00    +0.143 C 
ATOM      9  C   UNL     1     -36.451  20.862   0.765  0.00  0.00    +0.075 C 
ATOM     10  C   UNL     1     -37.150  19.961  -0.038  0.00  0.00    +0.145 C 
ATOM     11  C   UNL     1     -38.543  20.020  -0.106  0.00  0.00    +0.074 C 
ENDROOT
BRANCH   5  12
ATOM     12  C   UNL     1     -36.156  24.491   3.803  0.00  0.00    +0.041 C 
ATOM     13  C   UNL     1     -35.990  25.832   3.456  0.00  0.00    +0.043 C 
ATOM     14  C   UNL     1     -35.457  23.959   4.887  0.00  0.00    +0.006 C 
ATOM     15  C   UNL     1     -35.125  26.640   4.194  0.00  0.00    +0.168 C 
ATOM     16  C   UNL     1     -34.592  24.767   5.624  0.00  0.00    +0.040 C 
ATOM     17  C   UNL     1     -34.426  26.108   5.278  0.00  0.00    +0.167 C 
BRANCH  15  18
ATOM     18  O   UNL     1     -34.971  27.948   3.846  0.00  0.00    -0.503 OA
ATOM     19  H   UNL     1     -35.254  28.625   4.430  0.00  0.00    +0.292 HD
ENDBRANCH  15  18
BRANCH  17  20
ATOM     20  O   UNL     1     -33.579  26.888   6.006  0.00  0.00    -0.503 OA
ATOM     21  H   UNL     1     -32.893  27.362   5.577  0.00  0.00    +0.292 HD
ENDBRANCH  17  20
ENDBRANCH   5  12
BRANCH   7  22
ATOM     22  O   UNL     1     -39.031  24.787   3.772  0.00  0.00    -0.501 OA
ATOM     23  H   UNL     1     -39.965  24.799   3.836  0.00  0.00    +0.292 HD
ENDBRANCH   7  22
BRANCH  10  24
ATOM     24  O   UNL     1     -36.472  19.025  -0.757  0.00  0.00    -0.471 OA
ATOM     25  C   UNL     1     -35.188  18.639  -0.271  0.00  0.00    +0.252 C 
ENDBRANCH  10  24
BRANCH   8  26
ATOM     26  O   UNL     1     -40.600  20.992   0.525  0.00  0.00    -0.505 OA
ATOM     27  H   UNL     1     -41.014  20.647  -0.242  0.00  0.00    +0.292 HD
ENDBRANCH   8  26
TORSDOF 6
ENDMDL
MODEL 3
REMARK VINA RESULT:      -6.1      2.832      6.591
REMARK  Name = 5281691
REMARK  6 active torsions:
REMARK  status: ('A' for Active; 'I' for Inactive)
REMARK    1  A    between atoms: C_5  and  C_12
REMARK    2  A    between atoms: C_7  and  O_22
REMARK    3  A    between atoms: C_8  and  O_26
REMARK    4  A    between atoms: C_10  and  O_24
REMARK    5  A    between atoms: C_15  and  O_18
REMARK    6  A    between atoms: C_17  and  O_20
REMARK                            x       y       z     vdW  Elec       q    Type
REMARK                         _______ _______ _______ _____ _____    ______ ____
ROOT
ATOM      1  O   UNL     1     -34.917  26.216   3.297  0.00  0.00    -0.450 OA
ATOM      2  O   UNL     1     -38.315  27.305   1.329  0.00  0.00    -0.283 OA
ATOM      3  C   UNL     1     -36.122  27.869   1.989  0.00  0.00    +0.110 A 
ATOM      4  C   UNL     1     -34.991  27.438   2.680  0.00  0.00    +0.155 A 
ATOM      5  C   UNL     1     -36.012  25.369   3.220  0.00  0.00    +0.182 A 
ATOM      6  C   UNL     1     -37.291  26.980   1.916  0.00  0.00    +0.238 A 
ATOM      7  C   UNL     1     -37.165  25.667   2.594  0.00  0.00    +0.208 A 
ATOM      8  C   UNL     1     -36.140  29.125   1.379  0.00  0.00    +0.143 C 
ATOM      9  C   UNL     1     -33.869  28.263   2.765  0.00  0.00    +0.075 C 
ATOM     10  C   UNL     1     -33.883  29.518   2.158  0.00  0.00    +0.145 C 
ATOM     11  C   UNL     1     -35.017  29.948   1.466  0.00  0.00    +0.074 C 
ENDROOT
BRANCH   5  12
ATOM     12  C   UNL     1     -35.801  24.092   3.926  0.00  0.00    +0.041 C 
ATOM     13  C   UNL     1     -35.827  22.891   3.216  0.00  0.00    +0.043 C 
ATOM     14  C   UNL     1     -35.576  24.084   5.303  0.00  0.00    +0.006 C 
ATOM     15  C   UNL     1     -35.628  21.683   3.884  0.00  0.00    +0.168 C 
ATOM     16  C   UNL     1     -35.377  22.876   5.970  0.00  0.00    +0.040 C 
ATOM     17  C   UNL     1     -35.403  21.674   5.261  0.00  0.00    +0.167 C 
BRANCH  15  18
ATOM     18  O   UNL     1     -35.656  20.516   3.181  0.00  0.00    -0.503 OA
ATOM     19  H   UNL     1     -36.243  20.418   2.457  0.00  0.00    +0.292 HD
ENDBRANCH  15  18
BRANCH  17  20
ATOM     20  O   UNL     1     -35.207  20.501   5.924  0.00  0.00    -0.503 OA
ATOM     21  H   UNL     1     -34.835  20.506   6.785  0.00  0.00    +0.292 HD
ENDBRANCH  17  20
ENDBRANCH   5  12
BRANCH   7  22
ATOM     22  O   UNL     1     -38.247  24.815   2.565  0.00  0.00    -0.501 OA
ATOM     23  H   UNL     1     -38.393  24.219   3.272  0.00  0.00    +0.292 HD
ENDBRANCH   7  22
BRANCH  10  24
ATOM     24  O   UNL     1     -32.790  30.326   2.240  0.00  0.00    -0.471 OA
ATOM     25  C   UNL     1     -32.934  31.537   2.979  0.00  0.00    +0.252 C 
ENDBRANCH  10  24
BRANCH   8  26
ATOM     26  O   UNL     1     -37.219  29.594   0.694  0.00  0.00    -0.505 OA
ATOM     27  H   UNL     1     -37.898  30.055   1.148  0.00  0.00    +0.292 HD
ENDBRANCH   8  26
TORSDOF 6
ENDMDL
MODEL 4
REMARK VINA RESULT:      -6.0      1.755      3.102
REMARK  Name = 5281691
REMARK  6 active torsions:
REMARK  status: ('A' for Active; 'I' for Inactive)
REMARK    1  A    between atoms: C_5  and  C_12
REMARK    2  A    between atoms: C_7  and  O_22
REMARK    3  A    between atoms: C_8  and  O_26
REMARK    4  A    between atoms: C_10  and  O_24
REMARK    5  A    between atoms: C_15  and  O_18
REMARK    6  A    between atoms: C_17  and  O_20
REMARK                            x       y       z     vdW  Elec       q    Type
REMARK                         _______ _______ _______ _____ _____    ______ ____
ROOT
ATOM      1  O   UNL     1     -35.072  21.692   2.427  0.00  0.00    -0.450 OA
ATOM      2  O   UNL     1     -39.012  21.308   1.459  0.00  0.00    -0.283 OA
ATOM      3  C   UNL     1     -36.815  20.474   1.256  0.00  0.00    +0.110 A 
ATOM      4  C   UNL     1     -35.484  20.662   1.622  0.00  0.00    +0.155 A 
ATOM      5  C   UNL     1     -36.025  22.578   2.907  0.00  0.00    +0.182 A 
ATOM      6  C   UNL     1     -37.828  21.419   1.751  0.00  0.00    +0.238 A 
ATOM      7  C   UNL     1     -37.338  22.514   2.622  0.00  0.00    +0.208 A 
ATOM      8  C   UNL     1     -37.176  19.406   0.432  0.00  0.00    +0.143 C 
ATOM      9  C   UNL     1     -34.504  19.781   1.164  0.00  0.00    +0.075 C 
ATOM     10  C   UNL     1     -34.860  18.713   0.341  0.00  0.00    +0.145 C 
ATOM     11  C   UNL     1     -36.194  18.526  -0.024  0.00  0.00    +0.074 C 
ENDROOT
BRANCH   5  12
ATOM     12  C   UNL     1     -35.450  23.636   3.758  0.00  0.00    +0.041 C 
ATOM     13  C   UNL     1     -34.758  24.699   3.176  0.00  0.00    +0.043 C 
ATOM     14  C   UNL     1     -35.597  23.574   5.144  0.00  0.00    +0.006 C 
ATOM     15  C   UNL     1     -34.213  25.699   3.981  0.00  0.00    +0.168 C 
ATOM     16  C   UNL     1     -35.053  24.574   5.949  0.00  0.00    +0.040 C 
ATOM     17  C   UNL     1     -34.361  25.638   5.367  0.00  0.00    +0.167 C 
BRANCH  15  18
ATOM     18  O   UNL     1     -33.539  26.732   3.403  0.00  0.00    -0.503 OA
ATOM     19  H   UNL     1     -33.618  26.886   2.482  0.00  0.00    +0.292 HD
ENDBRANCH  15  18
BRANCH  17  20
ATOM     20  O   UNL     1     -33.834  26.609   6.164  0.00  0.00    -0.503 OA
ATOM     21  H   UNL     1     -34.052  26.637   7.075  0.00  0.00    +0.292 HD
ENDBRANCH  17  20
ENDBRANCH   5  12
BRANCH   7  22
ATOM     22  O   UNL     1     -38.255  23.431   3.089  0.00  0.00    -0.501 OA
ATOM     23  H   UNL     1     -37.981  24.301   3.301  0.00  0.00    +0.292 HD
ENDBRANCH   7  22
BRANCH  10  24
ATOM     24  O   UNL     1     -33.905  17.852  -0.107  0.00  0.00    -0.471 OA
ATOM     25  C   UNL     1     -32.751  17.680   0.714  0.00  0.00    +0.252 C 
ENDBRANCH  10  24
BRANCH   8  26
ATOM     26  O   UNL     1     -38.462  19.178   0.044  0.00  0.00    -0.505 OA
ATOM     27  H   UNL     1     -38.744  18.306  -0.151  0.00  0.00    +0.292 HD
ENDBRANCH   8  26
TORSDOF 6
ENDMDL
MODEL 5
REMARK VINA RESULT:      -6.0      3.088      4.483
REMARK  Name = 5281691
REMARK  6 active torsions:
REMARK  status: ('A' for Active; 'I' for Inactive)
REMARK    1  A    between atoms: C_5  and  C_12
REMARK    2  A    between atoms: C_7  and  O_22
REMARK    3  A    between atoms: C_8  and  O_26
REMARK    4  A    between atoms: C_10  and  O_24
REMARK    5  A    between atoms: C_15  and  O_18
REMARK    6  A    between atoms: C_17  and  O_20
REMARK                            x       y       z     vdW  Elec       q    Type
REMARK                         _______ _______ _______ _____ _____    ______ ____
ROOT
ATOM      1  O   UNL     1     -33.049  26.539   4.999  0.00  0.00    -0.450 OA
ATOM      2  O   UNL     1     -35.536  28.451   2.398  0.00  0.00    -0.283 OA
ATOM      3  C   UNL     1     -35.178  26.616   3.836  0.00  0.00    +0.110 A 
ATOM      4  C   UNL     1     -34.281  26.011   4.713  0.00  0.00    +0.155 A 
ATOM      5  C   UNL     1     -32.686  27.734   4.396  0.00  0.00    +0.182 A 
ATOM      6  C   UNL     1     -34.792  27.876   3.182  0.00  0.00    +0.238 A 
ATOM      7  C   UNL     1     -33.453  28.413   3.525  0.00  0.00    +0.208 A 
ATOM      8  C   UNL     1     -36.421  26.031   3.582  0.00  0.00    +0.143 C 
ATOM      9  C   UNL     1     -34.622  24.814   5.344  0.00  0.00    +0.075 C 
ATOM     10  C   UNL     1     -35.862  24.226   5.094  0.00  0.00    +0.145 C 
ATOM     11  C   UNL     1     -36.759  24.834   4.214  0.00  0.00    +0.074 C 
ENDROOT
BRANCH   5  12
ATOM     12  C   UNL     1     -31.340  28.189   4.787  0.00  0.00    +0.041 C 
ATOM     13  C   UNL     1     -31.088  28.570   6.106  0.00  0.00    +0.043 C 
ATOM     14  C   UNL     1     -30.317  28.240   3.840  0.00  0.00    +0.006 C 
ATOM     15  C   UNL     1     -29.814  29.001   6.476  0.00  0.00    +0.168 C 
ATOM     16  C   UNL     1     -29.043  28.672   4.210  0.00  0.00    +0.040 C 
ATOM     17  C   UNL     1     -28.792  29.052   5.528  0.00  0.00    +0.167 C 
BRANCH  15  18
ATOM     18  O   UNL     1     -29.580  29.371   7.766  0.00  0.00    -0.503 OA
ATOM     19  H   UNL     1     -28.841  29.908   7.973  0.00  0.00    +0.292 HD
ENDBRANCH  15  18
BRANCH  17  20
ATOM     20  O   UNL     1     -27.543  29.471   5.878  0.00  0.00    -0.503 OA
ATOM     21  H   UNL     1     -26.848  28.849   5.967  0.00  0.00    +0.292 HD
ENDBRANCH  17  20
ENDBRANCH   5  12
BRANCH   7  22
ATOM     22  O   UNL     1     -33.048  29.582   2.917  0.00  0.00    -0.501 OA
ATOM     23  H   UNL     1     -32.818  29.583   2.010  0.00  0.00    +0.292 HD
ENDBRANCH   7  22
BRANCH  10  24
ATOM     24  O   UNL     1     -36.196  23.058   5.707  0.00  0.00    -0.471 OA
ATOM     25  C   UNL     1     -35.124  22.242   6.176  0.00  0.00    +0.252 C 
ENDBRANCH  10  24
BRANCH   8  26
ATOM     26  O   UNL     1     -37.333  26.580   2.733  0.00  0.00    -0.505 OA
ATOM     27  H   UNL     1     -37.766  26.042   2.099  0.00  0.00    +0.292 HD
ENDBRANCH   8  26
TORSDOF 6
ENDMDL
MODEL 6
REMARK VINA RESULT:      -5.9      2.954      5.641
REMARK  Name = 5281691
REMARK  6 active torsions:
REMARK  status: ('A' for Active; 'I' for Inactive)
REMARK    1  A    between atoms: C_5  and  C_12
REMARK    2  A    between atoms: C_7  and  O_22
REMARK    3  A    between atoms: C_8  and  O_26
REMARK    4  A    between atoms: C_10  and  O_24
REMARK    5  A    between atoms: C_15  and  O_18
REMARK    6  A    between atoms: C_17  and  O_20
REMARK                            x       y       z     vdW  Elec       q    Type
REMARK                         _______ _______ _______ _____ _____    ______ ____
ROOT
ATOM      1  O   UNL     1     -33.961  19.839   1.915  0.00  0.00    -0.450 OA
ATOM      2  O   UNL     1     -36.920  18.216  -0.368  0.00  0.00    -0.283 OA
ATOM      3  C   UNL     1     -34.672  18.133   0.341  0.00  0.00    +0.110 A 
ATOM      4  C   UNL     1     -33.704  18.737   1.141  0.00  0.00    +0.155 A 
ATOM      5  C   UNL     1     -35.242  20.368   1.908  0.00  0.00    +0.182 A 
ATOM      6  C   UNL     1     -36.030  18.699   0.319  0.00  0.00    +0.238 A 
ATOM      7  C   UNL     1     -36.262  19.887   1.175  0.00  0.00    +0.208 A 
ATOM      8  C   UNL     1     -34.353  17.012  -0.428  0.00  0.00    +0.143 C 
ATOM      9  C   UNL     1     -32.409  18.221   1.177  0.00  0.00    +0.075 C 
ATOM     10  C   UNL     1     -32.086  17.101   0.411  0.00  0.00    +0.145 C 
ATOM     11  C   UNL     1     -33.057  16.498  -0.390  0.00  0.00    +0.074 C 
ENDROOT
BRANCH   5  12
ATOM     12  C   UNL     1     -35.381  21.548   2.781  0.00  0.00    +0.041 C 
ATOM     13  C   UNL     1     -35.579  21.383   4.152  0.00  0.00    +0.043 C 
ATOM     14  C   UNL     1     -35.314  22.831   2.236  0.00  0.00    +0.006 C 
ATOM     15  C   UNL     1     -35.711  22.500   4.977  0.00  0.00    +0.168 C 
ATOM     16  C   UNL     1     -35.446  23.948   3.060  0.00  0.00    +0.040 C 
ATOM     17  C   UNL     1     -35.644  23.782   4.432  0.00  0.00    +0.167 C 
BRANCH  15  18
ATOM     18  O   UNL     1     -35.905  22.326   6.314  0.00  0.00    -0.503 OA
ATOM     19  H   UNL     1     -36.307  21.541   6.632  0.00  0.00    +0.292 HD
ENDBRANCH  15  18
BRANCH  17  20
ATOM     20  O   UNL     1     -35.771  24.881   5.227  0.00  0.00    -0.503 OA
ATOM     21  H   UNL     1     -35.343  25.681   4.992  0.00  0.00    +0.292 HD
ENDBRANCH  17  20
ENDBRANCH   5  12
BRANCH   7  22
ATOM     22  O   UNL     1     -37.517  20.458   1.166  0.00  0.00    -0.501 OA
ATOM     23  H   UNL     1     -37.609  21.388   1.217  0.00  0.00    +0.292 HD
ENDBRANCH   7  22
BRANCH  10  24
ATOM     24  O   UNL     1     -30.821  16.596   0.444  0.00  0.00    -0.471 OA
ATOM     25  C   UNL     1     -29.777  17.491   0.824  0.00  0.00    +0.252 C 
ENDBRANCH  10  24
BRANCH   8  26
ATOM     26  O   UNL     1     -35.261  16.386  -1.228  0.00  0.00    -0.505 OA
ATOM     27  H   UNL     1     -35.521  15.505  -1.041  0.00  0.00    +0.292 HD
ENDBRANCH   8  26
TORSDOF 6
ENDMDL
MODEL 7
REMARK VINA RESULT:      -5.9      3.202      7.036
REMARK  Name = 5281691
REMARK  6 active torsions:
REMARK  status: ('A' for Active; 'I' for Inactive)
REMARK    1  A    between atoms: C_5  and  C_12
REMARK    2  A    between atoms: C_7  and  O_22
REMARK    3  A    between atoms: C_8  and  O_26
REMARK    4  A    between atoms: C_10  and  O_24
REMARK    5  A    between atoms: C_15  and  O_18
REMARK    6  A    between atoms: C_17  and  O_20
REMARK                            x       y       z     vdW  Elec       q    Type
REMARK                         _______ _______ _______ _____ _____    ______ ____
ROOT
ATOM      1  O   UNL     1     -34.802  20.917   1.707  0.00  0.00    -0.450 OA
ATOM      2  O   UNL     1     -37.960  19.096  -0.112  0.00  0.00    -0.283 OA
ATOM      3  C   UNL     1     -37.195  20.807   1.319  0.00  0.00    +0.110 A 
ATOM      4  C   UNL     1     -36.074  21.383   1.913  0.00  0.00    +0.155 A 
ATOM      5  C   UNL     1     -34.623  19.833   0.862  0.00  0.00    +0.182 A 
ATOM      6  C   UNL     1     -37.013  19.648   0.433  0.00  0.00    +0.238 A 
ATOM      7  C   UNL     1     -35.620  19.181   0.236  0.00  0.00    +0.208 A 
ATOM      8  C   UNL     1     -38.469  21.325   1.566  0.00  0.00    +0.143 C 
ATOM      9  C   UNL     1     -36.220  22.482   2.759  0.00  0.00    +0.075 C 
ATOM     10  C   UNL     1     -37.490  23.003   3.009  0.00  0.00    +0.145 C 
ATOM     11  C   UNL     1     -38.612  22.424   2.413  0.00  0.00    +0.074 C 
ENDROOT
BRANCH   5  12
ATOM     12  C   UNL     1     -33.210  19.434   0.730  0.00  0.00    +0.041 C 
ATOM     13  C   UNL     1     -32.327  20.227  -0.003  0.00  0.00    +0.043 C 
ATOM     14  C   UNL     1     -32.755  18.263   1.337  0.00  0.00    +0.006 C 
ATOM     15  C   UNL     1     -30.991  19.849  -0.129  0.00  0.00    +0.168 C 
ATOM     16  C   UNL     1     -31.419  17.885   1.211  0.00  0.00    +0.040 C 
ATOM     17  C   UNL     1     -30.536  18.678   0.478  0.00  0.00    +0.167 C 
BRANCH  15  18
ATOM     18  O   UNL     1     -30.137  20.631  -0.847  0.00  0.00    -0.503 OA
ATOM     19  H   UNL     1     -30.205  20.664  -1.781  0.00  0.00    +0.292 HD
ENDBRANCH  15  18
BRANCH  17  20
ATOM     20  O   UNL     1     -29.233  18.299   0.364  0.00  0.00    -0.503 OA
ATOM     21  H   UNL     1     -28.553  18.944   0.384  0.00  0.00    +0.292 HD
ENDBRANCH  17  20
ENDBRANCH   5  12
BRANCH   7  22
ATOM     22  O   UNL     1     -35.411  18.084  -0.572  0.00  0.00    -0.501 OA
ATOM     23  H   UNL     1     -35.623  17.227  -0.262  0.00  0.00    +0.292 HD
ENDBRANCH   7  22
BRANCH  10  24
ATOM     24  O   UNL     1     -37.635  24.075   3.835  0.00  0.00    -0.471 OA
ATOM     25  C   UNL     1     -36.456  24.570   4.467  0.00  0.00    +0.252 C 
ENDBRANCH  10  24
BRANCH   8  26
ATOM     26  O   UNL     1     -39.597  20.799   1.013  0.00  0.00    -0.505 OA
ATOM     27  H   UNL     1     -39.620  19.895   0.767  0.00  0.00    +0.292 HD
ENDBRANCH   8  26
TORSDOF 6
ENDMDL
MODEL 8
REMARK VINA RESULT:      -5.8      2.498      7.223
REMARK  Name = 5281691
REMARK  6 active torsions:
REMARK  status: ('A' for Active; 'I' for Inactive)
REMARK    1  A    between atoms: C_5  and  C_12
REMARK    2  A    between atoms: C_7  and  O_22
REMARK    3  A    between atoms: C_8  and  O_26
REMARK    4  A    between atoms: C_10  and  O_24
REMARK    5  A    between atoms: C_15  and  O_18
REMARK    6  A    between atoms: C_17  and  O_20
REMARK                            x       y       z     vdW  Elec       q    Type
REMARK                         _______ _______ _______ _____ _____    ______ ____
ROOT
ATOM      1  O   UNL     1     -35.380  23.093   1.912  0.00  0.00    -0.450 OA
ATOM      2  O   UNL     1     -35.717  23.188   5.972  0.00  0.00    -0.283 OA
ATOM      3  C   UNL     1     -35.542  24.396   3.954  0.00  0.00    +0.110 A 
ATOM      4  C   UNL     1     -35.426  24.295   2.569  0.00  0.00    +0.155 A 
ATOM      5  C   UNL     1     -35.466  21.928   2.658  0.00  0.00    +0.182 A 
ATOM      6  C   UNL     1     -35.619  23.163   4.752  0.00  0.00    +0.238 A 
ATOM      7  C   UNL     1     -35.571  21.886   3.999  0.00  0.00    +0.208 A 
ATOM      8  C   UNL     1     -35.583  25.649   4.570  0.00  0.00    +0.143 C 
ATOM      9  C   UNL     1     -35.348  25.450   1.790  0.00  0.00    +0.075 C 
ATOM     10  C   UNL     1     -35.389  26.704   2.401  0.00  0.00    +0.145 C 
ATOM     11  C   UNL     1     -35.506  26.802   3.788  0.00  0.00    +0.074 C 
ENDROOT
BRANCH   5  12
ATOM     12  C   UNL     1     -35.403  20.710   1.831  0.00  0.00    +0.041 C 
ATOM     13  C   UNL     1     -36.577  20.151   1.323  0.00  0.00    +0.043 C 
ATOM     14  C   UNL     1     -34.172  20.115   1.555  0.00  0.00    +0.006 C 
ATOM     15  C   UNL     1     -36.518  18.998   0.540  0.00  0.00    +0.168 C 
ATOM     16  C   UNL     1     -34.113  18.962   0.773  0.00  0.00    +0.040 C 
ATOM     17  C   UNL     1     -35.286  18.403   0.265  0.00  0.00    +0.167 C 
BRANCH  15  18
ATOM     18  O   UNL     1     -37.670  18.461   0.050  0.00  0.00    -0.503 OA
ATOM     19  H   UNL     1     -37.814  17.536   0.099  0.00  0.00    +0.292 HD
ENDBRANCH  15  18
BRANCH  17  20
ATOM     20  O   UNL     1     -35.215  17.277  -0.499  0.00  0.00    -0.503 OA
ATOM     21  H   UNL     1     -34.778  16.516  -0.171  0.00  0.00    +0.292 HD
ENDBRANCH  17  20
ENDBRANCH   5  12
BRANCH   7  22
ATOM     22  O   UNL     1     -35.621  20.709   4.714  0.00  0.00    -0.501 OA
ATOM     23  H   UNL     1     -36.272  20.067   4.515  0.00  0.00    +0.292 HD
ENDBRANCH   7  22
BRANCH  10  24
ATOM     24  O   UNL     1     -35.313  27.832   1.642  0.00  0.00    -0.471 OA
ATOM     25  C   UNL     1     -35.121  29.065   2.333  0.00  0.00    +0.252 C 
ENDBRANCH  10  24
BRANCH   8  26
ATOM     26  O   UNL     1     -35.695  25.803   5.918  0.00  0.00    -0.505 OA
ATOM     27  H   UNL     1     -35.187  26.456   6.359  0.00  0.00    +0.292 HD
ENDBRANCH   8  26
TORSDOF 6
ENDMDL
MODEL 9
REMARK VINA RESULT:      -5.8      1.705      6.717
REMARK  Name = 5281691
REMARK  6 active torsions:
REMARK  status: ('A' for Active; 'I' for Inactive)
REMARK    1  A    between atoms: C_5  and  C_12
REMARK    2  A    between atoms: C_7  and  O_22
REMARK    3  A    between atoms: C_8  and  O_26
REMARK    4  A    between atoms: C_10  and  O_24
REMARK    5  A    between atoms: C_15  and  O_18
REMARK    6  A    between atoms: C_17  and  O_20
REMARK                            x       y       z     vdW  Elec       q    Type
REMARK                         _______ _______ _______ _____ _____    ______ ____
ROOT
ATOM      1  O   UNL     1     -34.801  22.671   2.298  0.00  0.00    -0.450 OA
ATOM      2  O   UNL     1     -38.840  22.665   2.840  0.00  0.00    -0.283 OA
ATOM      3  C   UNL     1     -36.777  23.748   3.209  0.00  0.00    +0.110 A 
ATOM      4  C   UNL     1     -35.402  23.689   2.991  0.00  0.00    +0.155 A 
ATOM      5  C   UNL     1     -35.599  21.662   1.782  0.00  0.00    +0.182 A 
ATOM      6  C   UNL     1     -37.627  22.672   2.676  0.00  0.00    +0.238 A 
ATOM      7  C   UNL     1     -36.935  21.594   1.929  0.00  0.00    +0.208 A 
ATOM      8  C   UNL     1     -37.334  24.810   3.924  0.00  0.00    +0.143 C 
ATOM      9  C   UNL     1     -34.574  24.696   3.488  0.00  0.00    +0.075 C 
ATOM     10  C   UNL     1     -35.126  25.759   4.203  0.00  0.00    +0.145 C 
ATOM     11  C   UNL     1     -36.503  25.815   4.420  0.00  0.00    +0.074 C 
ENDROOT
BRANCH   5  12
ATOM     12  C   UNL     1     -34.829  20.631   1.061  0.00  0.00    +0.041 C 
ATOM     13  C   UNL     1     -34.023  19.740   1.770  0.00  0.00    +0.043 C 
ATOM     14  C   UNL     1     -34.906  20.547  -0.329  0.00  0.00    +0.006 C 
ATOM     15  C   UNL     1     -33.295  18.766   1.089  0.00  0.00    +0.168 C 
ATOM     16  C   UNL     1     -34.177  19.573  -1.011  0.00  0.00    +0.040 C 
ATOM     17  C   UNL     1     -33.371  18.682  -0.302  0.00  0.00    +0.167 C 
BRANCH  15  18
ATOM     18  O   UNL     1     -32.511  17.900   1.791  0.00  0.00    -0.503 OA
ATOM     19  H   UNL     1     -31.589  17.861   1.624  0.00  0.00    +0.292 HD
ENDBRANCH  15  18
BRANCH  17  20
ATOM     20  O   UNL     1     -32.665  17.734  -0.979  0.00  0.00    -0.503 OA
ATOM     21  H   UNL     1     -32.070  17.989  -1.658  0.00  0.00    +0.292 HD
ENDBRANCH  17  20
ENDBRANCH   5  12
BRANCH   7  22
ATOM     22  O   UNL     1     -37.695  20.558   1.431  0.00  0.00    -0.501 OA
ATOM     23  H   UNL     1     -38.602  20.492   1.657  0.00  0.00    +0.292 HD
ENDBRANCH   7  22
BRANCH  10  24
ATOM     24  O   UNL     1     -34.319  26.742   4.690  0.00  0.00    -0.471 OA
ATOM     25  C   UNL     1     -33.202  27.120   3.887  0.00  0.00    +0.252 C 
ENDBRANCH  10  24
BRANCH   8  26
ATOM     26  O   UNL     1     -38.670  24.914   4.166  0.00  0.00    -0.505 OA
ATOM     27  H   UNL     1     -39.226  25.342   3.545  0.00  0.00    +0.292 HD
ENDBRANCH   8  26
TORSDOF 6
ENDMDL
