MODEL 1
REMARK VINA RESULT:      -6.1      0.000      0.000
REMARK  Name = 208953
REMARK  6 active torsions:
REMARK  status: ('A' for Active; 'I' for Inactive)
REMARK    1  A    between atoms: N_3  and  C_24
REMARK    2  A    between atoms: C_5  and  N_15
REMARK    3  A    between atoms: C_7  and  C_23
REMARK    4  A    between atoms: C_24  and  P_25
REMARK    5  A    between atoms: P_25  and  O_27
REMARK    6  A    between atoms: P_25  and  O_29
REMARK                            x       y       z     vdW  Elec       q    Type
REMARK                         _______ _______ _______ _____ _____    ______ ____
ROOT
ATOM      1  O   UNL     1     -34.683  23.213   5.964  0.00  0.00    -0.262 OA
ATOM      2  O   UNL     1     -35.007  20.873   4.858  0.00  0.00    -0.262 OA
ATOM      3  N   UNL     1     -36.290  24.204   4.582  0.00  0.00    -0.279 N 
ATOM      4  N   UNL     1     -36.614  21.685   3.424  0.00  0.00    -0.316 N 
ATOM      5  C   UNL     1     -38.932  24.852   1.995  0.00  0.00    +0.053 C 
ATOM      6  C   UNL     1     -37.230  24.023   3.528  0.00  0.00    +0.080 A 
ATOM      7  C   UNL     1     -39.069  23.583   1.441  0.00  0.00    +0.086 C 
ATOM      8  C   UNL     1     -38.020  25.072   3.031  0.00  0.00    +0.033 C 
ATOM      9  C   UNL     1     -37.380  22.756   2.960  0.00  0.00    +0.075 A 
ATOM     10  C   UNL     1     -38.293  22.532   1.923  0.00  0.00    +0.024 C 
ATOM     11  C   UNL     1     -35.514  23.150   5.063  0.00  0.00    +0.318 A 
ATOM     12  C   UNL     1     -35.693  21.795   4.434  0.00  0.00    +0.314 A 
ATOM     13  H   UNL     1     -36.742  20.804   3.004  0.00  0.00    +0.169 HD
ENDROOT
BRANCH   5  15
ATOM     14  O   UNL     1     -41.140  28.219   0.789  0.00  0.00    -0.350 OA
ATOM     15  N   UNL     1     -39.700  25.922   1.524  0.00  0.00    -0.303 N 
ATOM     16  C   UNL     1     -40.793  26.417   2.373  0.00  0.00    +0.123 C 
ATOM     17  C   UNL     1     -39.097  26.921   0.637  0.00  0.00    +0.123 C 
ATOM     18  C   UNL     1     -41.796  27.187   1.523  0.00  0.00    +0.164 C 
ATOM     19  C   UNL     1     -40.192  27.665  -0.121  0.00  0.00    +0.164 C 
ENDBRANCH   5  15
BRANCH   7  23
ATOM     20  F   UNL     1     -41.317  23.679   0.630  0.00  0.00    -0.166 F 
ATOM     21  F   UNL     1     -39.735  23.983  -0.821  0.00  0.00    -0.166 F 
ATOM     22  F   UNL     1     -40.093  21.999  -0.006  0.00  0.00    -0.166 F 
ATOM     23  C   UNL     1     -40.035  23.319   0.333  0.00  0.00    +0.420 C 
ENDBRANCH   7  23
BRANCH   3  24
ATOM     24  C   UNL     1     -36.133  25.529   5.175  0.00  0.00    +0.225 C 
BRANCH  24  25
ATOM     25  P   UNL     1     -34.766  26.348   4.388  0.00  0.00    +0.360 P 
ATOM     26  O   UNL     1     -34.085  25.525   3.335  0.00  0.00    -0.256 OA
BRANCH  25  27
ATOM     27  O   UNL     1     -33.816  26.800   5.615  0.00  0.00    -0.322 OA
ATOM     28  H   UNL     1     -33.535  26.016   6.113  0.00  0.00    +0.220 HD
ENDBRANCH  25  27
BRANCH  25  29
ATOM     29  O   UNL     1     -35.391  27.742   3.859  0.00  0.00    -0.322 OA
ATOM     30  H   UNL     1     -35.842  27.594   3.013  0.00  0.00    +0.220 HD
ENDBRANCH  25  29
ENDBRANCH  24  25
ENDBRANCH   3  24
TORSDOF 6
ENDMDL
MODEL 2
REMARK VINA RESULT:      -6.1      5.383      6.990
REMARK  Name = 208953
REMARK  6 active torsions:
REMARK  status: ('A' for Active; 'I' for Inactive)
REMARK    1  A    between atoms: N_3  and  C_24
REMARK    2  A    between atoms: C_5  and  N_15
REMARK    3  A    between atoms: C_7  and  C_23
REMARK    4  A    between atoms: C_24  and  P_25
REMARK    5  A    between atoms: P_25  and  O_27
REMARK    6  A    between atoms: P_25  and  O_29
REMARK                            x       y       z     vdW  Elec       q    Type
REMARK                         _______ _______ _______ _____ _____    ______ ____
ROOT
ATOM      1  O   UNL     1     -37.074  22.882   3.720  0.00  0.00    -0.262 OA
ATOM      2  O   UNL     1     -35.946  22.501   6.042  0.00  0.00    -0.262 OA
ATOM      3  N   UNL     1     -35.900  24.873   3.360  0.00  0.00    -0.279 N 
ATOM      4  N   UNL     1     -34.709  24.432   5.846  0.00  0.00    -0.316 N 
ATOM      5  C   UNL     1     -33.624  27.841   3.690  0.00  0.00    +0.053 C 
ATOM      6  C   UNL     1     -34.945  25.801   3.865  0.00  0.00    +0.080 A 
ATOM      7  C   UNL     1     -33.050  27.590   4.932  0.00  0.00    +0.086 C 
ATOM      8  C   UNL     1     -34.566  26.954   3.159  0.00  0.00    +0.033 C 
ATOM      9  C   UNL     1     -34.359  25.566   5.110  0.00  0.00    +0.075 A 
ATOM     10  C   UNL     1     -33.416  26.451   5.645  0.00  0.00    +0.024 C 
ATOM     11  C   UNL     1     -36.265  23.733   4.076  0.00  0.00    +0.318 A 
ATOM     12  C   UNL     1     -35.620  23.502   5.416  0.00  0.00    +0.314 A 
ATOM     13  H   UNL     1     -34.278  24.293   6.721  0.00  0.00    +0.169 HD
ENDROOT
BRANCH   5  15
ATOM     14  O   UNL     1     -32.685  31.147   1.270  0.00  0.00    -0.350 OA
ATOM     15  N   UNL     1     -33.272  28.980   2.958  0.00  0.00    -0.303 N 
ATOM     16  C   UNL     1     -32.296  28.830   1.870  0.00  0.00    +0.123 C 
ATOM     17  C   UNL     1     -34.242  30.065   2.783  0.00  0.00    +0.123 C 
ATOM     18  C   UNL     1     -31.671  30.182   1.550  0.00  0.00    +0.164 C 
ATOM     19  C   UNL     1     -33.513  31.353   2.413  0.00  0.00    +0.164 C 
ENDBRANCH   5  15
BRANCH   7  23
ATOM     20  F   UNL     1     -30.830  28.481   4.898  0.00  0.00    -0.166 F 
ATOM     21  F   UNL     1     -32.422  29.830   5.486  0.00  0.00    -0.166 F 
ATOM     22  F   UNL     1     -31.788  28.248   6.836  0.00  0.00    -0.166 F 
ATOM     23  C   UNL     1     -32.042  28.520   5.524  0.00  0.00    +0.420 C 
ENDBRANCH   7  23
BRANCH   3  24
ATOM     24  C   UNL     1     -36.513  25.121   2.059  0.00  0.00    +0.225 C 
BRANCH  24  25
ATOM     25  P   UNL     1     -38.104  25.871   2.312  0.00  0.00    +0.360 P 
ATOM     26  O   UNL     1     -38.397  27.012   1.383  0.00  0.00    -0.256 OA
BRANCH  25  27
ATOM     27  O   UNL     1     -38.115  26.256   3.882  0.00  0.00    -0.322 OA
ATOM     28  H   UNL     1     -37.920  27.201   3.984  0.00  0.00    +0.220 HD
ENDBRANCH  25  27
BRANCH  25  29
ATOM     29  O   UNL     1     -39.143  24.636   2.218  0.00  0.00    -0.322 OA
ATOM     30  H   UNL     1     -40.051  24.977   2.221  0.00  0.00    +0.220 HD
ENDBRANCH  25  29
ENDBRANCH  24  25
ENDBRANCH   3  24
TORSDOF 6
ENDMDL
MODEL 3
REMARK VINA RESULT:      -5.9      5.599      7.756
REMARK  Name = 208953
REMARK  6 active torsions:
REMARK  status: ('A' for Active; 'I' for Inactive)
REMARK    1  A    between atoms: N_3  and  C_24
REMARK    2  A    between atoms: C_5  and  N_15
REMARK    3  A    between atoms: C_7  and  C_23
REMARK    4  A    between atoms: C_24  and  P_25
REMARK    5  A    between atoms: P_25  and  O_27
REMARK    6  A    between atoms: P_25  and  O_29
REMARK                            x       y       z     vdW  Elec       q    Type
REMARK                         _______ _______ _______ _____ _____    ______ ____
ROOT
ATOM      1  O   UNL     1     -38.274  23.697   3.121  0.00  0.00    -0.262 OA
ATOM      2  O   UNL     1     -36.517  23.121   4.962  0.00  0.00    -0.262 OA
ATOM      3  N   UNL     1     -37.364  22.148   1.622  0.00  0.00    -0.279 N 
ATOM      4  N   UNL     1     -35.502  21.554   3.616  0.00  0.00    -0.316 N 
ATOM      5  C   UNL     1     -35.264  19.500  -0.013  0.00  0.00    +0.053 C 
ATOM      6  C   UNL     1     -36.363  21.163   1.388  0.00  0.00    +0.080 A 
ATOM      7  C   UNL     1     -34.353  19.228   1.002  0.00  0.00    +0.086 C 
ATOM      8  C   UNL     1     -36.263  20.460   0.176  0.00  0.00    +0.033 C 
ATOM      9  C   UNL     1     -35.439  20.878   2.395  0.00  0.00    +0.075 A 
ATOM     10  C   UNL     1     -34.439  19.917   2.209  0.00  0.00    +0.024 C 
ATOM     11  C   UNL     1     -37.448  22.836   2.832  0.00  0.00    +0.318 A 
ATOM     12  C   UNL     1     -36.440  22.512   3.902  0.00  0.00    +0.314 A 
ATOM     13  H   UNL     1     -34.837  21.331   4.307  0.00  0.00    +0.169 HD
ENDROOT
BRANCH   5  15
ATOM     14  O   UNL     1     -35.299  17.574  -3.749  0.00  0.00    -0.350 OA
ATOM     15  N   UNL     1     -35.195  18.821  -1.234  0.00  0.00    -0.303 N 
ATOM     16  C   UNL     1     -36.195  17.778  -1.506  0.00  0.00    +0.123 C 
ATOM     17  C   UNL     1     -34.664  19.501  -2.419  0.00  0.00    +0.123 C 
ATOM     18  C   UNL     1     -35.676  16.838  -2.587  0.00  0.00    +0.164 C 
ATOM     19  C   UNL     1     -34.227  18.468  -3.453  0.00  0.00    +0.164 C 
ENDBRANCH   5  15
BRANCH   7  23
ATOM     20  F   UNL     1     -32.434  18.476  -0.213  0.00  0.00    -0.166 F 
ATOM     21  F   UNL     1     -32.467  18.077   1.918  0.00  0.00    -0.166 F 
ATOM     22  F   UNL     1     -33.774  16.961   0.586  0.00  0.00    -0.166 F 
ATOM     23  C   UNL     1     -33.277  18.208   0.827  0.00  0.00    +0.420 C 
ENDBRANCH   7  23
BRANCH   3  24
ATOM     24  C   UNL     1     -38.328  22.446   0.567  0.00  0.00    +0.225 C 
BRANCH  24  25
ATOM     25  P   UNL     1     -39.737  21.381   0.765  0.00  0.00    +0.360 P 
ATOM     26  O   UNL     1     -39.758  20.214  -0.177  0.00  0.00    -0.256 OA
BRANCH  25  27
ATOM     27  O   UNL     1     -41.006  22.374   0.641  0.00  0.00    -0.322 OA
ATOM     28  H   UNL     1     -41.221  22.509  -0.295  0.00  0.00    +0.220 HD
ENDBRANCH  25  27
BRANCH  25  29
ATOM     29  O   UNL     1     -39.717  20.986   2.333  0.00  0.00    -0.322 OA
ATOM     30  H   UNL     1     -39.616  20.026   2.422  0.00  0.00    +0.220 HD
ENDBRANCH  25  29
ENDBRANCH  24  25
ENDBRANCH   3  24
TORSDOF 6
ENDMDL
MODEL 4
REMARK VINA RESULT:      -5.9      4.759      7.376
REMARK  Name = 208953
REMARK  6 active torsions:
REMARK  status: ('A' for Active; 'I' for Inactive)
REMARK    1  A    between atoms: N_3  and  C_24
REMARK    2  A    between atoms: C_5  and  N_15
REMARK    3  A    between atoms: C_7  and  C_23
REMARK    4  A    between atoms: C_24  and  P_25
REMARK    5  A    between atoms: P_25  and  O_27
REMARK    6  A    between atoms: P_25  and  O_29
REMARK                            x       y       z     vdW  Elec       q    Type
REMARK                         _______ _______ _______ _____ _____    ______ ____
ROOT
ATOM      1  O   UNL     1     -38.358  23.671   3.077  0.00  0.00    -0.262 OA
ATOM      2  O   UNL     1     -40.111  21.967   2.166  0.00  0.00    -0.262 OA
ATOM      3  N   UNL     1     -36.560  22.406   2.276  0.00  0.00    -0.279 N 
ATOM      4  N   UNL     1     -38.463  20.607   1.310  0.00  0.00    -0.316 N 
ATOM      5  C   UNL     1     -34.422  19.772   0.668  0.00  0.00    +0.053 C 
ATOM      6  C   UNL     1     -36.142  21.235   1.582  0.00  0.00    +0.080 A 
ATOM      7  C   UNL     1     -35.397  18.897   0.199  0.00  0.00    +0.086 C 
ATOM      8  C   UNL     1     -34.789  20.933   1.355  0.00  0.00    +0.033 C 
ATOM      9  C   UNL     1     -37.107  20.346   1.105  0.00  0.00    +0.075 A 
ATOM     10  C   UNL     1     -36.742  19.182   0.417  0.00  0.00    +0.024 C 
ATOM     11  C   UNL     1     -37.908  22.690   2.493  0.00  0.00    +0.318 A 
ATOM     12  C   UNL     1     -38.928  21.715   1.971  0.00  0.00    +0.314 A 
ATOM     13  H   UNL     1     -39.120  19.962   0.963  0.00  0.00    +0.169 HD
ENDROOT
BRANCH   5  15
ATOM     14  O   UNL     1     -30.286  19.159   0.237  0.00  0.00    -0.350 OA
ATOM     15  N   UNL     1     -33.065  19.503   0.462  0.00  0.00    -0.303 N 
ATOM     16  C   UNL     1     -32.230  20.561  -0.126  0.00  0.00    +0.123 C 
ATOM     17  C   UNL     1     -32.361  18.572   1.349  0.00  0.00    +0.123 C 
ATOM     18  C   UNL     1     -30.974  19.947  -0.732  0.00  0.00    +0.164 C 
ATOM     19  C   UNL     1     -31.096  18.065   0.664  0.00  0.00    +0.164 C 
ENDBRANCH   5  15
BRANCH   7  23
ATOM     20  F   UNL     1     -34.094  17.844  -1.508  0.00  0.00    -0.166 F 
ATOM     21  F   UNL     1     -34.519  16.673   0.267  0.00  0.00    -0.166 F 
ATOM     22  F   UNL     1     -36.102  17.083  -1.166  0.00  0.00    -0.166 F 
ATOM     23  C   UNL     1     -35.032  17.650  -0.536  0.00  0.00    +0.420 C 
ENDBRANCH   7  23
BRANCH   3  24
ATOM     24  C   UNL     1     -35.550  23.335   2.775  0.00  0.00    +0.225 C 
BRANCH  24  25
ATOM     25  P   UNL     1     -35.373  23.098   4.527  0.00  0.00    +0.360 P 
ATOM     26  O   UNL     1     -35.375  21.660   4.953  0.00  0.00    -0.256 OA
BRANCH  25  27
ATOM     27  O   UNL     1     -36.554  23.996   5.169  0.00  0.00    -0.322 OA
ATOM     28  H   UNL     1     -37.350  23.924   4.619  0.00  0.00    +0.220 HD
ENDBRANCH  25  27
BRANCH  25  29
ATOM     29  O   UNL     1     -34.030  23.915   4.903  0.00  0.00    -0.322 OA
ATOM     30  H   UNL     1     -34.252  24.844   5.066  0.00  0.00    +0.220 HD
ENDBRANCH  25  29
ENDBRANCH  24  25
ENDBRANCH   3  24
TORSDOF 6
ENDMDL
MODEL 5
REMARK VINA RESULT:      -5.9      4.495      6.443
REMARK  Name = 208953
REMARK  6 active torsions:
REMARK  status: ('A' for Active; 'I' for Inactive)
REMARK    1  A    between atoms: N_3  and  C_24
REMARK    2  A    between atoms: C_5  and  N_15
REMARK    3  A    between atoms: C_7  and  C_23
REMARK    4  A    between atoms: C_24  and  P_25
REMARK    5  A    between atoms: P_25  and  O_27
REMARK    6  A    between atoms: P_25  and  O_29
REMARK                            x       y       z     vdW  Elec       q    Type
REMARK                         _______ _______ _______ _____ _____    ______ ____
ROOT
ATOM      1  O   UNL     1     -31.209  30.631   5.018  0.00  0.00    -0.262 OA
ATOM      2  O   UNL     1     -31.191  29.492   7.365  0.00  0.00    -0.262 OA
ATOM      3  N   UNL     1     -32.533  28.939   4.092  0.00  0.00    -0.279 N 
ATOM      4  N   UNL     1     -32.496  27.750   6.618  0.00  0.00    -0.316 N 
ATOM      5  C   UNL     1     -34.601  25.852   3.550  0.00  0.00    +0.053 C 
ATOM      6  C   UNL     1     -33.223  27.712   4.310  0.00  0.00    +0.080 A 
ATOM      7  C   UNL     1     -34.562  25.287   4.821  0.00  0.00    +0.086 C 
ATOM      8  C   UNL     1     -33.936  27.055   3.294  0.00  0.00    +0.033 C 
ATOM      9  C   UNL     1     -33.195  27.131   5.579  0.00  0.00    +0.075 A 
ATOM     10  C   UNL     1     -33.859  25.926   5.838  0.00  0.00    +0.024 C 
ATOM     11  C   UNL     1     -31.829  29.576   5.114  0.00  0.00    +0.318 A 
ATOM     12  C   UNL     1     -31.813  28.930   6.472  0.00  0.00    +0.314 A 
ATOM     13  H   UNL     1     -32.494  27.316   7.502  0.00  0.00    +0.169 HD
ENDROOT
BRANCH   5  15
ATOM     14  O   UNL     1     -36.677  24.205   0.287  0.00  0.00    -0.350 OA
ATOM     15  N   UNL     1     -35.300  25.226   2.512  0.00  0.00    -0.303 N 
ATOM     16  C   UNL     1     -36.626  25.749   2.155  0.00  0.00    +0.123 C 
ATOM     17  C   UNL     1     -34.565  24.587   1.417  0.00  0.00    +0.123 C 
ATOM     18  C   UNL     1     -37.417  24.681   1.410  0.00  0.00    +0.164 C 
ATOM     19  C   UNL     1     -35.466  23.580   0.709  0.00  0.00    +0.164 C 
ENDBRANCH   5  15
BRANCH   7  23
ATOM     20  F   UNL     1     -34.924  22.986   4.277  0.00  0.00    -0.166 F 
ATOM     21  F   UNL     1     -35.010  23.526   6.375  0.00  0.00    -0.166 F 
ATOM     22  F   UNL     1     -36.619  24.116   5.037  0.00  0.00    -0.166 F 
ATOM     23  C   UNL     1     -35.262  24.003   5.121  0.00  0.00    +0.420 C 
ENDBRANCH   7  23
BRANCH   3  24
ATOM     24  C   UNL     1     -32.563  29.545   2.764  0.00  0.00    +0.225 C 
BRANCH  24  25
ATOM     25  P   UNL     1     -33.747  30.870   2.769  0.00  0.00    +0.360 P 
ATOM     26  O   UNL     1     -34.867  30.686   3.750  0.00  0.00    -0.256 OA
BRANCH  25  27
ATOM     27  O   UNL     1     -34.213  30.991   1.225  0.00  0.00    -0.322 OA
ATOM     28  H   UNL     1     -34.945  31.622   1.157  0.00  0.00    +0.220 HD
ENDBRANCH  25  27
BRANCH  25  29
ATOM     29  O   UNL     1     -32.855  32.197   3.000  0.00  0.00    -0.322 OA
ATOM     30  H   UNL     1     -33.248  32.939   2.514  0.00  0.00    +0.220 HD
ENDBRANCH  25  29
ENDBRANCH  24  25
ENDBRANCH   3  24
TORSDOF 6
ENDMDL
MODEL 6
REMARK VINA RESULT:      -5.8      4.140      6.077
REMARK  Name = 208953
REMARK  6 active torsions:
REMARK  status: ('A' for Active; 'I' for Inactive)
REMARK    1  A    between atoms: N_3  and  C_24
REMARK    2  A    between atoms: C_5  and  N_15
REMARK    3  A    between atoms: C_7  and  C_23
REMARK    4  A    between atoms: C_24  and  P_25
REMARK    5  A    between atoms: P_25  and  O_27
REMARK    6  A    between atoms: P_25  and  O_29
REMARK                            x       y       z     vdW  Elec       q    Type
REMARK                         _______ _______ _______ _____ _____    ______ ____
ROOT
ATOM      1  O   UNL     1     -33.208  29.289   3.022  0.00  0.00    -0.262 OA
ATOM      2  O   UNL     1     -32.500  28.845   5.494  0.00  0.00    -0.262 OA
ATOM      3  N   UNL     1     -34.144  27.157   2.798  0.00  0.00    -0.279 N 
ATOM      4  N   UNL     1     -33.375  26.717   5.446  0.00  0.00    -0.316 N 
ATOM      5  C   UNL     1     -35.338  23.649   3.402  0.00  0.00    +0.053 C 
ATOM      6  C   UNL     1     -34.424  25.907   3.421  0.00  0.00    +0.080 A 
ATOM      7  C   UNL     1     -34.942  23.464   4.723  0.00  0.00    +0.086 C 
ATOM      8  C   UNL     1     -35.082  24.861   2.754  0.00  0.00    +0.033 C 
ATOM      9  C   UNL     1     -34.033  25.703   4.746  0.00  0.00    +0.075 A 
ATOM     10  C   UNL     1     -34.288  24.491   5.398  0.00  0.00    +0.024 C 
ATOM     11  C   UNL     1     -33.489  28.184   3.477  0.00  0.00    +0.318 A 
ATOM     12  C   UNL     1     -33.077  27.940   4.903  0.00  0.00    +0.314 A 
ATOM     13  H   UNL     1     -33.112  26.544   6.379  0.00  0.00    +0.169 HD
ENDROOT
BRANCH   5  15
ATOM     14  O   UNL     1     -37.354  20.765   1.102  0.00  0.00    -0.350 OA
ATOM     15  N   UNL     1     -35.994  22.629   2.705  0.00  0.00    -0.303 N 
ATOM     16  C   UNL     1     -37.434  22.777   2.452  0.00  0.00    +0.123 C 
ATOM     17  C   UNL     1     -35.264  21.836   1.711  0.00  0.00    +0.123 C 
ATOM     18  C   UNL     1     -38.049  21.413   2.166  0.00  0.00    +0.164 C 
ATOM     19  C   UNL     1     -35.996  20.520   1.463  0.00  0.00    +0.164 C 
ENDBRANCH   5  15
BRANCH   7  23
ATOM     20  F   UNL     1     -35.445  21.128   4.603  0.00  0.00    -0.166 F 
ATOM     21  F   UNL     1     -34.165  21.776   6.229  0.00  0.00    -0.166 F 
ATOM     22  F   UNL     1     -36.287  22.252   6.263  0.00  0.00    -0.166 F 
ATOM     23  C   UNL     1     -35.202  22.179   5.439  0.00  0.00    +0.420 C 
ENDBRANCH   7  23
BRANCH   3  24
ATOM     24  C   UNL     1     -34.552  27.368   1.413  0.00  0.00    +0.225 C 
BRANCH  24  25
ATOM     25  P   UNL     1     -36.132  28.182   1.402  0.00  0.00    +0.360 P 
ATOM     26  O   UNL     1     -37.263  27.330   1.896  0.00  0.00    -0.256 OA
BRANCH  25  27
ATOM     27  O   UNL     1     -36.295  28.709  -0.118  0.00  0.00    -0.322 OA
ATOM     28  H   UNL     1     -37.238  28.804  -0.328  0.00  0.00    +0.220 HD
ENDBRANCH  25  27
BRANCH  25  29
ATOM     29  O   UNL     1     -35.884  29.537   2.248  0.00  0.00    -0.322 OA
ATOM     30  H   UNL     1     -36.586  29.637   2.910  0.00  0.00    +0.220 HD
ENDBRANCH  25  29
ENDBRANCH  24  25
ENDBRANCH   3  24
TORSDOF 6
ENDMDL
MODEL 7
REMARK VINA RESULT:      -5.8      4.366      6.419
REMARK  Name = 208953
REMARK  6 active torsions:
REMARK  status: ('A' for Active; 'I' for Inactive)
REMARK    1  A    between atoms: N_3  and  C_24
REMARK    2  A    between atoms: C_5  and  N_15
REMARK    3  A    between atoms: C_7  and  C_23
REMARK    4  A    between atoms: C_24  and  P_25
REMARK    5  A    between atoms: P_25  and  O_27
REMARK    6  A    between atoms: P_25  and  O_29
REMARK                            x       y       z     vdW  Elec       q    Type
REMARK                         _______ _______ _______ _____ _____    ______ ____
ROOT
ATOM      1  O   UNL     1     -37.477  20.448  -1.793  0.00  0.00    -0.262 OA
ATOM      2  O   UNL     1     -37.214  18.279  -0.368  0.00  0.00    -0.262 OA
ATOM      3  N   UNL     1     -36.836  21.821  -0.011  0.00  0.00    -0.279 N 
ATOM      4  N   UNL     1     -36.562  19.480   1.484  0.00  0.00    -0.316 N 
ATOM      5  C   UNL     1     -35.730  23.133   3.329  0.00  0.00    +0.053 C 
ATOM      6  C   UNL     1     -36.420  21.892   1.350  0.00  0.00    +0.080 A 
ATOM      7  C   UNL     1     -35.602  21.947   4.044  0.00  0.00    +0.086 C 
ATOM      8  C   UNL     1     -36.136  23.108   1.991  0.00  0.00    +0.033 C 
ATOM      9  C   UNL     1     -36.288  20.711   2.083  0.00  0.00    +0.075 A 
ATOM     10  C   UNL     1     -35.881  20.733   3.423  0.00  0.00    +0.024 C 
ATOM     11  C   UNL     1     -37.115  20.603  -0.631  0.00  0.00    +0.318 A 
ATOM     12  C   UNL     1     -36.966  19.346   0.181  0.00  0.00    +0.314 A 
ATOM     13  H   UNL     1     -36.459  18.664   2.027  0.00  0.00    +0.169 HD
ENDROOT
BRANCH   5  15
ATOM     14  O   UNL     1     -34.948  26.952   4.903  0.00  0.00    -0.350 OA
ATOM     15  N   UNL     1     -35.456  24.364   3.935  0.00  0.00    -0.303 N 
ATOM     16  C   UNL     1     -34.249  25.090   3.517  0.00  0.00    +0.123 C 
ATOM     17  C   UNL     1     -36.559  25.207   4.408  0.00  0.00    +0.123 C 
ATOM     18  C   UNL     1     -33.853  26.092   4.594  0.00  0.00    +0.164 C 
ATOM     19  C   UNL     1     -36.039  26.205   5.438  0.00  0.00    +0.164 C 
ENDBRANCH   5  15
BRANCH   7  23
ATOM     20  F   UNL     1     -33.932  22.483   5.671  0.00  0.00    -0.166 F 
ATOM     21  F   UNL     1     -36.002  22.650   6.295  0.00  0.00    -0.166 F 
ATOM     22  F   UNL     1     -35.114  20.688   6.000  0.00  0.00    -0.166 F 
ATOM     23  C   UNL     1     -35.171  21.945   5.474  0.00  0.00    +0.420 C 
ENDBRANCH   7  23
BRANCH   3  24
ATOM     24  C   UNL     1     -36.975  23.057  -0.776  0.00  0.00    +0.225 C 
BRANCH  24  25
ATOM     25  P   UNL     1     -38.692  23.514  -0.813  0.00  0.00    +0.360 P 
ATOM     26  O   UNL     1     -39.472  23.060   0.385  0.00  0.00    -0.256 OA
BRANCH  25  27
ATOM     27  O   UNL     1     -39.225  22.937  -2.227  0.00  0.00    -0.322 OA
ATOM     28  H   UNL     1     -39.858  23.562  -2.613  0.00  0.00    +0.220 HD
ENDBRANCH  25  27
BRANCH  25  29
ATOM     29  O   UNL     1     -38.671  25.114  -1.042  0.00  0.00    -0.322 OA
ATOM     30  H   UNL     1     -39.572  25.427  -1.216  0.00  0.00    +0.220 HD
ENDBRANCH  25  29
ENDBRANCH  24  25
ENDBRANCH   3  24
TORSDOF 6
ENDMDL
MODEL 8
REMARK VINA RESULT:      -5.8      4.612      6.361
REMARK  Name = 208953
REMARK  6 active torsions:
REMARK  status: ('A' for Active; 'I' for Inactive)
REMARK    1  A    between atoms: N_3  and  C_24
REMARK    2  A    between atoms: C_5  and  N_15
REMARK    3  A    between atoms: C_7  and  C_23
REMARK    4  A    between atoms: C_24  and  P_25
REMARK    5  A    between atoms: P_25  and  O_27
REMARK    6  A    between atoms: P_25  and  O_29
REMARK                            x       y       z     vdW  Elec       q    Type
REMARK                         _______ _______ _______ _____ _____    ______ ____
ROOT
ATOM      1  O   UNL     1     -36.335  20.470  -1.936  0.00  0.00    -0.262 OA
ATOM      2  O   UNL     1     -36.257  18.282  -0.517  0.00  0.00    -0.262 OA
ATOM      3  N   UNL     1     -36.004  21.824  -0.057  0.00  0.00    -0.279 N 
ATOM      4  N   UNL     1     -35.922  19.463   1.430  0.00  0.00    -0.316 N 
ATOM      5  C   UNL     1     -35.453  23.099   3.431  0.00  0.00    +0.053 C 
ATOM      6  C   UNL     1     -35.806  21.879   1.352  0.00  0.00    +0.080 A 
ATOM      7  C   UNL     1     -35.417  21.903   4.142  0.00  0.00    +0.086 C 
ATOM      8  C   UNL     1     -35.647  23.089   2.047  0.00  0.00    +0.033 C 
ATOM      9  C   UNL     1     -35.767  20.689   2.081  0.00  0.00    +0.075 A 
ATOM     10  C   UNL     1     -35.574  20.695   3.468  0.00  0.00    +0.024 C 
ATOM     11  C   UNL     1     -36.161  20.612  -0.729  0.00  0.00    +0.318 A 
ATOM     12  C   UNL     1     -36.117  19.343   0.078  0.00  0.00    +0.314 A 
ATOM     13  H   UNL     1     -35.890  18.641   1.971  0.00  0.00    +0.169 HD
ENDROOT
BRANCH   5  15
ATOM     14  O   UNL     1     -34.946  26.896   5.161  0.00  0.00    -0.350 OA
ATOM     15  N   UNL     1     -35.300  24.324   4.089  0.00  0.00    -0.303 N 
ATOM     16  C   UNL     1     -33.976  24.961   4.067  0.00  0.00    +0.123 C 
ATOM     17  C   UNL     1     -36.436  25.245   4.192  0.00  0.00    +0.123 C 
ATOM     18  C   UNL     1     -33.869  25.962   5.212  0.00  0.00    +0.164 C 
ATOM     19  C   UNL     1     -36.197  26.232   5.330  0.00  0.00    +0.164 C 
ENDBRANCH   5  15
BRANCH   7  23
ATOM     20  F   UNL     1     -35.909  22.856   6.280  0.00  0.00    -0.166 F 
ATOM     21  F   UNL     1     -35.590  20.712   6.209  0.00  0.00    -0.166 F 
ATOM     22  F   UNL     1     -33.906  22.067   5.970  0.00  0.00    -0.166 F 
ATOM     23  C   UNL     1     -35.212  21.885   5.621  0.00  0.00    +0.420 C 
ENDBRANCH   7  23
BRANCH   3  24
ATOM     24  C   UNL     1     -36.046  23.069  -0.818  0.00  0.00    +0.225 C 
BRANCH  24  25
ATOM     25  P   UNL     1     -34.445  23.350  -1.537  0.00  0.00    +0.360 P 
ATOM     26  O   UNL     1     -33.303  22.859  -0.700  0.00  0.00    -0.256 OA
BRANCH  25  27
ATOM     27  O   UNL     1     -34.424  24.937  -1.847  0.00  0.00    -0.322 OA
ATOM     28  H   UNL     1     -34.737  25.423  -1.068  0.00  0.00    +0.220 HD
ENDBRANCH  25  27
BRANCH  25  29
ATOM     29  O   UNL     1     -34.548  22.680  -3.005  0.00  0.00    -0.322 OA
ATOM     30  H   UNL     1     -33.764  22.133  -3.165  0.00  0.00    +0.220 HD
ENDBRANCH  25  29
ENDBRANCH  24  25
ENDBRANCH   3  24
TORSDOF 6
ENDMDL
MODEL 9
REMARK VINA RESULT:      -5.7      4.245      5.998
REMARK  Name = 208953
REMARK  6 active torsions:
REMARK  status: ('A' for Active; 'I' for Inactive)
REMARK    1  A    between atoms: N_3  and  C_24
REMARK    2  A    between atoms: C_5  and  N_15
REMARK    3  A    between atoms: C_7  and  C_23
REMARK    4  A    between atoms: C_24  and  P_25
REMARK    5  A    between atoms: P_25  and  O_27
REMARK    6  A    between atoms: P_25  and  O_29
REMARK                            x       y       z     vdW  Elec       q    Type
REMARK                         _______ _______ _______ _____ _____    ______ ____
ROOT
ATOM      1  O   UNL     1     -31.580  29.251   4.523  0.00  0.00    -0.262 OA
ATOM      2  O   UNL     1     -32.243  28.441   6.913  0.00  0.00    -0.262 OA
ATOM      3  N   UNL     1     -32.699  27.470   3.498  0.00  0.00    -0.279 N 
ATOM      4  N   UNL     1     -33.394  26.636   6.069  0.00  0.00    -0.316 N 
ATOM      5  C   UNL     1     -34.709  24.373   2.814  0.00  0.00    +0.053 C 
ATOM      6  C   UNL     1     -33.486  26.296   3.675  0.00  0.00    +0.080 A 
ATOM      7  C   UNL     1     -35.037  23.986   4.110  0.00  0.00    +0.086 C 
ATOM      8  C   UNL     1     -33.938  25.519   2.596  0.00  0.00    +0.033 C 
ATOM      9  C   UNL     1     -33.824  25.893   4.968  0.00  0.00    +0.075 A 
ATOM     10  C   UNL     1     -34.596  24.746   5.190  0.00  0.00    +0.024 C 
ATOM     11  C   UNL     1     -32.258  28.229   4.582  0.00  0.00    +0.318 A 
ATOM     12  C   UNL     1     -32.635  27.773   5.965  0.00  0.00    +0.314 A 
ATOM     13  H   UNL     1     -33.649  26.326   6.969  0.00  0.00    +0.169 HD
ENDROOT
BRANCH   5  15
ATOM     14  O   UNL     1     -35.933  22.333  -0.651  0.00  0.00    -0.350 OA
ATOM     15  N   UNL     1     -35.141  23.624   1.715  0.00  0.00    -0.303 N 
ATOM     16  C   UNL     1     -36.298  24.114   0.953  0.00  0.00    +0.123 C 
ATOM     17  C   UNL     1     -34.176  22.832   0.945  0.00  0.00    +0.123 C 
ATOM     18  C   UNL     1     -36.917  22.967   0.164  0.00  0.00    +0.164 C 
ATOM     19  C   UNL     1     -34.909  21.753   0.155  0.00  0.00    +0.164 C 
ENDBRANCH   5  15
BRANCH   7  23
ATOM     20  F   UNL     1     -35.322  21.626   3.849  0.00  0.00    -0.166 F 
ATOM     21  F   UNL     1     -36.037  22.504   5.698  0.00  0.00    -0.166 F 
ATOM     22  F   UNL     1     -37.113  22.859   3.843  0.00  0.00    -0.166 F 
ATOM     23  C   UNL     1     -35.859  22.767   4.371  0.00  0.00    +0.420 C 
ENDBRANCH   7  23
BRANCH   3  24
ATOM     24  C   UNL     1     -32.345  27.891   2.145  0.00  0.00    +0.225 C 
BRANCH  24  25
ATOM     25  P   UNL     1     -30.702  27.319   1.783  0.00  0.00    +0.360 P 
ATOM     26  O   UNL     1     -30.322  26.057   2.498  0.00  0.00    -0.256 OA
BRANCH  25  27
ATOM     27  O   UNL     1     -29.759  28.592   2.108  0.00  0.00    -0.322 OA
ATOM     28  H   UNL     1     -29.665  29.136   1.311  0.00  0.00    +0.220 HD
ENDBRANCH  25  27
BRANCH  25  29
ATOM     29  O   UNL     1     -30.664  27.222   0.170  0.00  0.00    -0.322 OA
ATOM     30  H   UNL     1     -31.512  26.881  -0.153  0.00  0.00    +0.220 HD
ENDBRANCH  25  29
ENDBRANCH  24  25
ENDBRANCH   3  24
TORSDOF 6
ENDMDL
