MODEL 1
REMARK VINA RESULT:      -6.1      0.000      0.000
REMARK  Name = 192138
REMARK  5 active torsions:
REMARK  status: ('A' for Active; 'I' for Inactive)
REMARK    1  A    between atoms: C_2  and  O_16
REMARK    2  A    between atoms: C_3  and  O_18
REMARK    3  A    between atoms: C_4  and  N_7
REMARK    4  A    between atoms: C_5  and  O_20
REMARK    5  A    between atoms: C_10  and  C_15
REMARK                            x       y       z     vdW  Elec       q    Type
REMARK                         _______ _______ _______ _____ _____    ______ ____
ROOT
ATOM      1  O   UNL     1     -37.125  22.642   1.719  0.00  0.00    -0.333 OA
ATOM      2  C   UNL     1     -36.135  20.438   2.186  0.00  0.00    +0.187 C 
ATOM      3  C   UNL     1     -36.648  19.950   0.830  0.00  0.00    +0.171 C 
ATOM      4  C   UNL     1     -35.948  21.963   2.163  0.00  0.00    +0.223 C 
ATOM      5  C   UNL     1     -37.856  20.763   0.365  0.00  0.00    +0.169 C 
ATOM      6  C   UNL     1     -37.536  22.252   0.407  0.00  0.00    +0.176 C 
ENDROOT
BRANCH   4   7
ATOM      7  N   UNL     1     -35.592  22.439   3.532  0.00  0.00    -0.279 N 
ATOM      8  C   UNL     1     -35.266  23.730   3.709  0.00  0.00    +0.126 C 
ATOM      9  C   UNL     1     -35.609  21.565   4.550  0.00  0.00    +0.063 C 
ATOM     10  C   UNL     1     -34.932  24.201   4.971  0.00  0.00    +0.077 C 
ATOM     11  C   UNL     1     -35.283  21.979   5.834  0.00  0.00    +0.016 C 
ATOM     12  C   UNL     1     -34.941  23.312   6.042  0.00  0.00    +0.005 C 
BRANCH  10  15
ATOM     13  O   UNL     1     -35.519  26.482   5.290  0.00  0.00    -0.241 OA
ATOM     14  O   UNL     1     -33.329  25.937   5.223  0.00  0.00    -0.241 OA
ATOM     15  C   UNL     1     -34.575  25.612   5.172  0.00  0.00    +0.385 C 
ENDBRANCH  10  15
ENDBRANCH   4   7
BRANCH   2  16
ATOM     16  O   UNL     1     -34.883  19.801   2.437  0.00  0.00    -0.378 OA
ATOM     17  H   UNL     1     -34.570  19.372   1.624  0.00  0.00    +0.211 HD
ENDBRANCH   2  16
BRANCH   3  18
ATOM     18  O   UNL     1     -36.993  18.571   0.928  0.00  0.00    -0.379 OA
ATOM     19  H   UNL     1     -36.727  18.232   1.797  0.00  0.00    +0.211 HD
ENDBRANCH   3  18
BRANCH   5  20
ATOM     20  O   UNL     1     -38.959  20.504   1.236  0.00  0.00    -0.379 OA
ATOM     21  H   UNL     1     -39.152  21.299   1.758  0.00  0.00    +0.211 HD
ENDBRANCH   5  20
TORSDOF 5
ENDMDL
MODEL 2
REMARK VINA RESULT:      -6.1      2.268      6.552
REMARK  Name = 192138
REMARK  5 active torsions:
REMARK  status: ('A' for Active; 'I' for Inactive)
REMARK    1  A    between atoms: C_2  and  O_16
REMARK    2  A    between atoms: C_3  and  O_18
REMARK    3  A    between atoms: C_4  and  N_7
REMARK    4  A    between atoms: C_5  and  O_20
REMARK    5  A    between atoms: C_10  and  C_15
REMARK                            x       y       z     vdW  Elec       q    Type
REMARK                         _______ _______ _______ _____ _____    ______ ____
ROOT
ATOM      1  O   UNL     1     -32.769  26.147   3.655  0.00  0.00    -0.333 OA
ATOM      2  C   UNL     1     -35.039  27.084   3.504  0.00  0.00    +0.187 C 
ATOM      3  C   UNL     1     -34.440  28.373   2.938  0.00  0.00    +0.171 C 
ATOM      4  C   UNL     1     -34.107  25.898   3.217  0.00  0.00    +0.223 C 
ATOM      5  C   UNL     1     -32.986  28.549   3.370  0.00  0.00    +0.169 C 
ATOM      6  C   UNL     1     -32.183  27.297   3.040  0.00  0.00    +0.176 C 
ENDROOT
BRANCH   4   7
ATOM      7  N   UNL     1     -34.629  24.679   3.902  0.00  0.00    -0.279 N 
ATOM      8  C   UNL     1     -35.007  23.625   3.161  0.00  0.00    +0.126 C 
ATOM      9  C   UNL     1     -34.706  24.668   5.242  0.00  0.00    +0.063 C 
ATOM     10  C   UNL     1     -35.495  22.478   3.771  0.00  0.00    +0.077 C 
ATOM     11  C   UNL     1     -35.187  23.550   5.907  0.00  0.00    +0.016 C 
ATOM     12  C   UNL     1     -35.585  22.445   5.159  0.00  0.00    +0.005 C 
BRANCH  10  15
ATOM     13  O   UNL     1     -35.192  20.250   3.000  0.00  0.00    -0.241 OA
ATOM     14  O   UNL     1     -36.976  21.412   2.248  0.00  0.00    -0.241 OA
ATOM     15  C   UNL     1     -35.909  21.321   2.965  0.00  0.00    +0.385 C 
ENDBRANCH  10  15
ENDBRANCH   4   7
BRANCH   2  16
ATOM     16  O   UNL     1     -36.301  26.872   2.872  0.00  0.00    -0.378 OA
ATOM     17  H   UNL     1     -36.178  26.829   1.910  0.00  0.00    +0.211 HD
ENDBRANCH   2  16
BRANCH   3  18
ATOM     18  O   UNL     1     -35.220  29.483   3.375  0.00  0.00    -0.379 OA
ATOM     19  H   UNL     1     -36.100  29.176   3.642  0.00  0.00    +0.211 HD
ENDBRANCH   3  18
BRANCH   5  20
ATOM     20  O   UNL     1     -32.938  28.768   4.781  0.00  0.00    -0.379 OA
ATOM     21  H   UNL     1     -32.301  28.156   5.182  0.00  0.00    +0.211 HD
ENDBRANCH   5  20
TORSDOF 5
ENDMDL
MODEL 3
REMARK VINA RESULT:      -6.0      1.747      2.225
REMARK  Name = 192138
REMARK  5 active torsions:
REMARK  status: ('A' for Active; 'I' for Inactive)
REMARK    1  A    between atoms: C_2  and  O_16
REMARK    2  A    between atoms: C_3  and  O_18
REMARK    3  A    between atoms: C_4  and  N_7
REMARK    4  A    between atoms: C_5  and  O_20
REMARK    5  A    between atoms: C_10  and  C_15
REMARK                            x       y       z     vdW  Elec       q    Type
REMARK                         _______ _______ _______ _____ _____    ______ ____
ROOT
ATOM      1  O   UNL     1     -35.335  23.255   1.369  0.00  0.00    -0.333 OA
ATOM      2  C   UNL     1     -35.991  21.667   3.131  0.00  0.00    +0.187 C 
ATOM      3  C   UNL     1     -35.853  20.528   2.118  0.00  0.00    +0.171 C 
ATOM      4  C   UNL     1     -35.102  22.850   2.720  0.00  0.00    +0.223 C 
ATOM      5  C   UNL     1     -36.032  21.031   0.686  0.00  0.00    +0.169 C 
ATOM      6  C   UNL     1     -35.103  22.209   0.423  0.00  0.00    +0.176 C 
ENDROOT
BRANCH   4   7
ATOM      7  N   UNL     1     -35.358  24.004   3.631  0.00  0.00    -0.279 N 
ATOM      8  C   UNL     1     -34.317  24.713   4.096  0.00  0.00    +0.126 C 
ATOM      9  C   UNL     1     -36.625  24.303   3.960  0.00  0.00    +0.063 C 
ATOM     10  C   UNL     1     -34.527  25.792   4.942  0.00  0.00    +0.077 C 
ATOM     11  C   UNL     1     -36.895  25.370   4.805  0.00  0.00    +0.016 C 
ATOM     12  C   UNL     1     -35.831  26.120   5.299  0.00  0.00    +0.005 C 
BRANCH  10  15
ATOM     13  O   UNL     1     -32.486  26.969   4.625  0.00  0.00    -0.241 OA
ATOM     14  O   UNL     1     -33.335  26.837   6.714  0.00  0.00    -0.241 OA
ATOM     15  C   UNL     1     -33.392  26.572   5.453  0.00  0.00    +0.385 C 
ENDBRANCH  10  15
ENDBRANCH   4   7
BRANCH   2  16
ATOM     16  O   UNL     1     -35.582  21.173   4.405  0.00  0.00    -0.378 OA
ATOM     17  H   UNL     1     -36.360  20.869   4.899  0.00  0.00    +0.211 HD
ENDBRANCH   2  16
BRANCH   3  18
ATOM     18  O   UNL     1     -36.821  19.523   2.410  0.00  0.00    -0.379 OA
ATOM     19  H   UNL     1     -37.238  19.226   1.586  0.00  0.00    +0.211 HD
ENDBRANCH   3  18
BRANCH   5  20
ATOM     20  O   UNL     1     -37.383  21.459   0.503  0.00  0.00    -0.379 OA
ATOM     21  H   UNL     1     -37.986  20.766   0.811  0.00  0.00    +0.211 HD
ENDBRANCH   5  20
TORSDOF 5
ENDMDL
MODEL 4
REMARK VINA RESULT:      -5.9      3.448      5.065
REMARK  Name = 192138
REMARK  5 active torsions:
REMARK  status: ('A' for Active; 'I' for Inactive)
REMARK    1  A    between atoms: C_2  and  O_16
REMARK    2  A    between atoms: C_3  and  O_18
REMARK    3  A    between atoms: C_4  and  N_7
REMARK    4  A    between atoms: C_5  and  O_20
REMARK    5  A    between atoms: C_10  and  C_15
REMARK                            x       y       z     vdW  Elec       q    Type
REMARK                         _______ _______ _______ _____ _____    ______ ____
ROOT
ATOM      1  O   UNL     1     -37.338  25.273   1.333  0.00  0.00    -0.333 OA
ATOM      2  C   UNL     1     -39.143  25.687   2.953  0.00  0.00    +0.187 C 
ATOM      3  C   UNL     1     -40.079  26.012   1.787  0.00  0.00    +0.171 C 
ATOM      4  C   UNL     1     -38.014  24.758   2.482  0.00  0.00    +0.223 C 
ATOM      5  C   UNL     1     -39.298  26.480   0.560  0.00  0.00    +0.169 C 
ATOM      6  C   UNL     1     -38.206  25.475   0.216  0.00  0.00    +0.176 C 
ENDROOT
BRANCH   4   7
ATOM      7  N   UNL     1     -37.031  24.571   3.590  0.00  0.00    -0.279 N 
ATOM      8  C   UNL     1     -36.592  23.333   3.870  0.00  0.00    +0.126 C 
ATOM      9  C   UNL     1     -36.612  25.646   4.275  0.00  0.00    +0.063 C 
ATOM     10  C   UNL     1     -35.675  23.130   4.892  0.00  0.00    +0.077 C 
ATOM     11  C   UNL     1     -35.698  25.503   5.310  0.00  0.00    +0.016 C 
ATOM     12  C   UNL     1     -35.227  24.230   5.618  0.00  0.00    +0.005 C 
BRANCH  10  15
ATOM     13  O   UNL     1     -34.746  21.534   6.388  0.00  0.00    -0.241 OA
ATOM     14  O   UNL     1     -35.222  20.879   4.281  0.00  0.00    -0.241 OA
ATOM     15  C   UNL     1     -35.190  21.779   5.203  0.00  0.00    +0.385 C 
ENDBRANCH  10  15
ENDBRANCH   4   7
BRANCH   2  16
ATOM     16  O   UNL     1     -39.913  25.039   3.966  0.00  0.00    -0.378 OA
ATOM     17  H   UNL     1     -39.333  24.797   4.706  0.00  0.00    +0.211 HD
ENDBRANCH   2  16
BRANCH   3  18
ATOM     18  O   UNL     1     -41.003  27.018   2.194  0.00  0.00    -0.379 OA
ATOM     19  H   UNL     1     -40.525  27.840   2.382  0.00  0.00    +0.211 HD
ENDBRANCH   3  18
BRANCH   5  20
ATOM     20  O   UNL     1     -38.690  27.742   0.843  0.00  0.00    -0.379 OA
ATOM     21  H   UNL     1     -37.726  27.658   0.778  0.00  0.00    +0.211 HD
ENDBRANCH   5  20
TORSDOF 5
ENDMDL
MODEL 5
REMARK VINA RESULT:      -5.7      2.218      5.989
REMARK  Name = 192138
REMARK  5 active torsions:
REMARK  status: ('A' for Active; 'I' for Inactive)
REMARK    1  A    between atoms: C_2  and  O_16
REMARK    2  A    between atoms: C_3  and  O_18
REMARK    3  A    between atoms: C_4  and  N_7
REMARK    4  A    between atoms: C_5  and  O_20
REMARK    5  A    between atoms: C_10  and  C_15
REMARK                            x       y       z     vdW  Elec       q    Type
REMARK                         _______ _______ _______ _____ _____    ______ ____
ROOT
ATOM      1  O   UNL     1     -35.653  23.720   4.984  0.00  0.00    -0.333 OA
ATOM      2  C   UNL     1     -35.698  25.236   3.047  0.00  0.00    +0.187 C 
ATOM      3  C   UNL     1     -35.039  26.314   3.910  0.00  0.00    +0.171 C 
ATOM      4  C   UNL     1     -35.356  23.841   3.591  0.00  0.00    +0.223 C 
ATOM      5  C   UNL     1     -35.322  26.090   5.395  0.00  0.00    +0.169 C 
ATOM      6  C   UNL     1     -34.950  24.666   5.792  0.00  0.00    +0.176 C 
ENDROOT
BRANCH   4   7
ATOM      7  N   UNL     1     -36.123  22.811   2.832  0.00  0.00    -0.279 N 
ATOM      8  C   UNL     1     -37.459  22.919   2.754  0.00  0.00    +0.126 C 
ATOM      9  C   UNL     1     -35.457  21.804   2.246  0.00  0.00    +0.063 C 
ATOM     10  C   UNL     1     -38.198  21.976   2.052  0.00  0.00    +0.077 C 
ATOM     11  C   UNL     1     -36.143  20.831   1.534  0.00  0.00    +0.016 C 
ATOM     12  C   UNL     1     -37.529  20.922   1.438  0.00  0.00    +0.005 C 
BRANCH  10  15
ATOM     13  O   UNL     1     -40.211  23.233   2.188  0.00  0.00    -0.241 OA
ATOM     14  O   UNL     1     -40.348  21.042   1.660  0.00  0.00    -0.241 OA
ATOM     15  C   UNL     1     -39.660  22.089   1.962  0.00  0.00    +0.385 C 
ENDBRANCH  10  15
ENDBRANCH   4   7
BRANCH   2  16
ATOM     16  O   UNL     1     -35.200  25.373   1.717  0.00  0.00    -0.378 OA
ATOM     17  H   UNL     1     -34.316  25.775   1.743  0.00  0.00    +0.211 HD
ENDBRANCH   2  16
BRANCH   3  18
ATOM     18  O   UNL     1     -35.518  27.595   3.507  0.00  0.00    -0.379 OA
ATOM     19  H   UNL     1     -34.883  28.001   2.897  0.00  0.00    +0.211 HD
ENDBRANCH   3  18
BRANCH   5  20
ATOM     20  O   UNL     1     -36.714  26.289   5.644  0.00  0.00    -0.379 OA
ATOM     21  H   UNL     1     -37.116  26.745   4.888  0.00  0.00    +0.211 HD
ENDBRANCH   5  20
TORSDOF 5
ENDMDL
MODEL 6
REMARK VINA RESULT:      -5.7      3.218      4.418
REMARK  Name = 192138
REMARK  5 active torsions:
REMARK  status: ('A' for Active; 'I' for Inactive)
REMARK    1  A    between atoms: C_2  and  O_16
REMARK    2  A    between atoms: C_3  and  O_18
REMARK    3  A    between atoms: C_4  and  N_7
REMARK    4  A    between atoms: C_5  and  O_20
REMARK    5  A    between atoms: C_10  and  C_15
REMARK                            x       y       z     vdW  Elec       q    Type
REMARK                         _______ _______ _______ _____ _____    ______ ____
ROOT
ATOM      1  O   UNL     1     -37.137  25.105   1.162  0.00  0.00    -0.333 OA
ATOM      2  C   UNL     1     -38.741  25.547   2.975  0.00  0.00    +0.187 C 
ATOM      3  C   UNL     1     -39.788  25.915   1.922  0.00  0.00    +0.171 C 
ATOM      4  C   UNL     1     -37.699  24.592   2.372  0.00  0.00    +0.223 C 
ATOM      5  C   UNL     1     -39.133  26.379   0.623  0.00  0.00    +0.169 C 
ATOM      6  C   UNL     1     -38.116  25.348   0.149  0.00  0.00    +0.176 C 
ENDROOT
BRANCH   4   7
ATOM      7  N   UNL     1     -36.606  24.361   3.363  0.00  0.00    -0.279 N 
ATOM      8  C   UNL     1     -35.880  25.407   3.790  0.00  0.00    +0.126 C 
ATOM      9  C   UNL     1     -36.380  23.113   3.801  0.00  0.00    +0.063 C 
ATOM     10  C   UNL     1     -34.860  25.221   4.712  0.00  0.00    +0.077 C 
ATOM     11  C   UNL     1     -35.372  22.866   4.722  0.00  0.00    +0.016 C 
ATOM     12  C   UNL     1     -34.605  23.935   5.179  0.00  0.00    +0.005 C 
BRANCH  10  15
ATOM     13  O   UNL     1     -33.381  26.236   6.271  0.00  0.00    -0.241 OA
ATOM     14  O   UNL     1     -34.069  27.452   4.497  0.00  0.00    -0.241 OA
ATOM     15  C   UNL     1     -34.063  26.361   5.184  0.00  0.00    +0.385 C 
ENDBRANCH  10  15
ENDBRANCH   4   7
BRANCH   2  16
ATOM     16  O   UNL     1     -39.414  24.907   4.059  0.00  0.00    -0.378 OA
ATOM     17  H   UNL     1     -39.760  25.580   4.666  0.00  0.00    +0.211 HD
ENDBRANCH   2  16
BRANCH   3  18
ATOM     18  O   UNL     1     -40.631  26.942   2.440  0.00  0.00    -0.379 OA
ATOM     19  H   UNL     1     -40.099  27.726   2.645  0.00  0.00    +0.211 HD
ENDBRANCH   3  18
BRANCH   5  20
ATOM     20  O   UNL     1     -38.460  27.619   0.851  0.00  0.00    -0.379 OA
ATOM     21  H   UNL     1     -39.110  28.336   0.899  0.00  0.00    +0.211 HD
ENDBRANCH   5  20
TORSDOF 5
ENDMDL
MODEL 7
REMARK VINA RESULT:      -5.6      1.633      2.106
REMARK  Name = 192138
REMARK  5 active torsions:
REMARK  status: ('A' for Active; 'I' for Inactive)
REMARK    1  A    between atoms: C_2  and  O_16
REMARK    2  A    between atoms: C_3  and  O_18
REMARK    3  A    between atoms: C_4  and  N_7
REMARK    4  A    between atoms: C_5  and  O_20
REMARK    5  A    between atoms: C_10  and  C_15
REMARK                            x       y       z     vdW  Elec       q    Type
REMARK                         _______ _______ _______ _____ _____    ______ ____
ROOT
ATOM      1  O   UNL     1     -37.832  24.139   1.741  0.00  0.00    -0.333 OA
ATOM      2  C   UNL     1     -38.315  21.780   2.246  0.00  0.00    +0.187 C 
ATOM      3  C   UNL     1     -39.248  21.740   1.034  0.00  0.00    +0.171 C 
ATOM      4  C   UNL     1     -37.252  22.872   2.059  0.00  0.00    +0.223 C 
ATOM      5  C   UNL     1     -39.776  23.132   0.690  0.00  0.00    +0.169 C 
ATOM      6  C   UNL     1     -38.618  24.113   0.548  0.00  0.00    +0.176 C 
ENDROOT
BRANCH   4   7
ATOM      7  N   UNL     1     -36.445  22.999   3.308  0.00  0.00    -0.279 N 
ATOM      8  C   UNL     1     -36.222  24.221   3.819  0.00  0.00    +0.126 C 
ATOM      9  C   UNL     1     -35.966  21.888   3.889  0.00  0.00    +0.063 C 
ATOM     10  C   UNL     1     -35.477  24.368   4.981  0.00  0.00    +0.077 C 
ATOM     11  C   UNL     1     -35.213  21.974   5.051  0.00  0.00    +0.016 C 
ATOM     12  C   UNL     1     -34.968  23.230   5.599  0.00  0.00    +0.005 C 
BRANCH  10  15
ATOM     13  O   UNL     1     -36.154  26.596   5.456  0.00  0.00    -0.241 OA
ATOM     14  O   UNL     1     -34.097  25.937   6.113  0.00  0.00    -0.241 OA
ATOM     15  C   UNL     1     -35.230  25.701   5.545  0.00  0.00    +0.385 C 
ENDBRANCH  10  15
ENDBRANCH   4   7
BRANCH   2  16
ATOM     16  O   UNL     1     -37.686  20.504   2.358  0.00  0.00    -0.378 OA
ATOM     17  H   UNL     1     -37.292  20.262   1.504  0.00  0.00    +0.211 HD
ENDBRANCH   2  16
BRANCH   3  18
ATOM     18  O   UNL     1     -40.334  20.857   1.307  0.00  0.00    -0.379 OA
ATOM     19  H   UNL     1     -41.072  21.057   0.710  0.00  0.00    +0.211 HD
ENDBRANCH   3  18
BRANCH   5  20
ATOM     20  O   UNL     1     -40.635  23.582   1.739  0.00  0.00    -0.379 OA
ATOM     21  H   UNL     1     -40.656  24.552   1.745  0.00  0.00    +0.211 HD
ENDBRANCH   5  20
TORSDOF 5
ENDMDL
MODEL 8
REMARK VINA RESULT:      -5.6      1.518      2.215
REMARK  Name = 192138
REMARK  5 active torsions:
REMARK  status: ('A' for Active; 'I' for Inactive)
REMARK    1  A    between atoms: C_2  and  O_16
REMARK    2  A    between atoms: C_3  and  O_18
REMARK    3  A    between atoms: C_4  and  N_7
REMARK    4  A    between atoms: C_5  and  O_20
REMARK    5  A    between atoms: C_10  and  C_15
REMARK                            x       y       z     vdW  Elec       q    Type
REMARK                         _______ _______ _______ _____ _____    ______ ____
ROOT
ATOM      1  O   UNL     1     -34.594  21.526   1.501  0.00  0.00    -0.333 OA
ATOM      2  C   UNL     1     -37.044  21.383   1.677  0.00  0.00    +0.187 C 
ATOM      3  C   UNL     1     -37.074  20.684   0.317  0.00  0.00    +0.171 C 
ATOM      4  C   UNL     1     -35.683  21.165   2.354  0.00  0.00    +0.223 C 
ATOM      5  C   UNL     1     -35.848  21.042  -0.522  0.00  0.00    +0.169 C 
ATOM      6  C   UNL     1     -34.574  20.790   0.276  0.00  0.00    +0.176 C 
ENDROOT
BRANCH   4   7
ATOM      7  N   UNL     1     -35.616  21.974   3.607  0.00  0.00    -0.279 N 
ATOM      8  C   UNL     1     -35.968  23.269   3.567  0.00  0.00    +0.126 C 
ATOM      9  C   UNL     1     -35.206  21.384   4.740  0.00  0.00    +0.063 C 
ATOM     10  C   UNL     1     -35.918  24.044   4.717  0.00  0.00    +0.077 C 
ATOM     11  C   UNL     1     -35.133  22.110   5.921  0.00  0.00    +0.016 C 
ATOM     12  C   UNL     1     -35.494  23.454   5.904  0.00  0.00    +0.005 C 
BRANCH  10  15
ATOM     13  O   UNL     1     -35.744  26.280   5.504  0.00  0.00    -0.241 OA
ATOM     14  O   UNL     1     -37.190  25.843   3.826  0.00  0.00    -0.241 OA
ATOM     15  C   UNL     1     -36.304  25.461   4.680  0.00  0.00    +0.385 C 
ENDBRANCH  10  15
ENDBRANCH   4   7
BRANCH   2  16
ATOM     16  O   UNL     1     -38.081  20.823   2.483  0.00  0.00    -0.378 OA
ATOM     17  H   UNL     1     -38.339  19.960   2.121  0.00  0.00    +0.211 HD
ENDBRANCH   2  16
BRANCH   3  18
ATOM     18  O   UNL     1     -38.266  21.052  -0.373  0.00  0.00    -0.379 OA
ATOM     19  H   UNL     1     -39.038  20.757   0.134  0.00  0.00    +0.211 HD
ENDBRANCH   3  18
BRANCH   5  20
ATOM     20  O   UNL     1     -35.906  22.425  -0.873  0.00  0.00    -0.379 OA
ATOM     21  H   UNL     1     -36.803  22.646  -1.170  0.00  0.00    +0.211 HD
ENDBRANCH   5  20
TORSDOF 5
ENDMDL
MODEL 9
REMARK VINA RESULT:      -5.6      2.094      6.505
REMARK  Name = 192138
REMARK  5 active torsions:
REMARK  status: ('A' for Active; 'I' for Inactive)
REMARK    1  A    between atoms: C_2  and  O_16
REMARK    2  A    between atoms: C_3  and  O_18
REMARK    3  A    between atoms: C_4  and  N_7
REMARK    4  A    between atoms: C_5  and  O_20
REMARK    5  A    between atoms: C_10  and  C_15
REMARK                            x       y       z     vdW  Elec       q    Type
REMARK                         _______ _______ _______ _____ _____    ______ ____
ROOT
ATOM      1  O   UNL     1     -36.577  23.899   4.762  0.00  0.00    -0.333 OA
ATOM      2  C   UNL     1     -36.406  25.608   3.000  0.00  0.00    +0.187 C 
ATOM      3  C   UNL     1     -35.306  26.296   3.811  0.00  0.00    +0.171 C 
ATOM      4  C   UNL     1     -36.468  24.114   3.353  0.00  0.00    +0.223 C 
ATOM      5  C   UNL     1     -35.422  25.967   5.299  0.00  0.00    +0.169 C 
ATOM      6  C   UNL     1     -35.488  24.458   5.501  0.00  0.00    +0.176 C 
ENDROOT
BRANCH   4   7
ATOM      7  N   UNL     1     -37.638  23.490   2.668  0.00  0.00    -0.279 N 
ATOM      8  C   UNL     1     -37.448  22.384   1.931  0.00  0.00    +0.126 C 
ATOM      9  C   UNL     1     -38.849  24.051   2.809  0.00  0.00    +0.063 C 
ATOM     10  C   UNL     1     -38.518  21.781   1.284  0.00  0.00    +0.077 C 
ATOM     11  C   UNL     1     -39.955  23.493   2.185  0.00  0.00    +0.016 C 
ATOM     12  C   UNL     1     -39.783  22.346   1.415  0.00  0.00    +0.005 C 
BRANCH  10  15
ATOM     13  O   UNL     1     -37.125  20.094   0.357  0.00  0.00    -0.241 OA
ATOM     14  O   UNL     1     -39.338  20.022  -0.087  0.00  0.00    -0.241 OA
ATOM     15  C   UNL     1     -38.317  20.571   0.477  0.00  0.00    +0.385 C 
ENDBRANCH  10  15
ENDBRANCH   4   7
BRANCH   2  16
ATOM     16  O   UNL     1     -36.095  25.766   1.616  0.00  0.00    -0.378 OA
ATOM     17  H   UNL     1     -35.729  26.653   1.467  0.00  0.00    +0.211 HD
ENDBRANCH   2  16
BRANCH   3  18
ATOM     18  O   UNL     1     -35.390  27.705   3.612  0.00  0.00    -0.379 OA
ATOM     19  H   UNL     1     -34.496  28.077   3.551  0.00  0.00    +0.211 HD
ENDBRANCH   3  18
BRANCH   5  20
ATOM     20  O   UNL     1     -36.617  26.554   5.819  0.00  0.00    -0.379 OA
ATOM     21  H   UNL     1     -36.812  26.173   6.689  0.00  0.00    +0.211 HD
ENDBRANCH   5  20
TORSDOF 5
ENDMDL
