MODEL 1
REMARK VINA RESULT:      -7.4      0.000      0.000
REMARK  Name = 190893
REMARK  7 active torsions:
REMARK  status: ('A' for Active; 'I' for Inactive)
REMARK    1  A    between atoms: N_1  and  C_12
REMARK    2  A    between atoms: C_11  and  O_20
REMARK    3  A    between atoms: C_13  and  O_22
REMARK    4  A    between atoms: C_14  and  C_17
REMARK    5  A    between atoms: N_24  and  C_26
REMARK    6  A    between atoms: C_26  and  C_27
REMARK    7  A    between atoms: C_30  and  N_34
REMARK                            x       y       z     vdW  Elec       q    Type
REMARK                         _______ _______ _______ _____ _____    ______ ____
ROOT
ATOM      1  N   UNL     1     -36.303  23.237   4.124  0.00  0.00    -0.247 N 
ATOM      2  N   UNL     1     -35.173  21.332   4.386  0.00  0.00    -0.242 NA
ATOM      3  N   UNL     1     -36.570  23.232   1.710  0.00  0.00    -0.228 NA
ATOM      4  N   UNL     1     -35.544  21.258   0.707  0.00  0.00    -0.228 NA
ATOM      5  C   UNL     1     -36.142  22.716   2.871  0.00  0.00    +0.152 C 
ATOM      6  C   UNL     1     -35.702  22.369   4.999  0.00  0.00    +0.223 C 
ATOM      7  C   UNL     1     -35.440  21.535   3.055  0.00  0.00    +0.140 C 
ATOM      8  C   UNL     1     -35.142  20.796   1.915  0.00  0.00    +0.146 C 
ATOM      9  C   UNL     1     -36.223  22.430   0.679  0.00  0.00    +0.253 C 
ATOM     10  N   UNL     1     -34.435  19.585   2.009  0.00  0.00    -0.313 N 
ATOM     11  H   UNL     1     -34.155  19.273   2.900  0.00  0.00    +0.149 HD
ENDROOT
BRANCH   1  14
ATOM     12  O   UNL     1     -38.273  24.541   3.832  0.00  0.00    -0.326 OA
ATOM     13  C   UNL     1     -36.217  25.741   4.073  0.00  0.00    +0.187 C 
ATOM     14  C   UNL     1     -36.983  24.485   4.477  0.00  0.00    +0.225 C 
ATOM     15  C   UNL     1     -36.916  26.165   2.797  0.00  0.00    +0.178 C 
ATOM     16  C   UNL     1     -38.348  25.752   3.069  0.00  0.00    +0.222 C 
BRANCH  16  19
ATOM     17  O   UNL     1     -39.225  26.210   0.902  0.00  0.00    -0.272 OA
ATOM     18  N   UNL     1     -39.628  24.131   1.868  0.00  0.00    -0.301 N 
ATOM     19  C   UNL     1     -39.099  25.409   1.825  0.00  0.00    +0.252 C 
ATOM     20  C   UNL     1     -40.417  23.566   0.797  0.00  0.00    +0.111 C 
ATOM     21  H   UNL     1     -39.458  23.579   2.665  0.00  0.00    +0.150 HD
ENDBRANCH  16  19
BRANCH  13  22
ATOM     22  O   UNL     1     -36.411  26.717   5.097  0.00  0.00    -0.378 OA
ATOM     23  H   UNL     1     -37.338  27.003   5.099  0.00  0.00    +0.211 HD
ENDBRANCH  13  22
BRANCH  15  24
ATOM     24  O   UNL     1     -36.789  27.551   2.551  0.00  0.00    -0.379 OA
ATOM     25  H   UNL     1     -37.664  27.929   2.373  0.00  0.00    +0.211 HD
ENDBRANCH  15  24
ENDBRANCH   1  14
BRANCH  10  26
ATOM     26  C   UNL     1     -34.100  18.785   0.869  0.00  0.00    +0.115 C 
BRANCH  26  27
ATOM     27  C   UNL     1     -32.635  18.903   0.553  0.00  0.00    -0.001 C 
ATOM     28  C   UNL     1     -31.765  17.893   0.948  0.00  0.00    +0.017 C 
ATOM     29  C   UNL     1     -32.168  20.019  -0.128  0.00  0.00    -0.003 C 
ATOM     30  C   UNL     1     -30.406  18.003   0.656  0.00  0.00    +0.091 C 
ATOM     31  C   UNL     1     -30.808  20.129  -0.420  0.00  0.00    +0.001 C 
ATOM     32  C   UNL     1     -29.928  19.121  -0.028  0.00  0.00    +0.020 C 
BRANCH  30  34
ATOM     33  S   UNL     1     -27.164  17.941   2.163  0.00  0.00    +0.021 S 
ATOM     34  N   UNL     1     -29.522  16.994   1.051  0.00  0.00    -0.196 NA
ATOM     35  C   UNL     1     -28.523  17.408   1.523  0.00  0.00    +0.041 C 
ENDBRANCH  30  34
ENDBRANCH  26  27
ENDBRANCH  10  26
TORSDOF 7
ENDMDL
MODEL 2
REMARK VINA RESULT:      -7.0      1.836      2.266
REMARK  Name = 190893
REMARK  7 active torsions:
REMARK  status: ('A' for Active; 'I' for Inactive)
REMARK    1  A    between atoms: N_1  and  C_12
REMARK    2  A    between atoms: C_11  and  O_20
REMARK    3  A    between atoms: C_13  and  O_22
REMARK    4  A    between atoms: C_14  and  C_17
REMARK    5  A    between atoms: N_24  and  C_26
REMARK    6  A    between atoms: C_26  and  C_27
REMARK    7  A    between atoms: C_30  and  N_34
REMARK                            x       y       z     vdW  Elec       q    Type
REMARK                         _______ _______ _______ _____ _____    ______ ____
ROOT
ATOM      1  N   UNL     1     -36.298  23.235   4.112  0.00  0.00    -0.247 N 
ATOM      2  N   UNL     1     -35.197  21.315   4.387  0.00  0.00    -0.242 NA
ATOM      3  N   UNL     1     -36.520  23.243   1.693  0.00  0.00    -0.228 NA
ATOM      4  N   UNL     1     -35.501  21.259   0.701  0.00  0.00    -0.228 NA
ATOM      5  C   UNL     1     -36.121  22.716   2.859  0.00  0.00    +0.152 C 
ATOM      6  C   UNL     1     -35.725  22.356   4.993  0.00  0.00    +0.223 C 
ATOM      7  C   UNL     1     -35.437  21.526   3.052  0.00  0.00    +0.140 C 
ATOM      8  C   UNL     1     -35.127  20.788   1.915  0.00  0.00    +0.146 C 
ATOM      9  C   UNL     1     -36.164  22.440   0.665  0.00  0.00    +0.253 C 
ATOM     10  N   UNL     1     -34.437  19.567   2.017  0.00  0.00    -0.313 N 
ATOM     11  H   UNL     1     -34.178  19.249   2.912  0.00  0.00    +0.149 HD
ENDROOT
BRANCH   1  14
ATOM     12  O   UNL     1     -38.277  24.532   3.847  0.00  0.00    -0.326 OA
ATOM     13  C   UNL     1     -36.216  25.738   4.004  0.00  0.00    +0.187 C 
ATOM     14  C   UNL     1     -36.970  24.491   4.457  0.00  0.00    +0.225 C 
ATOM     15  C   UNL     1     -36.951  26.134   2.739  0.00  0.00    +0.178 C 
ATOM     16  C   UNL     1     -38.374  25.726   3.060  0.00  0.00    +0.222 C 
BRANCH  16  19
ATOM     17  O   UNL     1     -40.333  24.996   1.917  0.00  0.00    -0.272 OA
ATOM     18  N   UNL     1     -38.408  25.447   0.688  0.00  0.00    -0.301 N 
ATOM     19  C   UNL     1     -39.160  25.356   1.846  0.00  0.00    +0.252 C 
ATOM     20  C   UNL     1     -38.929  25.121  -0.621  0.00  0.00    +0.111 C 
ATOM     21  H   UNL     1     -37.474  25.750   0.757  0.00  0.00    +0.150 HD
ENDBRANCH  16  19
BRANCH  13  22
ATOM     22  O   UNL     1     -36.382  26.735   5.012  0.00  0.00    -0.378 OA
ATOM     23  H   UNL     1     -37.327  26.914   5.137  0.00  0.00    +0.211 HD
ENDBRANCH  13  22
BRANCH  15  24
ATOM     24  O   UNL     1     -36.832  27.514   2.460  0.00  0.00    -0.379 OA
ATOM     25  H   UNL     1     -36.053  27.664   1.902  0.00  0.00    +0.211 HD
ENDBRANCH  15  24
ENDBRANCH   1  14
BRANCH  10  26
ATOM     26  C   UNL     1     -34.092  18.767   0.880  0.00  0.00    +0.115 C 
BRANCH  26  27
ATOM     27  C   UNL     1     -32.623  18.884   0.580  0.00  0.00    -0.001 C 
ATOM     28  C   UNL     1     -32.159  19.962  -0.164  0.00  0.00    +0.017 C 
ATOM     29  C   UNL     1     -31.748  17.913   1.048  0.00  0.00    -0.003 C 
ATOM     30  C   UNL     1     -30.797  20.071  -0.443  0.00  0.00    +0.091 C 
ATOM     31  C   UNL     1     -30.385  18.021   0.769  0.00  0.00    +0.001 C 
ATOM     32  C   UNL     1     -29.910  19.100   0.024  0.00  0.00    +0.020 C 
BRANCH  30  34
ATOM     33  S   UNL     1     -31.901  23.424  -1.013  0.00  0.00    +0.021 S 
ATOM     34  N   UNL     1     -30.320  21.151  -1.191  0.00  0.00    -0.196 NA
ATOM     35  C   UNL     1     -31.000  22.113  -1.108  0.00  0.00    +0.041 C 
ENDBRANCH  30  34
ENDBRANCH  26  27
ENDBRANCH  10  26
TORSDOF 7
ENDMDL
MODEL 3
REMARK VINA RESULT:      -7.0      2.456      3.656
REMARK  Name = 190893
REMARK  7 active torsions:
REMARK  status: ('A' for Active; 'I' for Inactive)
REMARK    1  A    between atoms: N_1  and  C_12
REMARK    2  A    between atoms: C_11  and  O_20
REMARK    3  A    between atoms: C_13  and  O_22
REMARK    4  A    between atoms: C_14  and  C_17
REMARK    5  A    between atoms: N_24  and  C_26
REMARK    6  A    between atoms: C_26  and  C_27
REMARK    7  A    between atoms: C_30  and  N_34
REMARK                            x       y       z     vdW  Elec       q    Type
REMARK                         _______ _______ _______ _____ _____    ______ ____
ROOT
ATOM      1  N   UNL     1     -36.095  23.328   2.557  0.00  0.00    -0.247 N 
ATOM      2  N   UNL     1     -35.554  21.256   3.184  0.00  0.00    -0.242 NA
ATOM      3  N   UNL     1     -35.854  23.108   0.150  0.00  0.00    -0.228 NA
ATOM      4  N   UNL     1     -35.170  20.849  -0.472  0.00  0.00    -0.228 NA
ATOM      5  C   UNL     1     -35.815  22.643   1.407  0.00  0.00    +0.152 C 
ATOM      6  C   UNL     1     -35.922  22.450   3.596  0.00  0.00    +0.223 C 
ATOM      7  C   UNL     1     -35.484  21.362   1.817  0.00  0.00    +0.140 C 
ATOM      8  C   UNL     1     -35.152  20.448   0.822  0.00  0.00    +0.146 C 
ATOM      9  C   UNL     1     -35.514  22.135  -0.725  0.00  0.00    +0.253 C 
ATOM     10  N   UNL     1     -34.804  19.126   1.148  0.00  0.00    -0.313 N 
ATOM     11  H   UNL     1     -34.800  18.862   2.096  0.00  0.00    +0.149 HD
ENDROOT
BRANCH   1  14
ATOM     12  O   UNL     1     -35.346  25.587   2.534  0.00  0.00    -0.326 OA
ATOM     13  C   UNL     1     -37.169  25.075   3.997  0.00  0.00    +0.187 C 
ATOM     14  C   UNL     1     -36.500  24.731   2.669  0.00  0.00    +0.225 C 
ATOM     15  C   UNL     1     -36.048  25.731   4.778  0.00  0.00    +0.178 C 
ATOM     16  C   UNL     1     -35.273  26.437   3.685  0.00  0.00    +0.222 C 
BRANCH  16  19
ATOM     17  O   UNL     1     -33.002  25.717   3.685  0.00  0.00    -0.272 OA
ATOM     18  N   UNL     1     -33.544  27.746   4.689  0.00  0.00    -0.301 N 
ATOM     19  C   UNL     1     -33.820  26.578   4.001  0.00  0.00    +0.252 C 
ATOM     20  C   UNL     1     -32.217  28.107   5.133  0.00  0.00    +0.111 C 
ATOM     21  H   UNL     1     -34.287  28.361   4.886  0.00  0.00    +0.150 HD
ENDBRANCH  16  19
BRANCH  13  22
ATOM     22  O   UNL     1     -38.208  26.015   3.728  0.00  0.00    -0.378 OA
ATOM     23  H   UNL     1     -37.998  26.506   2.917  0.00  0.00    +0.211 HD
ENDBRANCH  13  22
BRANCH  15  24
ATOM     24  O   UNL     1     -36.531  26.622   5.763  0.00  0.00    -0.379 OA
ATOM     25  H   UNL     1     -36.652  27.501   5.372  0.00  0.00    +0.211 HD
ENDBRANCH  15  24
ENDBRANCH   1  14
BRANCH  10  26
ATOM     26  C   UNL     1     -34.454  18.145   0.164  0.00  0.00    +0.115 C 
BRANCH  26  27
ATOM     27  C   UNL     1     -32.990  17.812   0.250  0.00  0.00    -0.001 C 
ATOM     28  C   UNL     1     -32.578  16.493   0.105  0.00  0.00    +0.017 C 
ATOM     29  C   UNL     1     -32.068  18.826   0.474  0.00  0.00    -0.003 C 
ATOM     30  C   UNL     1     -31.220  16.184   0.186  0.00  0.00    +0.091 C 
ATOM     31  C   UNL     1     -30.710  18.516   0.555  0.00  0.00    +0.001 C 
ATOM     32  C   UNL     1     -30.287  17.195   0.410  0.00  0.00    +0.020 C 
BRANCH  30  34
ATOM     33  S   UNL     1     -31.021  13.880  -2.542  0.00  0.00    +0.021 S 
ATOM     34  N   UNL     1     -30.795  14.859   0.044  0.00  0.00    -0.196 NA
ATOM     35  C   UNL     1     -30.895  14.453  -1.060  0.00  0.00    +0.041 C 
ENDBRANCH  30  34
ENDBRANCH  26  27
ENDBRANCH  10  26
TORSDOF 7
ENDMDL
MODEL 4
REMARK VINA RESULT:      -6.9      5.978     10.832
REMARK  Name = 190893
REMARK  7 active torsions:
REMARK  status: ('A' for Active; 'I' for Inactive)
REMARK    1  A    between atoms: N_1  and  C_12
REMARK    2  A    between atoms: C_11  and  O_20
REMARK    3  A    between atoms: C_13  and  O_22
REMARK    4  A    between atoms: C_14  and  C_17
REMARK    5  A    between atoms: N_24  and  C_26
REMARK    6  A    between atoms: C_26  and  C_27
REMARK    7  A    between atoms: C_30  and  N_34
REMARK                            x       y       z     vdW  Elec       q    Type
REMARK                         _______ _______ _______ _____ _____    ______ ____
ROOT
ATOM      1  N   UNL     1     -38.725  24.829   1.908  0.00  0.00    -0.247 N 
ATOM      2  N   UNL     1     -40.422  23.389   1.764  0.00  0.00    -0.242 NA
ATOM      3  N   UNL     1     -39.883  26.892   1.357  0.00  0.00    -0.228 NA
ATOM      4  N   UNL     1     -42.250  26.491   0.918  0.00  0.00    -0.228 NA
ATOM      5  C   UNL     1     -39.823  25.569   1.566  0.00  0.00    +0.152 C 
ATOM      6  C   UNL     1     -39.138  23.527   2.014  0.00  0.00    +0.223 C 
ATOM      7  C   UNL     1     -40.863  24.658   1.483  0.00  0.00    +0.140 C 
ATOM      8  C   UNL     1     -42.115  25.162   1.144  0.00  0.00    +0.146 C 
ATOM      9  C   UNL     1     -41.143  27.262   1.036  0.00  0.00    +0.253 C 
ATOM     10  N   UNL     1     -43.228  24.310   1.038  0.00  0.00    -0.313 N 
ATOM     11  H   UNL     1     -43.100  23.349   1.208  0.00  0.00    +0.149 HD
ENDROOT
BRANCH   1  14
ATOM     12  O   UNL     1     -36.466  24.214   2.338  0.00  0.00    -0.326 OA
ATOM     13  C   UNL     1     -37.227  26.259   3.320  0.00  0.00    +0.187 C 
ATOM     14  C   UNL     1     -37.363  25.324   2.122  0.00  0.00    +0.225 C 
ATOM     15  C   UNL     1     -36.659  25.352   4.392  0.00  0.00    +0.178 C 
ATOM     16  C   UNL     1     -35.785  24.415   3.583  0.00  0.00    +0.222 C 
BRANCH  16  19
ATOM     17  O   UNL     1     -35.567  22.044   3.523  0.00  0.00    -0.272 OA
ATOM     18  N   UNL     1     -35.666  23.118   5.586  0.00  0.00    -0.301 N 
ATOM     19  C   UNL     1     -35.653  23.064   4.203  0.00  0.00    +0.252 C 
ATOM     20  C   UNL     1     -35.576  21.944   6.424  0.00  0.00    +0.111 C 
ATOM     21  H   UNL     1     -35.739  23.999   6.020  0.00  0.00    +0.150 HD
ENDBRANCH  16  19
BRANCH  13  22
ATOM     22  O   UNL     1     -36.285  27.274   2.973  0.00  0.00    -0.378 OA
ATOM     23  H   UNL     1     -35.855  27.044   2.134  0.00  0.00    +0.211 HD
ENDBRANCH  13  22
BRANCH  15  24
ATOM     24  O   UNL     1     -35.929  26.067   5.369  0.00  0.00    -0.379 OA
ATOM     25  H   UNL     1     -36.546  26.513   5.970  0.00  0.00    +0.211 HD
ENDBRANCH  15  24
ENDBRANCH   1  14
BRANCH  10  26
ATOM     26  C   UNL     1     -44.538  24.775   0.692  0.00  0.00    +0.115 C 
BRANCH  26  27
ATOM     27  C   UNL     1     -45.465  24.663   1.871  0.00  0.00    -0.001 C 
ATOM     28  C   UNL     1     -45.302  25.516   2.956  0.00  0.00    +0.017 C 
ATOM     29  C   UNL     1     -46.473  23.707   1.862  0.00  0.00    -0.003 C 
ATOM     30  C   UNL     1     -46.161  25.411   4.049  0.00  0.00    +0.091 C 
ATOM     31  C   UNL     1     -47.332  23.602   2.956  0.00  0.00    +0.001 C 
ATOM     32  C   UNL     1     -47.176  24.454   4.049  0.00  0.00    +0.020 C 
BRANCH  30  34
ATOM     33  S   UNL     1     -45.219  28.836   4.465  0.00  0.00    +0.021 S 
ATOM     34  N   UNL     1     -46.005  26.264   5.146  0.00  0.00    -0.196 NA
ATOM     35  C   UNL     1     -45.671  27.355   4.845  0.00  0.00    +0.041 C 
ENDBRANCH  30  34
ENDBRANCH  26  27
ENDBRANCH  10  26
TORSDOF 7
ENDMDL
MODEL 5
REMARK VINA RESULT:      -6.9      5.675      7.669
REMARK  Name = 190893
REMARK  7 active torsions:
REMARK  status: ('A' for Active; 'I' for Inactive)
REMARK    1  A    between atoms: N_1  and  C_12
REMARK    2  A    between atoms: C_11  and  O_20
REMARK    3  A    between atoms: C_13  and  O_22
REMARK    4  A    between atoms: C_14  and  C_17
REMARK    5  A    between atoms: N_24  and  C_26
REMARK    6  A    between atoms: C_26  and  C_27
REMARK    7  A    between atoms: C_30  and  N_34
REMARK                            x       y       z     vdW  Elec       q    Type
REMARK                         _______ _______ _______ _____ _____    ______ ____
ROOT
ATOM      1  N   UNL     1     -34.896  25.426   4.303  0.00  0.00    -0.247 N 
ATOM      2  N   UNL     1     -34.069  26.280   6.191  0.00  0.00    -0.242 NA
ATOM      3  N   UNL     1     -33.689  26.769   2.678  0.00  0.00    -0.228 NA
ATOM      4  N   UNL     1     -32.195  28.359   3.773  0.00  0.00    -0.228 NA
ATOM      5  C   UNL     1     -34.008  26.396   3.926  0.00  0.00    +0.152 C 
ATOM      6  C   UNL     1     -34.896  25.397   5.674  0.00  0.00    +0.223 C 
ATOM      7  C   UNL     1     -33.506  26.911   5.110  0.00  0.00    +0.140 C 
ATOM      8  C   UNL     1     -32.566  27.930   5.004  0.00  0.00    +0.146 C 
ATOM      9  C   UNL     1     -32.771  27.761   2.703  0.00  0.00    +0.253 C 
ATOM     10  N   UNL     1     -32.003  28.510   6.154  0.00  0.00    -0.313 N 
ATOM     11  H   UNL     1     -32.290  28.179   7.035  0.00  0.00    +0.149 HD
ENDROOT
BRANCH   1  14
ATOM     12  O   UNL     1     -36.050  25.305   2.225  0.00  0.00    -0.326 OA
ATOM     13  C   UNL     1     -36.998  24.086   4.053  0.00  0.00    +0.187 C 
ATOM     14  C   UNL     1     -35.699  24.577   3.421  0.00  0.00    +0.225 C 
ATOM     15  C   UNL     1     -38.033  25.024   3.465  0.00  0.00    +0.178 C 
ATOM     16  C   UNL     1     -37.476  25.282   2.080  0.00  0.00    +0.222 C 
BRANCH  16  19
ATOM     17  O   UNL     1     -39.029  26.929   1.340  0.00  0.00    -0.272 OA
ATOM     18  N   UNL     1     -36.754  27.418   1.290  0.00  0.00    -0.301 N 
ATOM     19  C   UNL     1     -37.857  26.621   1.542  0.00  0.00    +0.252 C 
ATOM     20  C   UNL     1     -36.850  28.752   0.744  0.00  0.00    +0.111 C 
ATOM     21  H   UNL     1     -35.860  27.059   1.494  0.00  0.00    +0.150 HD
ENDBRANCH  16  19
BRANCH  13  22
ATOM     22  O   UNL     1     -37.221  22.750   3.604  0.00  0.00    -0.378 OA
ATOM     23  H   UNL     1     -36.454  22.449   3.092  0.00  0.00    +0.211 HD
ENDBRANCH  13  22
BRANCH  15  24
ATOM     24  O   UNL     1     -39.323  24.446   3.432  0.00  0.00    -0.379 OA
ATOM     25  H   UNL     1     -39.944  25.065   3.017  0.00  0.00    +0.211 HD
ENDBRANCH  15  24
ENDBRANCH   1  14
BRANCH  10  26
ATOM     26  C   UNL     1     -31.031  29.563   6.103  0.00  0.00    +0.115 C 
BRANCH  26  27
ATOM     27  C   UNL     1     -29.670  29.041   6.473  0.00  0.00    -0.001 C 
ATOM     28  C   UNL     1     -29.156  27.934   5.809  0.00  0.00    +0.017 C 
ATOM     29  C   UNL     1     -28.944  29.672   7.474  0.00  0.00    -0.003 C 
ATOM     30  C   UNL     1     -27.894  27.451   6.152  0.00  0.00    +0.091 C 
ATOM     31  C   UNL     1     -27.682  29.188   7.818  0.00  0.00    +0.001 C 
ATOM     32  C   UNL     1     -27.157  28.078   7.157  0.00  0.00    +0.020 C 
BRANCH  30  34
ATOM     33  S   UNL     1     -27.177  26.650   2.742  0.00  0.00    +0.021 S 
ATOM     34  N   UNL     1     -27.368  26.336   5.491  0.00  0.00    -0.196 NA
ATOM     35  C   UNL     1     -27.291  26.481   4.323  0.00  0.00    +0.041 C 
ENDBRANCH  30  34
ENDBRANCH  26  27
ENDBRANCH  10  26
TORSDOF 7
ENDMDL
MODEL 6
REMARK VINA RESULT:      -6.9      5.676      8.330
REMARK  Name = 190893
REMARK  7 active torsions:
REMARK  status: ('A' for Active; 'I' for Inactive)
REMARK    1  A    between atoms: N_1  and  C_12
REMARK    2  A    between atoms: C_11  and  O_20
REMARK    3  A    between atoms: C_13  and  O_22
REMARK    4  A    between atoms: C_14  and  C_17
REMARK    5  A    between atoms: N_24  and  C_26
REMARK    6  A    between atoms: C_26  and  C_27
REMARK    7  A    between atoms: C_30  and  N_34
REMARK                            x       y       z     vdW  Elec       q    Type
REMARK                         _______ _______ _______ _____ _____    ______ ____
ROOT
ATOM      1  N   UNL     1     -32.159  27.962   5.112  0.00  0.00    -0.247 N 
ATOM      2  N   UNL     1     -33.568  26.643   6.231  0.00  0.00    -0.242 NA
ATOM      3  N   UNL     1     -33.134  27.822   2.892  0.00  0.00    -0.228 NA
ATOM      4  N   UNL     1     -35.107  26.385   2.877  0.00  0.00    -0.228 NA
ATOM      5  C   UNL     1     -33.078  27.526   4.199  0.00  0.00    +0.152 C 
ATOM      6  C   UNL     1     -32.497  27.403   6.317  0.00  0.00    +0.223 C 
ATOM      7  C   UNL     1     -33.942  26.711   4.912  0.00  0.00    +0.140 C 
ATOM      8  C   UNL     1     -34.988  26.129   4.203  0.00  0.00    +0.146 C 
ATOM      9  C   UNL     1     -34.187  27.203   2.312  0.00  0.00    +0.253 C 
ATOM     10  N   UNL     1     -35.912  25.289   4.847  0.00  0.00    -0.313 N 
ATOM     11  H   UNL     1     -35.802  25.122   5.810  0.00  0.00    +0.149 HD
ENDROOT
BRANCH   1  14
ATOM     12  O   UNL     1     -29.858  28.082   4.516  0.00  0.00    -0.326 OA
ATOM     13  C   UNL     1     -30.655  29.730   6.057  0.00  0.00    +0.187 C 
ATOM     14  C   UNL     1     -31.025  28.856   4.863  0.00  0.00    +0.225 C 
ATOM     15  C   UNL     1     -29.463  29.004   6.648  0.00  0.00    +0.178 C 
ATOM     16  C   UNL     1     -28.796  28.433   5.413  0.00  0.00    +0.222 C 
BRANCH  16  19
ATOM     17  O   UNL     1     -27.840  26.338   4.806  0.00  0.00    -0.272 OA
ATOM     18  N   UNL     1     -27.679  27.057   7.014  0.00  0.00    -0.301 N 
ATOM     19  C   UNL     1     -28.053  27.168   5.687  0.00  0.00    +0.252 C 
ATOM     20  C   UNL     1     -26.968  25.915   7.543  0.00  0.00    +0.111 C 
ATOM     21  H   UNL     1     -27.907  27.791   7.629  0.00  0.00    +0.150 HD
ENDBRANCH  16  19
BRANCH  13  22
ATOM     22  O   UNL     1     -30.263  31.007   5.554  0.00  0.00    -0.378 OA
ATOM     23  H   UNL     1     -31.014  31.619   5.607  0.00  0.00    +0.211 HD
ENDBRANCH  13  22
BRANCH  15  24
ATOM     24  O   UNL     1     -28.613  29.870   7.372  0.00  0.00    -0.379 OA
ATOM     25  H   UNL     1     -28.952  29.974   8.275  0.00  0.00    +0.211 HD
ENDBRANCH  15  24
ENDBRANCH   1  14
BRANCH  10  26
ATOM     26  C   UNL     1     -37.007  24.665   4.165  0.00  0.00    +0.115 C 
BRANCH  26  27
ATOM     27  C   UNL     1     -36.611  23.301   3.671  0.00  0.00    -0.001 C 
ATOM     28  C   UNL     1     -37.250  22.762   2.561  0.00  0.00    +0.017 C 
ATOM     29  C   UNL     1     -35.612  22.597   4.329  0.00  0.00    -0.003 C 
ATOM     30  C   UNL     1     -36.883  21.497   2.103  0.00  0.00    +0.091 C 
ATOM     31  C   UNL     1     -35.245  21.331   3.871  0.00  0.00    +0.001 C 
ATOM     32  C   UNL     1     -35.880  20.782   2.758  0.00  0.00    +0.020 C 
BRANCH  30  34
ATOM     33  S   UNL     1     -35.775  20.016  -0.958  0.00  0.00    +0.021 S 
ATOM     34  N   UNL     1     -37.521  20.944   0.988  0.00  0.00    -0.196 NA
ATOM     35  C   UNL     1     -36.769  20.553   0.167  0.00  0.00    +0.041 C 
ENDBRANCH  30  34
ENDBRANCH  26  27
ENDBRANCH  10  26
TORSDOF 7
ENDMDL
MODEL 7
REMARK VINA RESULT:      -6.9      5.865     10.760
REMARK  Name = 190893
REMARK  7 active torsions:
REMARK  status: ('A' for Active; 'I' for Inactive)
REMARK    1  A    between atoms: N_1  and  C_12
REMARK    2  A    between atoms: C_11  and  O_20
REMARK    3  A    between atoms: C_13  and  O_22
REMARK    4  A    between atoms: C_14  and  C_17
REMARK    5  A    between atoms: N_24  and  C_26
REMARK    6  A    between atoms: C_26  and  C_27
REMARK    7  A    between atoms: C_30  and  N_34
REMARK                            x       y       z     vdW  Elec       q    Type
REMARK                         _______ _______ _______ _____ _____    ______ ____
ROOT
ATOM      1  N   UNL     1     -38.734  24.755   1.836  0.00  0.00    -0.247 N 
ATOM      2  N   UNL     1     -40.438  23.320   1.713  0.00  0.00    -0.242 NA
ATOM      3  N   UNL     1     -39.882  26.814   1.252  0.00  0.00    -0.228 NA
ATOM      4  N   UNL     1     -42.251  26.417   0.818  0.00  0.00    -0.228 NA
ATOM      5  C   UNL     1     -39.828  25.494   1.482  0.00  0.00    +0.152 C 
ATOM      6  C   UNL     1     -39.153  23.456   1.962  0.00  0.00    +0.223 C 
ATOM      7  C   UNL     1     -40.873  24.587   1.412  0.00  0.00    +0.140 C 
ATOM      8  C   UNL     1     -42.122  25.091   1.064  0.00  0.00    +0.146 C 
ATOM      9  C   UNL     1     -41.140  27.185   0.925  0.00  0.00    +0.253 C 
ATOM     10  N   UNL     1     -43.239  24.243   0.971  0.00  0.00    -0.313 N 
ATOM     11  H   UNL     1     -43.116  23.284   1.156  0.00  0.00    +0.149 HD
ENDROOT
BRANCH   1  14
ATOM     12  O   UNL     1     -36.479  24.136   2.284  0.00  0.00    -0.326 OA
ATOM     13  C   UNL     1     -37.232  26.205   3.222  0.00  0.00    +0.187 C 
ATOM     14  C   UNL     1     -37.370  25.246   2.043  0.00  0.00    +0.225 C 
ATOM     15  C   UNL     1     -36.671  25.316   4.314  0.00  0.00    +0.178 C 
ATOM     16  C   UNL     1     -35.800  24.359   3.526  0.00  0.00    +0.222 C 
BRANCH  16  19
ATOM     17  O   UNL     1     -35.590  21.986   3.515  0.00  0.00    -0.272 OA
ATOM     18  N   UNL     1     -35.700  23.101   5.555  0.00  0.00    -0.301 N 
ATOM     19  C   UNL     1     -35.677  23.019   4.174  0.00  0.00    +0.252 C 
ATOM     20  C   UNL     1     -35.620  21.944   6.417  0.00  0.00    +0.111 C 
ATOM     21  H   UNL     1     -35.774  23.990   5.971  0.00  0.00    +0.150 HD
ENDBRANCH  16  19
BRANCH  13  22
ATOM     22  O   UNL     1     -36.283  27.207   2.857  0.00  0.00    -0.378 OA
ATOM     23  H   UNL     1     -36.649  28.084   3.053  0.00  0.00    +0.211 HD
ENDBRANCH  13  22
BRANCH  15  24
ATOM     24  O   UNL     1     -35.939  26.047   5.277  0.00  0.00    -0.379 OA
ATOM     25  H   UNL     1     -36.532  26.317   5.996  0.00  0.00    +0.211 HD
ENDBRANCH  15  24
ENDBRANCH   1  14
BRANCH  10  26
ATOM     26  C   UNL     1     -44.547  24.709   0.617  0.00  0.00    +0.115 C 
BRANCH  26  27
ATOM     27  C   UNL     1     -45.482  24.593   1.789  0.00  0.00    -0.001 C 
ATOM     28  C   UNL     1     -46.464  23.610   1.788  0.00  0.00    +0.017 C 
ATOM     29  C   UNL     1     -45.354  25.470   2.858  0.00  0.00    -0.003 C 
ATOM     30  C   UNL     1     -47.332  23.503   2.874  0.00  0.00    +0.091 C 
ATOM     31  C   UNL     1     -46.222  25.363   3.945  0.00  0.00    +0.001 C 
ATOM     32  C   UNL     1     -47.211  24.380   3.952  0.00  0.00    +0.020 C 
BRANCH  30  34
ATOM     33  S   UNL     1     -47.422  20.009   2.119  0.00  0.00    +0.021 S 
ATOM     34  N   UNL     1     -48.325  22.519   2.882  0.00  0.00    -0.196 NA
ATOM     35  C   UNL     1     -47.930  21.455   2.556  0.00  0.00    +0.041 C 
ENDBRANCH  30  34
ENDBRANCH  26  27
ENDBRANCH  10  26
TORSDOF 7
ENDMDL
MODEL 8
REMARK VINA RESULT:      -6.8      3.681      5.374
REMARK  Name = 190893
REMARK  7 active torsions:
REMARK  status: ('A' for Active; 'I' for Inactive)
REMARK    1  A    between atoms: N_1  and  C_12
REMARK    2  A    between atoms: C_11  and  O_20
REMARK    3  A    between atoms: C_13  and  O_22
REMARK    4  A    between atoms: C_14  and  C_17
REMARK    5  A    between atoms: N_24  and  C_26
REMARK    6  A    between atoms: C_26  and  C_27
REMARK    7  A    between atoms: C_30  and  N_34
REMARK                            x       y       z     vdW  Elec       q    Type
REMARK                         _______ _______ _______ _____ _____    ______ ____
ROOT
ATOM      1  N   UNL     1     -35.900  23.279   2.635  0.00  0.00    -0.247 N 
ATOM      2  N   UNL     1     -35.593  21.159   3.260  0.00  0.00    -0.242 NA
ATOM      3  N   UNL     1     -34.904  23.206   0.420  0.00  0.00    -0.228 NA
ATOM      4  N   UNL     1     -34.063  20.975  -0.102  0.00  0.00    -0.228 NA
ATOM      5  C   UNL     1     -35.270  22.662   1.590  0.00  0.00    +0.152 C 
ATOM      6  C   UNL     1     -36.070  22.334   3.613  0.00  0.00    +0.223 C 
ATOM      7  C   UNL     1     -35.090  21.349   1.997  0.00  0.00    +0.140 C 
ATOM      8  C   UNL     1     -34.460  20.493   1.100  0.00  0.00    +0.146 C 
ATOM      9  C   UNL     1     -34.306  22.282  -0.364  0.00  0.00    +0.253 C 
ATOM     10  N   UNL     1     -34.237  19.145   1.430  0.00  0.00    -0.313 N 
ATOM     11  H   UNL     1     -34.536  18.822   2.310  0.00  0.00    +0.149 HD
ENDROOT
BRANCH   1  14
ATOM     12  O   UNL     1     -35.162  25.542   2.622  0.00  0.00    -0.326 OA
ATOM     13  C   UNL     1     -37.058  25.039   3.991  0.00  0.00    +0.187 C 
ATOM     14  C   UNL     1     -36.317  24.681   2.707  0.00  0.00    +0.225 C 
ATOM     15  C   UNL     1     -35.984  25.711   4.823  0.00  0.00    +0.178 C 
ATOM     16  C   UNL     1     -35.154  26.407   3.764  0.00  0.00    +0.222 C 
BRANCH  16  19
ATOM     17  O   UNL     1     -32.865  25.749   3.810  0.00  0.00    -0.272 OA
ATOM     18  N   UNL     1     -33.511  27.672   4.950  0.00  0.00    -0.301 N 
ATOM     19  C   UNL     1     -33.722  26.558   4.157  0.00  0.00    +0.252 C 
ATOM     20  C   UNL     1     -32.216  28.031   5.482  0.00  0.00    +0.111 C 
ATOM     21  H   UNL     1     -34.280  28.250   5.162  0.00  0.00    +0.150 HD
ENDBRANCH  16  19
BRANCH  13  22
ATOM     22  O   UNL     1     -38.086  25.971   3.654  0.00  0.00    -0.378 OA
ATOM     23  H   UNL     1     -38.650  25.593   2.961  0.00  0.00    +0.211 HD
ENDBRANCH  13  22
BRANCH  15  24
ATOM     24  O   UNL     1     -36.524  26.611   5.769  0.00  0.00    -0.379 OA
ATOM     25  H   UNL     1     -36.532  27.506   5.394  0.00  0.00    +0.211 HD
ENDBRANCH  15  24
ENDBRANCH   1  14
BRANCH  10  26
ATOM     26  C   UNL     1     -33.593  18.220   0.545  0.00  0.00    +0.115 C 
BRANCH  26  27
ATOM     27  C   UNL     1     -34.587  17.230   0.003  0.00  0.00    -0.001 C 
ATOM     28  C   UNL     1     -35.894  17.635  -0.242  0.00  0.00    +0.017 C 
ATOM     29  C   UNL     1     -34.188  15.924  -0.246  0.00  0.00    -0.003 C 
ATOM     30  C   UNL     1     -36.815  16.717  -0.744  0.00  0.00    +0.091 C 
ATOM     31  C   UNL     1     -35.110  15.005  -0.747  0.00  0.00    +0.001 C 
ATOM     32  C   UNL     1     -36.424  15.402  -0.997  0.00  0.00    +0.020 C 
BRANCH  30  34
ATOM     33  S   UNL     1     -39.985  15.061  -0.759  0.00  0.00    +0.021 S 
ATOM     34  N   UNL     1     -38.133  17.114  -0.993  0.00  0.00    -0.196 NA
ATOM     35  C   UNL     1     -38.912  16.233  -0.890  0.00  0.00    +0.041 C 
ENDBRANCH  30  34
ENDBRANCH  26  27
ENDBRANCH  10  26
TORSDOF 7
ENDMDL
MODEL 9
REMARK VINA RESULT:      -6.8      1.743      2.621
REMARK  Name = 190893
REMARK  7 active torsions:
REMARK  status: ('A' for Active; 'I' for Inactive)
REMARK    1  A    between atoms: N_1  and  C_12
REMARK    2  A    between atoms: C_11  and  O_20
REMARK    3  A    between atoms: C_13  and  O_22
REMARK    4  A    between atoms: C_14  and  C_17
REMARK    5  A    between atoms: N_24  and  C_26
REMARK    6  A    between atoms: C_26  and  C_27
REMARK    7  A    between atoms: C_30  and  N_34
REMARK                            x       y       z     vdW  Elec       q    Type
REMARK                         _______ _______ _______ _____ _____    ______ ____
ROOT
ATOM      1  N   UNL     1     -38.195  23.079   2.178  0.00  0.00    -0.247 N 
ATOM      2  N   UNL     1     -37.340  21.666   0.679  0.00  0.00    -0.242 NA
ATOM      3  N   UNL     1     -36.707  22.650   4.049  0.00  0.00    -0.228 NA
ATOM      4  N   UNL     1     -35.036  20.963   3.485  0.00  0.00    -0.228 NA
ATOM      5  C   UNL     1     -37.146  22.459   2.796  0.00  0.00    +0.152 C 
ATOM      6  C   UNL     1     -38.271  22.568   0.908  0.00  0.00    +0.223 C 
ATOM      7  C   UNL     1     -36.629  21.588   1.850  0.00  0.00    +0.140 C 
ATOM      8  C   UNL     1     -35.533  20.821   2.232  0.00  0.00    +0.146 C 
ATOM      9  C   UNL     1     -35.644  21.854   4.303  0.00  0.00    +0.253 C 
ATOM     10  N   UNL     1     -34.944  19.913   1.336  0.00  0.00    -0.313 N 
ATOM     11  H   UNL     1     -35.326  19.831   0.433  0.00  0.00    +0.149 HD
ENDROOT
BRANCH   1  14
ATOM     12  O   UNL     1     -40.439  23.860   2.333  0.00  0.00    -0.326 OA
ATOM     13  C   UNL     1     -38.719  25.524   2.349  0.00  0.00    +0.187 C 
ATOM     14  C   UNL     1     -39.078  24.097   2.752  0.00  0.00    +0.225 C 
ATOM     15  C   UNL     1     -39.718  25.824   1.249  0.00  0.00    +0.178 C 
ATOM     16  C   UNL     1     -40.937  25.051   1.710  0.00  0.00    +0.222 C 
BRANCH  16  19
ATOM     17  O   UNL     1     -41.920  23.405   0.296  0.00  0.00    -0.272 OA
ATOM     18  N   UNL     1     -42.385  25.652  -0.093  0.00  0.00    -0.301 N 
ATOM     19  C   UNL     1     -41.796  24.594   0.578  0.00  0.00    +0.252 C 
ATOM     20  C   UNL     1     -43.246  25.479  -1.241  0.00  0.00    +0.111 C 
ATOM     21  H   UNL     1     -42.211  26.566   0.228  0.00  0.00    +0.150 HD
ENDBRANCH  16  19
BRANCH  13  22
ATOM     22  O   UNL     1     -38.952  26.366   3.478  0.00  0.00    -0.378 OA
ATOM     23  H   UNL     1     -39.722  26.040   3.971  0.00  0.00    +0.211 HD
ENDBRANCH  13  22
BRANCH  15  24
ATOM     24  O   UNL     1     -39.971  27.208   1.117  0.00  0.00    -0.379 OA
ATOM     25  H   UNL     1     -40.776  27.340   0.593  0.00  0.00    +0.211 HD
ENDBRANCH  15  24
ENDBRANCH   1  14
BRANCH  10  26
ATOM     26  C   UNL     1     -33.816  19.099   1.677  0.00  0.00    +0.115 C 
BRANCH  26  27
ATOM     27  C   UNL     1     -32.632  19.454   0.820  0.00  0.00    -0.001 C 
ATOM     28  C   UNL     1     -31.603  18.534   0.657  0.00  0.00    +0.017 C 
ATOM     29  C   UNL     1     -32.581  20.696   0.201  0.00  0.00    -0.003 C 
ATOM     30  C   UNL     1     -30.506  18.863  -0.137  0.00  0.00    +0.091 C 
ATOM     31  C   UNL     1     -31.483  21.025  -0.593  0.00  0.00    +0.001 C 
ATOM     32  C   UNL     1     -30.445  20.109  -0.762  0.00  0.00    +0.020 C 
BRANCH  30  34
ATOM     33  S   UNL     1     -27.870  17.633   1.943  0.00  0.00    +0.021 S 
ATOM     34  N   UNL     1     -29.464  17.945  -0.306  0.00  0.00    -0.196 NA
ATOM     35  C   UNL     1     -28.792  17.820   0.656  0.00  0.00    +0.041 C 
ENDBRANCH  30  34
ENDBRANCH  26  27
ENDBRANCH  10  26
TORSDOF 7
ENDMDL
