MODEL 1
REMARK VINA RESULT:      -5.9      0.000      0.000
REMARK  Name = 196353
REMARK  3 active torsions:
REMARK  status: ('A' for Active; 'I' for Inactive)
REMARK    1  A    between atoms: C_9  and  C_18
REMARK    2  A    between atoms: C_18  and  C_19
REMARK    3  A    between atoms: C_19  and  O_20
REMARK                            x       y       z     vdW  Elec       q    Type
REMARK                         _______ _______ _______ _____ _____    ______ ____
ROOT
ATOM      1  S   UNL     1     -36.294  25.308   4.940  0.00  0.00    -0.077 S 
ATOM      2  O   UNL     1     -38.210  22.995   0.972  0.00  0.00    -0.269 OA
ATOM      3  N   UNL     1     -37.340  24.173   2.808  0.00  0.00    -0.234 N 
ATOM      4  N   UNL     1     -38.592  26.021   3.662  0.00  0.00    -0.284 N 
ATOM      5  N   UNL     1     -40.487  26.838   2.491  0.00  0.00    -0.340 NA
ATOM      6  N   UNL     1     -41.168  25.848   0.400  0.00  0.00    -0.186 NA
ATOM      7  C   UNL     1     -37.270  25.500   3.428  0.00  0.00    +0.210 C 
ATOM      8  C   UNL     1     -36.438  23.258   3.353  0.00  0.00    +0.036 C 
ATOM      9  C   UNL     1     -35.799  23.698   4.457  0.00  0.00    +0.018 C 
ATOM     10  C   UNL     1     -38.207  23.955   1.734  0.00  0.00    +0.260 C 
ATOM     11  C   UNL     1     -39.267  24.988   1.589  0.00  0.00    +0.118 C 
ATOM     12  C   UNL     1     -39.462  25.959   2.572  0.00  0.00    +0.199 C 
ATOM     13  C   UNL     1     -36.278  21.905   2.732  0.00  0.00    +0.048 C 
ATOM     14  C   UNL     1     -40.151  24.976   0.524  0.00  0.00    +0.119 C 
ATOM     15  C   UNL     1     -41.280  26.735   1.405  0.00  0.00    +0.066 C 
ATOM     16  C   UNL     1     -42.404  27.710   1.309  0.00  0.00    +0.129 C 
ATOM     17  H   UNL     1     -38.863  26.396   4.532  0.00  0.00    +0.151 HD
ENDROOT
BRANCH   9  18
ATOM     18  C   UNL     1     -34.785  22.994   5.299  0.00  0.00    +0.065 C 
BRANCH  18  19
ATOM     19  C   UNL     1     -35.427  22.103   6.353  0.00  0.00    +0.142 C 
BRANCH  19  20
ATOM     20  O   UNL     1     -35.394  20.748   5.921  0.00  0.00    -0.382 OA
ATOM     21  H   UNL     1     -36.080  20.606   5.250  0.00  0.00    +0.210 HD
ENDBRANCH  19  20
ENDBRANCH  18  19
ENDBRANCH   9  18
TORSDOF 3
ENDMDL
MODEL 2
REMARK VINA RESULT:      -5.5      3.932      6.104
REMARK  Name = 196353
REMARK  3 active torsions:
REMARK  status: ('A' for Active; 'I' for Inactive)
REMARK    1  A    between atoms: C_9  and  C_18
REMARK    2  A    between atoms: C_18  and  C_19
REMARK    3  A    between atoms: C_19  and  O_20
REMARK                            x       y       z     vdW  Elec       q    Type
REMARK                         _______ _______ _______ _____ _____    ______ ____
ROOT
ATOM      1  S   UNL     1     -35.543  22.846   4.432  0.00  0.00    -0.077 S 
ATOM      2  O   UNL     1     -35.097  26.993   1.717  0.00  0.00    -0.269 OA
ATOM      3  N   UNL     1     -35.217  25.056   3.038  0.00  0.00    -0.234 N 
ATOM      4  N   UNL     1     -34.307  25.133   5.247  0.00  0.00    -0.284 N 
ATOM      5  N   UNL     1     -33.034  27.004   5.961  0.00  0.00    -0.340 NA
ATOM      6  N   UNL     1     -32.602  28.847   4.466  0.00  0.00    -0.186 NA
ATOM      7  C   UNL     1     -34.526  24.303   4.090  0.00  0.00    +0.210 C 
ATOM      8  C   UNL     1     -36.237  24.332   2.418  0.00  0.00    +0.036 C 
ATOM      9  C   UNL     1     -36.519  23.151   3.008  0.00  0.00    +0.018 C 
ATOM     10  C   UNL     1     -34.786  26.342   2.709  0.00  0.00    +0.260 C 
ATOM     11  C   UNL     1     -33.920  26.976   3.738  0.00  0.00    +0.118 C 
ATOM     12  C   UNL     1     -33.741  26.383   4.989  0.00  0.00    +0.199 C 
ATOM     13  C   UNL     1     -36.939  24.901   1.224  0.00  0.00    +0.048 C 
ATOM     14  C   UNL     1     -33.330  28.211   3.530  0.00  0.00    +0.119 C 
ATOM     15  C   UNL     1     -32.500  28.201   5.641  0.00  0.00    +0.066 C 
ATOM     16  C   UNL     1     -31.712  28.881   6.708  0.00  0.00    +0.129 C 
ATOM     17  H   UNL     1     -34.540  24.838   6.157  0.00  0.00    +0.151 HD
ENDROOT
BRANCH   9  18
ATOM     18  C   UNL     1     -37.543  22.132   2.628  0.00  0.00    +0.065 C 
BRANCH  18  19
ATOM     19  C   UNL     1     -36.948  20.990   1.815  0.00  0.00    +0.142 C 
BRANCH  19  20
ATOM     20  O   UNL     1     -36.736  19.863   2.656  0.00  0.00    -0.382 OA
ATOM     21  H   UNL     1     -37.362  19.889   3.396  0.00  0.00    +0.210 HD
ENDBRANCH  19  20
ENDBRANCH  18  19
ENDBRANCH   9  18
TORSDOF 3
ENDMDL
MODEL 3
REMARK VINA RESULT:      -5.4      2.580      6.022
REMARK  Name = 196353
REMARK  3 active torsions:
REMARK  status: ('A' for Active; 'I' for Inactive)
REMARK    1  A    between atoms: C_9  and  C_18
REMARK    2  A    between atoms: C_18  and  C_19
REMARK    3  A    between atoms: C_19  and  O_20
REMARK                            x       y       z     vdW  Elec       q    Type
REMARK                         _______ _______ _______ _____ _____    ______ ____
ROOT
ATOM      1  S   UNL     1     -40.451  25.789   2.570  0.00  0.00    -0.077 S 
ATOM      2  O   UNL     1     -37.099  22.110   2.633  0.00  0.00    -0.269 OA
ATOM      3  N   UNL     1     -38.648  23.875   2.694  0.00  0.00    -0.234 N 
ATOM      4  N   UNL     1     -37.975  25.937   3.697  0.00  0.00    -0.284 N 
ATOM      5  N   UNL     1     -35.925  26.089   4.882  0.00  0.00    -0.340 NA
ATOM      6  N   UNL     1     -34.496  24.162   5.130  0.00  0.00    -0.186 NA
ATOM      7  C   UNL     1     -39.078  25.037   3.478  0.00  0.00    +0.210 C 
ATOM      8  C   UNL     1     -39.554  23.514   1.695  0.00  0.00    +0.036 C 
ATOM      9  C   UNL     1     -40.561  24.394   1.514  0.00  0.00    +0.018 C 
ATOM     10  C   UNL     1     -37.465  23.212   3.029  0.00  0.00    +0.260 C 
ATOM     11  C   UNL     1     -36.552  23.999   3.900  0.00  0.00    +0.118 C 
ATOM     12  C   UNL     1     -36.803  25.345   4.172  0.00  0.00    +0.199 C 
ATOM     13  C   UNL     1     -39.337  22.261   0.905  0.00  0.00    +0.048 C 
ATOM     14  C   UNL     1     -35.382  23.457   4.402  0.00  0.00    +0.119 C 
ATOM     15  C   UNL     1     -34.822  25.452   5.325  0.00  0.00    +0.066 C 
ATOM     16  C   UNL     1     -33.858  26.269   6.117  0.00  0.00    +0.129 C 
ATOM     17  H   UNL     1     -38.044  26.904   3.524  0.00  0.00    +0.151 HD
ENDROOT
BRANCH   9  18
ATOM     18  C   UNL     1     -41.692  24.340   0.540  0.00  0.00    +0.065 C 
BRANCH  18  19
ATOM     19  C   UNL     1     -42.898  25.142   1.008  0.00  0.00    +0.142 C 
BRANCH  19  20
ATOM     20  O   UNL     1     -44.058  24.319   0.988  0.00  0.00    -0.382 OA
ATOM     21  H   UNL     1     -44.565  24.454   1.804  0.00  0.00    +0.210 HD
ENDBRANCH  19  20
ENDBRANCH  18  19
ENDBRANCH   9  18
TORSDOF 3
ENDMDL
MODEL 4
REMARK VINA RESULT:      -5.4      4.536      6.690
REMARK  Name = 196353
REMARK  3 active torsions:
REMARK  status: ('A' for Active; 'I' for Inactive)
REMARK    1  A    between atoms: C_9  and  C_18
REMARK    2  A    between atoms: C_18  and  C_19
REMARK    3  A    between atoms: C_19  and  O_20
REMARK                            x       y       z     vdW  Elec       q    Type
REMARK                         _______ _______ _______ _____ _____    ______ ____
ROOT
ATOM      1  S   UNL     1     -34.168  18.329   0.438  0.00  0.00    -0.077 S 
ATOM      2  O   UNL     1     -38.516  20.740   0.658  0.00  0.00    -0.269 OA
ATOM      3  N   UNL     1     -36.419  19.685   0.589  0.00  0.00    -0.234 N 
ATOM      4  N   UNL     1     -34.839  20.193   2.308  0.00  0.00    -0.284 N 
ATOM      5  N   UNL     1     -35.257  21.949   3.849  0.00  0.00    -0.340 NA
ATOM      6  N   UNL     1     -37.262  23.279   3.691  0.00  0.00    -0.186 NA
ATOM      7  C   UNL     1     -35.001  19.863   0.916  0.00  0.00    +0.210 C 
ATOM      8  C   UNL     1     -36.665  18.580  -0.228  0.00  0.00    +0.036 C 
ATOM      9  C   UNL     1     -35.594  17.781  -0.420  0.00  0.00    +0.018 C 
ATOM     10  C   UNL     1     -37.356  20.618   1.037  0.00  0.00    +0.260 C 
ATOM     11  C   UNL     1     -36.870  21.485   2.144  0.00  0.00    +0.118 C 
ATOM     12  C   UNL     1     -35.655  21.224   2.779  0.00  0.00    +0.199 C 
ATOM     13  C   UNL     1     -38.039  18.346  -0.776  0.00  0.00    +0.048 C 
ATOM     14  C   UNL     1     -37.637  22.524   2.642  0.00  0.00    +0.119 C 
ATOM     15  C   UNL     1     -36.083  22.940   4.241  0.00  0.00    +0.066 C 
ATOM     16  C   UNL     1     -35.640  23.747   5.415  0.00  0.00    +0.129 C 
ATOM     17  H   UNL     1     -34.196  19.724   2.889  0.00  0.00    +0.151 HD
ENDROOT
BRANCH   9  18
ATOM     18  C   UNL     1     -35.493  16.523  -1.218  0.00  0.00    +0.065 C 
BRANCH  18  19
ATOM     19  C   UNL     1     -35.299  15.294  -0.340  0.00  0.00    +0.142 C 
BRANCH  19  20
ATOM     20  O   UNL     1     -36.217  15.333   0.747  0.00  0.00    -0.382 OA
ATOM     21  H   UNL     1     -37.018  15.808   0.477  0.00  0.00    +0.210 HD
ENDBRANCH  19  20
ENDBRANCH  18  19
ENDBRANCH   9  18
TORSDOF 3
ENDMDL
MODEL 5
REMARK VINA RESULT:      -5.4      3.508      5.599
REMARK  Name = 196353
REMARK  3 active torsions:
REMARK  status: ('A' for Active; 'I' for Inactive)
REMARK    1  A    between atoms: C_9  and  C_18
REMARK    2  A    between atoms: C_18  and  C_19
REMARK    3  A    between atoms: C_19  and  O_20
REMARK                            x       y       z     vdW  Elec       q    Type
REMARK                         _______ _______ _______ _____ _____    ______ ____
ROOT
ATOM      1  S   UNL     1     -38.078  24.936   2.259  0.00  0.00    -0.077 S 
ATOM      2  O   UNL     1     -33.743  24.499   4.664  0.00  0.00    -0.269 OA
ATOM      3  N   UNL     1     -35.794  24.800   3.562  0.00  0.00    -0.234 N 
ATOM      4  N   UNL     1     -36.246  26.928   2.572  0.00  0.00    -0.284 N 
ATOM      5  N   UNL     1     -34.808  28.773   2.971  0.00  0.00    -0.340 NA
ATOM      6  N   UNL     1     -32.885  28.551   4.410  0.00  0.00    -0.186 NA
ATOM      7  C   UNL     1     -36.825  25.794   3.244  0.00  0.00    +0.210 C 
ATOM      8  C   UNL     1     -36.190  23.488   3.299  0.00  0.00    +0.036 C 
ATOM      9  C   UNL     1     -37.364  23.382   2.642  0.00  0.00    +0.018 C 
ATOM     10  C   UNL     1     -34.588  25.211   4.133  0.00  0.00    +0.260 C 
ATOM     11  C   UNL     1     -34.312  26.666   3.990  0.00  0.00    +0.118 C 
ATOM     12  C   UNL     1     -35.114  27.473   3.181  0.00  0.00    +0.199 C 
ATOM     13  C   UNL     1     -35.312  22.346   3.708  0.00  0.00    +0.048 C 
ATOM     14  C   UNL     1     -33.207  27.256   4.580  0.00  0.00    +0.119 C 
ATOM     15  C   UNL     1     -33.711  29.240   3.603  0.00  0.00    +0.066 C 
ATOM     16  C   UNL     1     -33.379  30.676   3.380  0.00  0.00    +0.129 C 
ATOM     17  H   UNL     1     -36.624  27.295   1.739  0.00  0.00    +0.151 HD
ENDROOT
BRANCH   9  18
ATOM     18  C   UNL     1     -38.081  22.151   2.193  0.00  0.00    +0.065 C 
BRANCH  18  19
ATOM     19  C   UNL     1     -39.591  22.344   2.150  0.00  0.00    +0.142 C 
BRANCH  19  20
ATOM     20  O   UNL     1     -40.237  21.077   2.181  0.00  0.00    -0.382 OA
ATOM     21  H   UNL     1     -41.142  21.167   1.844  0.00  0.00    +0.210 HD
ENDBRANCH  19  20
ENDBRANCH  18  19
ENDBRANCH   9  18
TORSDOF 3
ENDMDL
MODEL 6
REMARK VINA RESULT:      -5.3      3.760      5.191
REMARK  Name = 196353
REMARK  3 active torsions:
REMARK  status: ('A' for Active; 'I' for Inactive)
REMARK    1  A    between atoms: C_9  and  C_18
REMARK    2  A    between atoms: C_18  and  C_19
REMARK    3  A    between atoms: C_19  and  O_20
REMARK                            x       y       z     vdW  Elec       q    Type
REMARK                         _______ _______ _______ _____ _____    ______ ____
ROOT
ATOM      1  S   UNL     1     -36.092  25.427   3.029  0.00  0.00    -0.077 S 
ATOM      2  O   UNL     1     -35.188  20.624   3.972  0.00  0.00    -0.269 OA
ATOM      3  N   UNL     1     -35.605  22.871   3.429  0.00  0.00    -0.234 N 
ATOM      4  N   UNL     1     -36.861  23.343   1.451  0.00  0.00    -0.284 N 
ATOM      5  N   UNL     1     -37.389  21.612  -0.083  0.00  0.00    -0.340 NA
ATOM      6  N   UNL     1     -36.641  19.352   0.299  0.00  0.00    -0.186 NA
ATOM      7  C   UNL     1     -35.794  23.795   2.306  0.00  0.00    +0.210 C 
ATOM      8  C   UNL     1     -35.412  23.516   4.651  0.00  0.00    +0.036 C 
ATOM      9  C   UNL     1     -35.611  24.851   4.613  0.00  0.00    +0.018 C 
ATOM     10  C   UNL     1     -35.567  21.494   3.195  0.00  0.00    +0.260 C 
ATOM     11  C   UNL     1     -36.125  21.085   1.879  0.00  0.00    +0.118 C 
ATOM     12  C   UNL     1     -36.796  22.002   1.067  0.00  0.00    +0.199 C 
ATOM     13  C   UNL     1     -35.056  22.721   5.869  0.00  0.00    +0.048 C 
ATOM     14  C   UNL     1     -36.080  19.771   1.448  0.00  0.00    +0.119 C 
ATOM     15  C   UNL     1     -37.273  20.307  -0.404  0.00  0.00    +0.066 C 
ATOM     16  C   UNL     1     -37.919  19.878  -1.678  0.00  0.00    +0.129 C 
ATOM     17  H   UNL     1     -37.588  23.940   1.158  0.00  0.00    +0.151 HD
ENDROOT
BRANCH   9  18
ATOM     18  C   UNL     1     -35.504  25.849   5.719  0.00  0.00    +0.065 C 
BRANCH  18  19
ATOM     19  C   UNL     1     -34.063  26.250   6.000  0.00  0.00    +0.142 C 
BRANCH  19  20
ATOM     20  O   UNL     1     -33.684  27.312   5.133  0.00  0.00    -0.382 OA
ATOM     21  H   UNL     1     -32.717  27.346   5.066  0.00  0.00    +0.210 HD
ENDBRANCH  19  20
ENDBRANCH  18  19
ENDBRANCH   9  18
TORSDOF 3
ENDMDL
MODEL 7
REMARK VINA RESULT:      -5.2      3.667      4.492
REMARK  Name = 196353
REMARK  3 active torsions:
REMARK  status: ('A' for Active; 'I' for Inactive)
REMARK    1  A    between atoms: C_9  and  C_18
REMARK    2  A    between atoms: C_18  and  C_19
REMARK    3  A    between atoms: C_19  and  O_20
REMARK                            x       y       z     vdW  Elec       q    Type
REMARK                         _______ _______ _______ _____ _____    ______ ____
ROOT
ATOM      1  S   UNL     1     -34.134  25.343   5.243  0.00  0.00    -0.077 S 
ATOM      2  O   UNL     1     -37.389  26.382   1.624  0.00  0.00    -0.269 OA
ATOM      3  N   UNL     1     -35.789  25.957   3.290  0.00  0.00    -0.234 N 
ATOM      4  N   UNL     1     -34.455  27.780   4.070  0.00  0.00    -0.284 N 
ATOM      5  N   UNL     1     -34.521  29.880   2.966  0.00  0.00    -0.340 NA
ATOM      6  N   UNL     1     -35.903  30.209   1.018  0.00  0.00    -0.186 NA
ATOM      7  C   UNL     1     -34.474  26.367   3.791  0.00  0.00    +0.210 C 
ATOM      8  C   UNL     1     -36.246  24.761   3.847  0.00  0.00    +0.036 C 
ATOM      9  C   UNL     1     -35.490  24.297   4.864  0.00  0.00    +0.018 C 
ATOM     10  C   UNL     1     -36.422  26.713   2.301  0.00  0.00    +0.260 C 
ATOM     11  C   UNL     1     -35.874  28.087   2.142  0.00  0.00    +0.118 C 
ATOM     12  C   UNL     1     -34.946  28.599   3.051  0.00  0.00    +0.199 C 
ATOM     13  C   UNL     1     -37.501  24.128   3.333  0.00  0.00    +0.048 C 
ATOM     14  C   UNL     1     -36.321  28.936   1.145  0.00  0.00    +0.119 C 
ATOM     15  C   UNL     1     -35.021  30.611   1.949  0.00  0.00    +0.066 C 
ATOM     16  C   UNL     1     -34.544  32.021   1.849  0.00  0.00    +0.129 C 
ATOM     17  H   UNL     1     -34.119  28.143   4.921  0.00  0.00    +0.151 HD
ENDROOT
BRANCH   9  18
ATOM     18  C   UNL     1     -35.679  23.068   5.690  0.00  0.00    +0.065 C 
BRANCH  18  19
ATOM     19  C   UNL     1     -35.245  21.805   4.958  0.00  0.00    +0.142 C 
BRANCH  19  20
ATOM     20  O   UNL     1     -35.319  20.691   5.840  0.00  0.00    -0.382 OA
ATOM     21  H   UNL     1     -34.423  20.418   6.092  0.00  0.00    +0.210 HD
ENDBRANCH  19  20
ENDBRANCH  18  19
ENDBRANCH   9  18
TORSDOF 3
ENDMDL
MODEL 8
REMARK VINA RESULT:      -5.2      3.670      6.117
REMARK  Name = 196353
REMARK  3 active torsions:
REMARK  status: ('A' for Active; 'I' for Inactive)
REMARK    1  A    between atoms: C_9  and  C_18
REMARK    2  A    between atoms: C_18  and  C_19
REMARK    3  A    between atoms: C_19  and  O_20
REMARK                            x       y       z     vdW  Elec       q    Type
REMARK                         _______ _______ _______ _____ _____    ______ ____
ROOT
ATOM      1  S   UNL     1     -39.549  21.598   0.581  0.00  0.00    -0.077 S 
ATOM      2  O   UNL     1     -35.226  20.328   2.695  0.00  0.00    -0.269 OA
ATOM      3  N   UNL     1     -37.290  20.976   1.782  0.00  0.00    -0.234 N 
ATOM      4  N   UNL     1     -38.136  23.144   2.323  0.00  0.00    -0.284 N 
ATOM      5  N   UNL     1     -37.083  24.469   3.986  0.00  0.00    -0.340 NA
ATOM      6  N   UNL     1     -35.162  23.643   5.189  0.00  0.00    -0.186 NA
ATOM      7  C   UNL     1     -38.491  21.778   2.038  0.00  0.00    +0.210 C 
ATOM      8  C   UNL     1     -37.424  20.109   0.696  0.00  0.00    +0.036 C 
ATOM      9  C   UNL     1     -38.552  20.289  -0.024  0.00  0.00    +0.018 C 
ATOM     10  C   UNL     1     -36.189  21.084   2.634  0.00  0.00    +0.260 C 
ATOM     11  C   UNL     1     -36.197  22.303   3.486  0.00  0.00    +0.118 C 
ATOM     12  C   UNL     1     -37.134  23.317   3.279  0.00  0.00    +0.199 C 
ATOM     13  C   UNL     1     -36.346  19.115   0.395  0.00  0.00    +0.048 C 
ATOM     14  C   UNL     1     -35.230  22.519   4.452  0.00  0.00    +0.119 C 
ATOM     15  C   UNL     1     -36.101  24.564   4.905  0.00  0.00    +0.066 C 
ATOM     16  C   UNL     1     -36.050  25.830   5.693  0.00  0.00    +0.129 C 
ATOM     17  H   UNL     1     -38.572  23.905   1.873  0.00  0.00    +0.151 HD
ENDROOT
BRANCH   9  18
ATOM     18  C   UNL     1     -39.016  19.558  -1.241  0.00  0.00    +0.065 C 
BRANCH  18  19
ATOM     19  C   UNL     1     -40.482  19.826  -1.553  0.00  0.00    +0.142 C 
BRANCH  19  20
ATOM     20  O   UNL     1     -41.241  18.641  -1.341  0.00  0.00    -0.382 OA
ATOM     21  H   UNL     1     -41.907  18.803  -0.655  0.00  0.00    +0.210 HD
ENDBRANCH  19  20
ENDBRANCH  18  19
ENDBRANCH   9  18
TORSDOF 3
ENDMDL
MODEL 9
REMARK VINA RESULT:      -5.2      2.837      6.026
REMARK  Name = 196353
REMARK  3 active torsions:
REMARK  status: ('A' for Active; 'I' for Inactive)
REMARK    1  A    between atoms: C_9  and  C_18
REMARK    2  A    between atoms: C_18  and  C_19
REMARK    3  A    between atoms: C_19  and  O_20
REMARK                            x       y       z     vdW  Elec       q    Type
REMARK                         _______ _______ _______ _____ _____    ______ ____
ROOT
ATOM      1  S   UNL     1     -39.331  26.161   1.824  0.00  0.00    -0.077 S 
ATOM      2  O   UNL     1     -36.492  22.731   4.048  0.00  0.00    -0.269 OA
ATOM      3  N   UNL     1     -37.795  24.418   3.062  0.00  0.00    -0.234 N 
ATOM      4  N   UNL     1     -36.853  26.606   2.866  0.00  0.00    -0.284 N 
ATOM      5  N   UNL     1     -34.796  27.133   3.925  0.00  0.00    -0.340 NA
ATOM      6  N   UNL     1     -33.633  25.488   5.250  0.00  0.00    -0.186 NA
ATOM      7  C   UNL     1     -38.066  25.859   3.082  0.00  0.00    +0.210 C 
ATOM      8  C   UNL     1     -38.743  23.686   2.347  0.00  0.00    +0.036 C 
ATOM      9  C   UNL     1     -39.627  24.441   1.661  0.00  0.00    +0.018 C 
ATOM     10  C   UNL     1     -36.708  23.907   3.776  0.00  0.00    +0.260 C 
ATOM     11  C   UNL     1     -35.697  24.928   4.158  0.00  0.00    +0.118 C 
ATOM     12  C   UNL     1     -35.768  26.231   3.659  0.00  0.00    +0.199 C 
ATOM     13  C   UNL     1     -38.696  22.189   2.356  0.00  0.00    +0.048 C 
ATOM     14  C   UNL     1     -34.606  24.609   4.947  0.00  0.00    +0.119 C 
ATOM     15  C   UNL     1     -33.785  26.710   4.711  0.00  0.00    +0.066 C 
ATOM     16  C   UNL     1     -32.719  27.709   5.014  0.00  0.00    +0.129 C 
ATOM     17  H   UNL     1     -36.795  27.333   2.203  0.00  0.00    +0.151 HD
ENDROOT
BRANCH   9  18
ATOM     18  C   UNL     1     -40.759  24.004   0.790  0.00  0.00    +0.065 C 
BRANCH  18  19
ATOM     19  C   UNL     1     -41.900  25.012   0.774  0.00  0.00    +0.142 C 
BRANCH  19  20
ATOM     20  O   UNL     1     -43.141  24.333   0.931  0.00  0.00    -0.382 OA
ATOM     21  H   UNL     1     -43.869  24.937   0.715  0.00  0.00    +0.210 HD
ENDBRANCH  19  20
ENDBRANCH  18  19
ENDBRANCH   9  18
TORSDOF 3
ENDMDL
