MODEL 1
REMARK VINA RESULT:      -7.2      0.000      0.000
REMARK  Name = 5321311
REMARK  8 active torsions:
REMARK  status: ('A' for Active; 'I' for Inactive)
REMARK    1  A    between atoms: C_5  and  C_29
REMARK    2  A    between atoms: C_6  and  O_39
REMARK    3  A    between atoms: C_8  and  C_14
REMARK    4  A    between atoms: C_15  and  O_23
REMARK    5  A    between atoms: C_20  and  O_25
REMARK    6  A    between atoms: C_21  and  O_27
REMARK    7  A    between atoms: C_32  and  O_35
REMARK    8  A    between atoms: C_34  and  O_37
REMARK                            x       y       z     vdW  Elec       q    Type
REMARK                         _______ _______ _______ _____ _____    ______ ____
ROOT
ATOM      1  O   UNL     1     -37.475  22.954   3.517  0.00  0.00    -0.329 OA
ATOM      2  O   UNL     1     -38.139  23.564   0.611  0.00  0.00    -0.291 OA
ATOM      3  C   UNL     1     -35.182  22.504   3.128  0.00  0.00    +0.043 C 
ATOM      4  C   UNL     1     -36.009  21.334   2.550  0.00  0.00    +0.083 C 
ATOM      5  C   UNL     1     -34.845  23.519   1.965  0.00  0.00    +0.036 C 
ATOM      6  C   UNL     1     -37.351  22.090   2.381  0.00  0.00    +0.241 C 
ATOM      7  C   UNL     1     -35.741  23.204   0.728  0.00  0.00    +0.088 C 
ATOM      8  C   UNL     1     -35.484  20.853   1.213  0.00  0.00    -0.001 C 
ATOM      9  C   UNL     1     -36.191  23.022   4.153  0.00  0.00    +0.146 C 
ATOM     10  C   UNL     1     -37.191  23.029   1.179  0.00  0.00    +0.205 C 
ATOM     11  C   UNL     1     -35.386  21.807   0.270  0.00  0.00    -0.023 C 
ENDROOT
BRANCH   8  14
ATOM     12  O   UNL     1     -36.217  18.837   0.236  0.00  0.00    -0.472 OA
ATOM     13  O   UNL     1     -32.429  17.268   0.132  0.00  0.00    -0.288 OA
ATOM     14  C   UNL     1     -35.156  19.405   1.018  0.00  0.00    +0.218 C 
ATOM     15  C   UNL     1     -33.810  19.239   0.318  0.00  0.00    +0.217 C 
ATOM     16  C   UNL     1     -33.550  17.764   0.105  0.00  0.00    +0.209 C 
ATOM     17  C   UNL     1     -36.006  17.530  -0.112  0.00  0.00    +0.148 C 
ATOM     18  C   UNL     1     -34.741  16.940  -0.179  0.00  0.00    +0.105 C 
ATOM     19  C   UNL     1     -37.137  16.781  -0.441  0.00  0.00    +0.074 C 
ATOM     20  C   UNL     1     -34.606  15.598  -0.540  0.00  0.00    +0.142 C 
ATOM     21  C   UNL     1     -37.004  15.440  -0.805  0.00  0.00    +0.140 C 
ATOM     22  C   UNL     1     -35.742  14.849  -0.849  0.00  0.00    +0.073 C 
BRANCH  15  23
ATOM     23  O   UNL     1     -32.768  19.759   1.126  0.00  0.00    -0.374 OA
ATOM     24  H   UNL     1     -32.986  19.622   2.062  0.00  0.00    +0.211 HD
ENDBRANCH  15  23
BRANCH  20  25
ATOM     25  O   UNL     1     -33.397  14.974  -0.616  0.00  0.00    -0.505 OA
ATOM     26  H   UNL     1     -32.870  14.879   0.154  0.00  0.00    +0.292 HD
ENDBRANCH  20  25
BRANCH  21  27
ATOM     27  O   UNL     1     -38.108  14.709  -1.118  0.00  0.00    -0.505 OA
ATOM     28  H   UNL     1     -38.667  14.980  -1.820  0.00  0.00    +0.292 HD
ENDBRANCH  21  27
ENDBRANCH   8  14
BRANCH   5  29
ATOM     29  C   UNL     1     -34.933  24.962   2.341  0.00  0.00    -0.018 C 
ATOM     30  C   UNL     1     -34.275  25.425   3.479  0.00  0.00    +0.036 C 
ATOM     31  C   UNL     1     -35.673  25.842   1.552  0.00  0.00    -0.001 C 
ATOM     32  C   UNL     1     -34.358  26.772   3.831  0.00  0.00    +0.172 C 
ATOM     33  C   UNL     1     -35.756  27.189   1.904  0.00  0.00    +0.039 C 
ATOM     34  C   UNL     1     -35.098  27.654   3.043  0.00  0.00    +0.168 C 
BRANCH  32  35
ATOM     35  O   UNL     1     -33.712  27.215   4.945  0.00  0.00    -0.468 OA
ATOM     36  C   UNL     1     -33.689  26.342   6.071  0.00  0.00    +0.253 C 
ENDBRANCH  32  35
BRANCH  34  37
ATOM     37  O   UNL     1     -35.187  28.972   3.375  0.00  0.00    -0.503 OA
ATOM     38  H   UNL     1     -36.026  29.362   3.528  0.00  0.00    +0.292 HD
ENDBRANCH  34  37
ENDBRANCH   5  29
BRANCH   6  39
ATOM     39  O   UNL     1     -38.428  21.198   2.252  0.00  0.00    -0.358 OA
ATOM     40  H   UNL     1     -39.255  21.697   2.171  0.00  0.00    +0.213 HD
ENDBRANCH   6  39
TORSDOF 8
ENDMDL
MODEL 2
REMARK VINA RESULT:      -7.1      2.420      8.770
REMARK  Name = 5321311
REMARK  8 active torsions:
REMARK  status: ('A' for Active; 'I' for Inactive)
REMARK    1  A    between atoms: C_5  and  C_29
REMARK    2  A    between atoms: C_6  and  O_39
REMARK    3  A    between atoms: C_8  and  C_14
REMARK    4  A    between atoms: C_15  and  O_23
REMARK    5  A    between atoms: C_20  and  O_25
REMARK    6  A    between atoms: C_21  and  O_27
REMARK    7  A    between atoms: C_32  and  O_35
REMARK    8  A    between atoms: C_34  and  O_37
REMARK                            x       y       z     vdW  Elec       q    Type
REMARK                         _______ _______ _______ _____ _____    ______ ____
ROOT
ATOM      1  O   UNL     1     -34.038  19.964  -1.845  0.00  0.00    -0.329 OA
ATOM      2  O   UNL     1     -34.836  17.423  -0.374  0.00  0.00    -0.291 OA
ATOM      3  C   UNL     1     -32.918  20.941  -0.000  0.00  0.00    +0.043 C 
ATOM      4  C   UNL     1     -34.436  20.983   0.279  0.00  0.00    +0.083 C 
ATOM      5  C   UNL     1     -32.300  19.673   0.713  0.00  0.00    +0.036 C 
ATOM      6  C   UNL     1     -34.857  19.838  -0.677  0.00  0.00    +0.241 C 
ATOM      7  C   UNL     1     -33.449  18.712   1.144  0.00  0.00    +0.088 C 
ATOM      8  C   UNL     1     -34.776  20.645   1.716  0.00  0.00    -0.001 C 
ATOM      9  C   UNL     1     -32.961  20.856  -1.526  0.00  0.00    +0.146 C 
ATOM     10  C   UNL     1     -34.421  18.522  -0.021  0.00  0.00    +0.205 C 
ATOM     11  C   UNL     1     -34.301  19.461   2.143  0.00  0.00    -0.023 C 
ENDROOT
BRANCH   8  14
ATOM     12  O   UNL     1     -34.807  22.747   2.781  0.00  0.00    -0.472 OA
ATOM     13  O   UNL     1     -38.898  22.990   2.643  0.00  0.00    -0.288 OA
ATOM     14  C   UNL     1     -35.612  21.587   2.527  0.00  0.00    +0.218 C 
ATOM     15  C   UNL     1     -36.892  21.959   1.784  0.00  0.00    +0.217 C 
ATOM     16  C   UNL     1     -37.673  22.944   2.625  0.00  0.00    +0.209 C 
ATOM     17  C   UNL     1     -35.474  23.749   3.433  0.00  0.00    +0.148 C 
ATOM     18  C   UNL     1     -36.864  23.894   3.414  0.00  0.00    +0.105 C 
ATOM     19  C   UNL     1     -34.692  24.677   4.122  0.00  0.00    +0.074 C 
ATOM     20  C   UNL     1     -37.475  24.941   4.108  0.00  0.00    +0.142 C 
ATOM     21  C   UNL     1     -35.299  25.726   4.813  0.00  0.00    +0.140 C 
ATOM     22  C   UNL     1     -36.688  25.854   4.810  0.00  0.00    +0.073 C 
BRANCH  15  23
ATOM     23  O   UNL     1     -37.698  20.811   1.586  0.00  0.00    -0.374 OA
ATOM     24  H   UNL     1     -38.400  21.015   0.947  0.00  0.00    +0.211 HD
ENDBRANCH  15  23
BRANCH  20  25
ATOM     25  O   UNL     1     -38.824  25.125   4.125  0.00  0.00    -0.505 OA
ATOM     26  H   UNL     1     -39.180  25.970   4.323  0.00  0.00    +0.292 HD
ENDBRANCH  20  25
BRANCH  21  27
ATOM     27  O   UNL     1     -34.534  26.625   5.490  0.00  0.00    -0.505 OA
ATOM     28  H   UNL     1     -34.684  27.544   5.382  0.00  0.00    +0.292 HD
ENDBRANCH  21  27
ENDBRANCH   8  14
BRANCH   5  29
ATOM     29  C   UNL     1     -31.258  18.950  -0.077  0.00  0.00    -0.018 C 
ATOM     30  C   UNL     1     -31.427  17.600  -0.377  0.00  0.00    +0.036 C 
ATOM     31  C   UNL     1     -30.119  19.628  -0.509  0.00  0.00    -0.001 C 
ATOM     32  C   UNL     1     -30.453  16.924  -1.113  0.00  0.00    +0.172 C 
ATOM     33  C   UNL     1     -29.146  18.952  -1.245  0.00  0.00    +0.039 C 
ATOM     34  C   UNL     1     -29.313  17.600  -1.547  0.00  0.00    +0.168 C 
BRANCH  32  35
ATOM     35  O   UNL     1     -30.628  15.605  -1.402  0.00  0.00    -0.468 OA
ATOM     36  C   UNL     1     -31.182  14.784  -0.376  0.00  0.00    +0.253 C 
ENDBRANCH  32  35
BRANCH  34  37
ATOM     37  O   UNL     1     -28.356  16.952  -2.267  0.00  0.00    -0.503 OA
ATOM     38  H   UNL     1     -28.025  16.126  -1.970  0.00  0.00    +0.292 HD
ENDBRANCH  34  37
ENDBRANCH   5  29
BRANCH   6  39
ATOM     39  O   UNL     1     -36.231  19.890  -0.963  0.00  0.00    -0.358 OA
ATOM     40  H   UNL     1     -36.429  19.304  -1.709  0.00  0.00    +0.213 HD
ENDBRANCH   6  39
TORSDOF 8
ENDMDL
MODEL 3
REMARK VINA RESULT:      -7.1      2.461      9.914
REMARK  Name = 5321311
REMARK  8 active torsions:
REMARK  status: ('A' for Active; 'I' for Inactive)
REMARK    1  A    between atoms: C_5  and  C_29
REMARK    2  A    between atoms: C_6  and  O_39
REMARK    3  A    between atoms: C_8  and  C_14
REMARK    4  A    between atoms: C_15  and  O_23
REMARK    5  A    between atoms: C_20  and  O_25
REMARK    6  A    between atoms: C_21  and  O_27
REMARK    7  A    between atoms: C_32  and  O_35
REMARK    8  A    between atoms: C_34  and  O_37
REMARK                            x       y       z     vdW  Elec       q    Type
REMARK                         _______ _______ _______ _____ _____    ______ ____
ROOT
ATOM      1  O   UNL     1     -37.047  25.141   1.075  0.00  0.00    -0.329 OA
ATOM      2  O   UNL     1     -38.394  24.620   3.754  0.00  0.00    -0.291 OA
ATOM      3  C   UNL     1     -34.845  24.760   1.860  0.00  0.00    +0.043 C 
ATOM      4  C   UNL     1     -35.338  26.104   2.440  0.00  0.00    +0.083 C 
ATOM      5  C   UNL     1     -35.075  23.623   2.933  0.00  0.00    +0.036 C 
ATOM      6  C   UNL     1     -36.861  25.841   2.310  0.00  0.00    +0.241 C 
ATOM      7  C   UNL     1     -36.030  24.150   4.047  0.00  0.00    +0.088 C 
ATOM      8  C   UNL     1     -34.941  26.298   3.888  0.00  0.00    -0.001 C 
ATOM      9  C   UNL     1     -35.761  24.678   0.640  0.00  0.00    +0.146 C 
ATOM     10  C   UNL     1     -37.237  24.834   3.404  0.00  0.00    +0.205 C 
ATOM     11  C   UNL     1     -35.332  25.312   4.716  0.00  0.00    -0.023 C 
ENDROOT
BRANCH   8  14
ATOM     12  O   UNL     1     -32.920  27.111   4.786  0.00  0.00    -0.472 OA
ATOM     13  O   UNL     1     -33.452  30.836   3.154  0.00  0.00    -0.288 OA
ATOM     14  C   UNL     1     -34.202  27.533   4.300  0.00  0.00    +0.218 C 
ATOM     15  C   UNL     1     -34.054  28.499   3.128  0.00  0.00    +0.217 C 
ATOM     16  C   UNL     1     -33.264  29.704   3.586  0.00  0.00    +0.209 C 
ATOM     17  C   UNL     1     -32.085  28.147   5.109  0.00  0.00    +0.148 C 
ATOM     18  C   UNL     1     -32.205  29.434   4.578  0.00  0.00    +0.105 C 
ATOM     19  C   UNL     1     -31.049  27.860   6.000  0.00  0.00    +0.074 C 
ATOM     20  C   UNL     1     -31.316  30.441   4.960  0.00  0.00    +0.142 C 
ATOM     21  C   UNL     1     -30.157  28.864   6.380  0.00  0.00    +0.140 C 
ATOM     22  C   UNL     1     -30.294  30.153   5.865  0.00  0.00    +0.073 C 
BRANCH  15  23
ATOM     23  O   UNL     1     -35.327  28.944   2.693  0.00  0.00    -0.374 OA
ATOM     24  H   UNL     1     -35.560  28.498   1.863  0.00  0.00    +0.211 HD
ENDBRANCH  15  23
BRANCH  20  25
ATOM     25  O   UNL     1     -31.392  31.712   4.476  0.00  0.00    -0.505 OA
ATOM     26  H   UNL     1     -31.748  31.869   3.622  0.00  0.00    +0.292 HD
ENDBRANCH  20  25
BRANCH  21  27
ATOM     27  O   UNL     1     -29.153  28.584   7.254  0.00  0.00    -0.505 OA
ATOM     28  H   UNL     1     -28.259  28.676   6.987  0.00  0.00    +0.292 HD
ENDBRANCH  21  27
ENDBRANCH   8  14
BRANCH   5  29
ATOM     29  C   UNL     1     -35.556  22.321   2.381  0.00  0.00    -0.018 C 
ATOM     30  C   UNL     1     -34.660  21.463   1.745  0.00  0.00    +0.036 C 
ATOM     31  C   UNL     1     -36.899  21.969   2.502  0.00  0.00    -0.001 C 
ATOM     32  C   UNL     1     -35.110  20.248   1.228  0.00  0.00    +0.172 C 
ATOM     33  C   UNL     1     -37.348  20.754   1.985  0.00  0.00    +0.039 C 
ATOM     34  C   UNL     1     -36.453  19.893   1.348  0.00  0.00    +0.168 C 
BRANCH  32  35
ATOM     35  O   UNL     1     -34.227  19.416   0.609  0.00  0.00    -0.468 OA
ATOM     36  C   UNL     1     -33.222  18.816   1.423  0.00  0.00    +0.253 C 
ENDBRANCH  32  35
BRANCH  34  37
ATOM     37  O   UNL     1     -36.905  18.709   0.848  0.00  0.00    -0.503 OA
ATOM     38  H   UNL     1     -36.489  18.327   0.099  0.00  0.00    +0.292 HD
ENDBRANCH  34  37
ENDBRANCH   5  29
BRANCH   6  39
ATOM     39  O   UNL     1     -37.593  27.037   2.378  0.00  0.00    -0.358 OA
ATOM     40  H   UNL     1     -37.944  27.153   3.274  0.00  0.00    +0.213 HD
ENDBRANCH   6  39
TORSDOF 8
ENDMDL
MODEL 4
REMARK VINA RESULT:      -7.1      2.792      8.229
REMARK  Name = 5321311
REMARK  8 active torsions:
REMARK  status: ('A' for Active; 'I' for Inactive)
REMARK    1  A    between atoms: C_5  and  C_29
REMARK    2  A    between atoms: C_6  and  O_39
REMARK    3  A    between atoms: C_8  and  C_14
REMARK    4  A    between atoms: C_15  and  O_23
REMARK    5  A    between atoms: C_20  and  O_25
REMARK    6  A    between atoms: C_21  and  O_27
REMARK    7  A    between atoms: C_32  and  O_35
REMARK    8  A    between atoms: C_34  and  O_37
REMARK                            x       y       z     vdW  Elec       q    Type
REMARK                         _______ _______ _______ _____ _____    ______ ____
ROOT
ATOM      1  O   UNL     1     -33.656  18.685  -1.915  0.00  0.00    -0.329 OA
ATOM      2  O   UNL     1     -33.480  16.672   0.361  0.00  0.00    -0.291 OA
ATOM      3  C   UNL     1     -33.305  20.588  -0.549  0.00  0.00    +0.043 C 
ATOM      4  C   UNL     1     -34.720  20.040  -0.259  0.00  0.00    +0.083 C 
ATOM      5  C   UNL     1     -32.304  20.029   0.537  0.00  0.00    +0.036 C 
ATOM      6  C   UNL     1     -34.487  18.589  -0.751  0.00  0.00    +0.241 C 
ATOM      7  C   UNL     1     -32.980  18.852   1.305  0.00  0.00    +0.088 C 
ATOM      8  C   UNL     1     -35.065  20.066   1.215  0.00  0.00    -0.001 C 
ATOM      9  C   UNL     1     -33.111  20.011  -1.951  0.00  0.00    +0.146 C 
ATOM     10  C   UNL     1     -33.621  17.890   0.304  0.00  0.00    +0.205 C 
ATOM     11  C   UNL     1     -34.191  19.421   2.009  0.00  0.00    -0.023 C 
ENDROOT
BRANCH   8  14
ATOM     12  O   UNL     1     -35.984  22.116   1.925  0.00  0.00    -0.472 OA
ATOM     13  O   UNL     1     -39.790  21.014   0.869  0.00  0.00    -0.288 OA
ATOM     14  C   UNL     1     -36.318  20.743   1.677  0.00  0.00    +0.218 C 
ATOM     15  C   UNL     1     -37.420  20.627   0.628  0.00  0.00    +0.217 C 
ATOM     16  C   UNL     1     -38.644  21.365   1.124  0.00  0.00    +0.209 C 
ATOM     17  C   UNL     1     -37.060  22.893   2.261  0.00  0.00    +0.148 C 
ATOM     18  C   UNL     1     -38.378  22.580   1.920  0.00  0.00    +0.105 C 
ATOM     19  C   UNL     1     -36.787  24.071   2.957  0.00  0.00    +0.074 C 
ATOM     20  C   UNL     1     -39.426  23.421   2.301  0.00  0.00    +0.142 C 
ATOM     21  C   UNL     1     -37.832  24.916   3.337  0.00  0.00    +0.140 C 
ATOM     22  C   UNL     1     -39.148  24.588   3.014  0.00  0.00    +0.073 C 
BRANCH  15  23
ATOM     23  O   UNL     1     -37.773  19.269   0.432  0.00  0.00    -0.374 OA
ATOM     24  H   UNL     1     -38.677  19.217   0.083  0.00  0.00    +0.211 HD
ENDBRANCH  15  23
BRANCH  20  25
ATOM     25  O   UNL     1     -40.728  23.160   1.998  0.00  0.00    -0.505 OA
ATOM     26  H   UNL     1     -41.343  23.864   1.927  0.00  0.00    +0.292 HD
ENDBRANCH  20  25
BRANCH  21  27
ATOM     27  O   UNL     1     -37.564  26.060   4.022  0.00  0.00    -0.505 OA
ATOM     28  H   UNL     1     -37.947  26.202   4.866  0.00  0.00    +0.292 HD
ENDBRANCH  21  27
ENDBRANCH   8  14
BRANCH   5  29
ATOM     29  C   UNL     1     -30.962  19.632   0.015  0.00  0.00    -0.018 C 
ATOM     30  C   UNL     1     -30.452  18.367   0.298  0.00  0.00    +0.036 C 
ATOM     31  C   UNL     1     -30.223  20.530  -0.754  0.00  0.00    -0.001 C 
ATOM     32  C   UNL     1     -29.198  17.997  -0.188  0.00  0.00    +0.172 C 
ATOM     33  C   UNL     1     -28.968  20.161  -1.240  0.00  0.00    +0.039 C 
ATOM     34  C   UNL     1     -28.457  18.894  -0.957  0.00  0.00    +0.168 C 
BRANCH  32  35
ATOM     35  O   UNL     1     -28.709  16.758   0.094  0.00  0.00    -0.468 OA
ATOM     36  C   UNL     1     -29.575  15.650  -0.140  0.00  0.00    +0.253 C 
ENDBRANCH  32  35
BRANCH  34  37
ATOM     37  O   UNL     1     -27.231  18.545  -1.439  0.00  0.00    -0.503 OA
ATOM     38  H   UNL     1     -27.146  18.219  -2.314  0.00  0.00    +0.292 HD
ENDBRANCH  34  37
ENDBRANCH   5  29
BRANCH   6  39
ATOM     39  O   UNL     1     -35.703  17.932  -0.999  0.00  0.00    -0.358 OA
ATOM     40  H   UNL     1     -36.440  18.538  -0.826  0.00  0.00    +0.213 HD
ENDBRANCH   6  39
TORSDOF 8
ENDMDL
MODEL 5
REMARK VINA RESULT:      -6.9      1.216      2.865
REMARK  Name = 5321311
REMARK  8 active torsions:
REMARK  status: ('A' for Active; 'I' for Inactive)
REMARK    1  A    between atoms: C_5  and  C_29
REMARK    2  A    between atoms: C_6  and  O_39
REMARK    3  A    between atoms: C_8  and  C_14
REMARK    4  A    between atoms: C_15  and  O_23
REMARK    5  A    between atoms: C_20  and  O_25
REMARK    6  A    between atoms: C_21  and  O_27
REMARK    7  A    between atoms: C_32  and  O_35
REMARK    8  A    between atoms: C_34  and  O_37
REMARK                            x       y       z     vdW  Elec       q    Type
REMARK                         _______ _______ _______ _____ _____    ______ ____
ROOT
ATOM      1  O   UNL     1     -37.367  22.711   3.426  0.00  0.00    -0.329 OA
ATOM      2  O   UNL     1     -38.775  23.711   0.921  0.00  0.00    -0.291 OA
ATOM      3  C   UNL     1     -35.269  22.378   2.378  0.00  0.00    +0.043 C 
ATOM      4  C   UNL     1     -36.237  21.282   1.879  0.00  0.00    +0.083 C 
ATOM      5  C   UNL     1     -35.241  23.556   1.325  0.00  0.00    +0.036 C 
ATOM      6  C   UNL     1     -37.564  22.021   2.186  0.00  0.00    +0.241 C 
ATOM      7  C   UNL     1     -36.439  23.397   0.341  0.00  0.00    +0.088 C 
ATOM      8  C   UNL     1     -36.096  21.008   0.397  0.00  0.00    -0.001 C 
ATOM      9  C   UNL     1     -35.958  22.720   3.698  0.00  0.00    +0.146 C 
ATOM     10  C   UNL     1     -37.719  23.124   1.132  0.00  0.00    +0.205 C 
ATOM     11  C   UNL     1     -36.240  22.089  -0.391  0.00  0.00    -0.023 C 
ENDROOT
BRANCH   8  14
ATOM     12  O   UNL     1     -34.600  19.189   0.471  0.00  0.00    -0.472 OA
ATOM     13  O   UNL     1     -37.525  16.475  -0.474  0.00  0.00    -0.288 OA
ATOM     14  C   UNL     1     -35.853  19.611  -0.085  0.00  0.00    +0.218 C 
ATOM     15  C   UNL     1     -36.985  18.682   0.343  0.00  0.00    +0.217 C 
ATOM     16  C   UNL     1     -36.667  17.279  -0.128  0.00  0.00    +0.209 C 
ATOM     17  C   UNL     1     -34.288  17.885   0.199  0.00  0.00    +0.148 C 
ATOM     18  C   UNL     1     -35.238  16.910  -0.116  0.00  0.00    +0.105 C 
ATOM     19  C   UNL     1     -32.939  17.535   0.278  0.00  0.00    +0.074 C 
ATOM     20  C   UNL     1     -34.842  15.598  -0.386  0.00  0.00    +0.142 C 
ATOM     21  C   UNL     1     -32.541  16.224   0.012  0.00  0.00    +0.140 C 
ATOM     22  C   UNL     1     -33.490  15.260  -0.324  0.00  0.00    +0.073 C 
BRANCH  15  23
ATOM     23  O   UNL     1     -38.205  19.083  -0.256  0.00  0.00    -0.374 OA
ATOM     24  H   UNL     1     -38.813  18.326  -0.288  0.00  0.00    +0.211 HD
ENDBRANCH  15  23
BRANCH  20  25
ATOM     25  O   UNL     1     -35.727  14.612  -0.702  0.00  0.00    -0.505 OA
ATOM     26  H   UNL     1     -36.649  14.768  -0.628  0.00  0.00    +0.292 HD
ENDBRANCH  20  25
BRANCH  21  27
ATOM     27  O   UNL     1     -31.224  15.888   0.082  0.00  0.00    -0.505 OA
ATOM     28  H   UNL     1     -30.754  15.995   0.886  0.00  0.00    +0.292 HD
ENDBRANCH  21  27
ENDBRANCH   8  14
BRANCH   5  29
ATOM     29  C   UNL     1     -35.203  24.928   1.914  0.00  0.00    -0.018 C 
ATOM     30  C   UNL     1     -36.129  25.886   1.504  0.00  0.00    +0.036 C 
ATOM     31  C   UNL     1     -34.242  25.247   2.871  0.00  0.00    -0.001 C 
ATOM     32  C   UNL     1     -36.093  27.168   2.052  0.00  0.00    +0.172 C 
ATOM     33  C   UNL     1     -34.206  26.529   3.420  0.00  0.00    +0.039 C 
ATOM     34  C   UNL     1     -35.132  27.489   3.011  0.00  0.00    +0.168 C 
BRANCH  32  35
ATOM     35  O   UNL     1     -37.003  28.096   1.646  0.00  0.00    -0.468 OA
ATOM     36  C   UNL     1     -36.697  28.828   0.461  0.00  0.00    +0.253 C 
ENDBRANCH  32  35
BRANCH  34  37
ATOM     37  O   UNL     1     -35.087  28.737   3.555  0.00  0.00    -0.503 OA
ATOM     38  H   UNL     1     -35.290  28.861   4.462  0.00  0.00    +0.292 HD
ENDBRANCH  34  37
ENDBRANCH   5  29
BRANCH   6  39
ATOM     39  O   UNL     1     -38.649  21.129   2.222  0.00  0.00    -0.358 OA
ATOM     40  H   UNL     1     -38.321  20.225   2.348  0.00  0.00    +0.213 HD
ENDBRANCH   6  39
TORSDOF 8
ENDMDL
MODEL 6
REMARK VINA RESULT:      -6.9      2.684      9.776
REMARK  Name = 5321311
REMARK  8 active torsions:
REMARK  status: ('A' for Active; 'I' for Inactive)
REMARK    1  A    between atoms: C_5  and  C_29
REMARK    2  A    between atoms: C_6  and  O_39
REMARK    3  A    between atoms: C_8  and  C_14
REMARK    4  A    between atoms: C_15  and  O_23
REMARK    5  A    between atoms: C_20  and  O_25
REMARK    6  A    between atoms: C_21  and  O_27
REMARK    7  A    between atoms: C_32  and  O_35
REMARK    8  A    between atoms: C_34  and  O_37
REMARK                            x       y       z     vdW  Elec       q    Type
REMARK                         _______ _______ _______ _____ _____    ______ ____
ROOT
ATOM      1  O   UNL     1     -37.990  24.780   4.104  0.00  0.00    -0.329 OA
ATOM      2  O   UNL     1     -35.847  22.924   5.211  0.00  0.00    -0.291 OA
ATOM      3  C   UNL     1     -36.719  25.490   2.236  0.00  0.00    +0.043 C 
ATOM      4  C   UNL     1     -36.112  26.130   3.504  0.00  0.00    +0.083 C 
ATOM      5  C   UNL     1     -35.905  24.183   1.880  0.00  0.00    +0.036 C 
ATOM      6  C   UNL     1     -36.666  25.115   4.536  0.00  0.00    +0.241 C 
ATOM      7  C   UNL     1     -35.017  23.781   3.097  0.00  0.00    +0.088 C 
ATOM      8  C   UNL     1     -34.598  26.126   3.494  0.00  0.00    -0.001 C 
ATOM      9  C   UNL     1     -38.135  25.238   2.752  0.00  0.00    +0.146 C 
ATOM     10  C   UNL     1     -35.852  23.824   4.377  0.00  0.00    +0.205 C 
ATOM     11  C   UNL     1     -34.040  24.913   3.324  0.00  0.00    -0.023 C 
ENDROOT
BRANCH   8  14
ATOM     12  O   UNL     1     -32.894  27.166   4.745  0.00  0.00    -0.472 OA
ATOM     13  O   UNL     1     -32.208  29.992   1.854  0.00  0.00    -0.288 OA
ATOM     14  C   UNL     1     -33.846  27.404   3.699  0.00  0.00    +0.218 C 
ATOM     15  C   UNL     1     -33.150  27.841   2.413  0.00  0.00    +0.217 C 
ATOM     16  C   UNL     1     -32.371  29.108   2.688  0.00  0.00    +0.209 C 
ATOM     17  C   UNL     1     -32.056  28.223   4.980  0.00  0.00    +0.148 C 
ATOM     18  C   UNL     1     -31.771  29.210   4.033  0.00  0.00    +0.105 C 
ATOM     19  C   UNL     1     -31.447  28.271   6.234  0.00  0.00    +0.074 C 
ATOM     20  C   UNL     1     -30.908  30.262   4.347  0.00  0.00    +0.142 C 
ATOM     21  C   UNL     1     -30.581  29.319   6.550  0.00  0.00    +0.140 C 
ATOM     22  C   UNL     1     -30.317  30.315   5.610  0.00  0.00    +0.073 C 
BRANCH  15  23
ATOM     23  O   UNL     1     -34.107  28.121   1.406  0.00  0.00    -0.374 OA
ATOM     24  H   UNL     1     -33.652  28.420   0.602  0.00  0.00    +0.211 HD
ENDBRANCH  15  23
BRANCH  20  25
ATOM     25  O   UNL     1     -30.601  31.252   3.463  0.00  0.00    -0.505 OA
ATOM     26  H   UNL     1     -31.271  31.621   2.921  0.00  0.00    +0.292 HD
ENDBRANCH  20  25
BRANCH  21  27
ATOM     27  O   UNL     1     -29.993  29.368   7.776  0.00  0.00    -0.505 OA
ATOM     28  H   UNL     1     -29.079  29.557   7.851  0.00  0.00    +0.292 HD
ENDBRANCH  21  27
ENDBRANCH   8  14
BRANCH   5  29
ATOM     29  C   UNL     1     -36.733  23.031   1.412  0.00  0.00    -0.018 C 
ATOM     30  C   UNL     1     -36.240  21.732   1.521  0.00  0.00    +0.036 C 
ATOM     31  C   UNL     1     -37.996  23.259   0.867  0.00  0.00    -0.001 C 
ATOM     32  C   UNL     1     -37.013  20.656   1.082  0.00  0.00    +0.172 C 
ATOM     33  C   UNL     1     -38.768  22.184   0.429  0.00  0.00    +0.039 C 
ATOM     34  C   UNL     1     -38.276  20.882   0.537  0.00  0.00    +0.168 C 
BRANCH  32  35
ATOM     35  O   UNL     1     -36.523  19.391   1.194  0.00  0.00    -0.468 OA
ATOM     36  C   UNL     1     -35.456  19.029   0.320  0.00  0.00    +0.253 C 
ENDBRANCH  32  35
BRANCH  34  37
ATOM     37  O   UNL     1     -39.041  19.840   0.106  0.00  0.00    -0.503 OA
ATOM     38  H   UNL     1     -39.957  19.818   0.303  0.00  0.00    +0.292 HD
ENDBRANCH  34  37
ENDBRANCH   5  29
BRANCH   6  39
ATOM     39  O   UNL     1     -36.630  25.639   5.838  0.00  0.00    -0.358 OA
ATOM     40  H   UNL     1     -37.458  25.427   6.296  0.00  0.00    +0.213 HD
ENDBRANCH   6  39
TORSDOF 8
ENDMDL
MODEL 7
REMARK VINA RESULT:      -6.8      2.985     10.343
REMARK  Name = 5321311
REMARK  8 active torsions:
REMARK  status: ('A' for Active; 'I' for Inactive)
REMARK    1  A    between atoms: C_5  and  C_29
REMARK    2  A    between atoms: C_6  and  O_39
REMARK    3  A    between atoms: C_8  and  C_14
REMARK    4  A    between atoms: C_15  and  O_23
REMARK    5  A    between atoms: C_20  and  O_25
REMARK    6  A    between atoms: C_21  and  O_27
REMARK    7  A    between atoms: C_32  and  O_35
REMARK    8  A    between atoms: C_34  and  O_37
REMARK                            x       y       z     vdW  Elec       q    Type
REMARK                         _______ _______ _______ _____ _____    ______ ____
ROOT
ATOM      1  O   UNL     1     -37.457  24.383   4.475  0.00  0.00    -0.329 OA
ATOM      2  O   UNL     1     -34.615  23.753   5.362  0.00  0.00    -0.291 OA
ATOM      3  C   UNL     1     -36.842  25.202   2.339  0.00  0.00    +0.043 C 
ATOM      4  C   UNL     1     -36.408  26.240   3.397  0.00  0.00    +0.083 C 
ATOM      5  C   UNL     1     -35.606  24.285   1.983  0.00  0.00    +0.036 C 
ATOM      6  C   UNL     1     -36.353  25.285   4.617  0.00  0.00    +0.241 C 
ATOM      7  C   UNL     1     -34.488  24.487   3.051  0.00  0.00    +0.088 C 
ATOM      8  C   UNL     1     -35.046  26.835   3.109  0.00  0.00    -0.001 C 
ATOM      9  C   UNL     1     -37.946  24.503   3.132  0.00  0.00    +0.146 C 
ATOM     10  C   UNL     1     -35.100  24.416   4.451  0.00  0.00    +0.205 C 
ATOM     11  C   UNL     1     -34.056  25.934   2.972  0.00  0.00    -0.023 C 
ENDROOT
BRANCH   8  14
ATOM     12  O   UNL     1     -33.478  28.593   3.164  0.00  0.00    -0.472 OA
ATOM     13  O   UNL     1     -35.954  31.144   1.120  0.00  0.00    -0.288 OA
ATOM     14  C   UNL     1     -34.880  28.321   3.034  0.00  0.00    +0.218 C 
ATOM     15  C   UNL     1     -35.425  28.865   1.717  0.00  0.00    +0.217 C 
ATOM     16  C   UNL     1     -35.192  30.359   1.673  0.00  0.00    +0.209 C 
ATOM     17  C   UNL     1     -33.156  29.915   3.013  0.00  0.00    +0.148 C 
ATOM     18  C   UNL     1     -33.950  30.831   2.317  0.00  0.00    +0.105 C 
ATOM     19  C   UNL     1     -31.947  30.332   3.572  0.00  0.00    +0.074 C 
ATOM     20  C   UNL     1     -33.557  32.167   2.208  0.00  0.00    +0.142 C 
ATOM     21  C   UNL     1     -31.551  31.666   3.462  0.00  0.00    +0.140 C 
ATOM     22  C   UNL     1     -32.357  32.581   2.786  0.00  0.00    +0.073 C 
BRANCH  15  23
ATOM     23  O   UNL     1     -36.820  28.633   1.627  0.00  0.00    -0.374 OA
ATOM     24  H   UNL     1     -37.267  29.452   1.356  0.00  0.00    +0.211 HD
ENDBRANCH  15  23
BRANCH  20  25
ATOM     25  O   UNL     1     -34.296  33.100   1.546  0.00  0.00    -0.505 OA
ATOM     26  H   UNL     1     -34.021  33.402   0.701  0.00  0.00    +0.292 HD
ENDBRANCH  20  25
BRANCH  21  27
ATOM     27  O   UNL     1     -30.375  32.072   4.014  0.00  0.00    -0.505 OA
ATOM     28  H   UNL     1     -30.205  32.985   4.136  0.00  0.00    +0.292 HD
ENDBRANCH  21  27
ENDBRANCH   8  14
BRANCH   5  29
ATOM     29  C   UNL     1     -35.924  22.837   1.802  0.00  0.00    -0.018 C 
ATOM     30  C   UNL     1     -36.881  22.447   0.867  0.00  0.00    +0.036 C 
ATOM     31  C   UNL     1     -35.265  21.879   2.571  0.00  0.00    -0.001 C 
ATOM     32  C   UNL     1     -37.180  21.095   0.699  0.00  0.00    +0.172 C 
ATOM     33  C   UNL     1     -35.564  20.527   2.404  0.00  0.00    +0.039 C 
ATOM     34  C   UNL     1     -36.521  20.135   1.467  0.00  0.00    +0.168 C 
BRANCH  32  35
ATOM     35  O   UNL     1     -38.116  20.725  -0.218  0.00  0.00    -0.468 OA
ATOM     36  C   UNL     1     -37.716  20.720  -1.587  0.00  0.00    +0.253 C 
ENDBRANCH  32  35
BRANCH  34  37
ATOM     37  O   UNL     1     -36.803  18.812   1.313  0.00  0.00    -0.503 OA
ATOM     38  H   UNL     1     -37.020  18.474   0.466  0.00  0.00    +0.292 HD
ENDBRANCH  34  37
ENDBRANCH   5  29
BRANCH   6  39
ATOM     39  O   UNL     1     -36.381  25.998   5.826  0.00  0.00    -0.358 OA
ATOM     40  H   UNL     1     -35.491  26.325   6.030  0.00  0.00    +0.213 HD
ENDBRANCH   6  39
TORSDOF 8
ENDMDL
MODEL 8
REMARK VINA RESULT:      -6.8      3.716     10.983
REMARK  Name = 5321311
REMARK  8 active torsions:
REMARK  status: ('A' for Active; 'I' for Inactive)
REMARK    1  A    between atoms: C_5  and  C_29
REMARK    2  A    between atoms: C_6  and  O_39
REMARK    3  A    between atoms: C_8  and  C_14
REMARK    4  A    between atoms: C_15  and  O_23
REMARK    5  A    between atoms: C_20  and  O_25
REMARK    6  A    between atoms: C_21  and  O_27
REMARK    7  A    between atoms: C_32  and  O_35
REMARK    8  A    between atoms: C_34  and  O_37
REMARK                            x       y       z     vdW  Elec       q    Type
REMARK                         _______ _______ _______ _____ _____    ______ ____
ROOT
ATOM      1  O   UNL     1     -32.749  26.122   3.523  0.00  0.00    -0.329 OA
ATOM      2  O   UNL     1     -33.810  25.112   0.856  0.00  0.00    -0.291 OA
ATOM      3  C   UNL     1     -34.845  26.891   4.314  0.00  0.00    +0.043 C 
ATOM      4  C   UNL     1     -34.371  27.846   3.197  0.00  0.00    +0.083 C 
ATOM      5  C   UNL     1     -35.836  25.827   3.696  0.00  0.00    +0.036 C 
ATOM      6  C   UNL     1     -33.397  26.870   2.488  0.00  0.00    +0.241 C 
ATOM      7  C   UNL     1     -35.728  25.863   2.141  0.00  0.00    +0.088 C 
ATOM      8  C   UNL     1     -35.494  28.263   2.270  0.00  0.00    -0.001 C 
ATOM      9  C   UNL     1     -33.488  26.328   4.735  0.00  0.00    +0.146 C 
ATOM     10  C   UNL     1     -34.255  25.849   1.731  0.00  0.00    +0.205 C 
ATOM     11  C   UNL     1     -36.162  27.243   1.700  0.00  0.00    -0.023 C 
ENDROOT
BRANCH   8  14
ATOM     12  O   UNL     1     -34.502  30.396   2.145  0.00  0.00    -0.472 OA
ATOM     13  O   UNL     1     -37.504  31.883  -0.221  0.00  0.00    -0.288 OA
ATOM     14  C   UNL     1     -35.759  29.716   2.025  0.00  0.00    +0.218 C 
ATOM     15  C   UNL     1     -36.373  29.934   0.645  0.00  0.00    +0.217 C 
ATOM     16  C   UNL     1     -36.577  31.418   0.432  0.00  0.00    +0.209 C 
ATOM     17  C   UNL     1     -34.567  31.731   1.846  0.00  0.00    +0.148 C 
ATOM     18  C   UNL     1     -35.556  32.296   1.036  0.00  0.00    +0.105 C 
ATOM     19  C   UNL     1     -33.558  32.539   2.372  0.00  0.00    +0.074 C 
ATOM     20  C   UNL     1     -35.559  33.669   0.779  0.00  0.00    +0.142 C 
ATOM     21  C   UNL     1     -33.556  33.911   2.114  0.00  0.00    +0.140 C 
ATOM     22  C   UNL     1     -34.558  34.474   1.324  0.00  0.00    +0.073 C 
BRANCH  15  23
ATOM     23  O   UNL     1     -37.636  29.298   0.561  0.00  0.00    -0.374 OA
ATOM     24  H   UNL     1     -38.305  29.849   0.998  0.00  0.00    +0.211 HD
ENDBRANCH  15  23
BRANCH  20  25
ATOM     25  O   UNL     1     -36.501  34.271   0.001  0.00  0.00    -0.505 OA
ATOM     26  H   UNL     1     -36.821  35.123   0.227  0.00  0.00    +0.292 HD
ENDBRANCH  20  25
BRANCH  21  27
ATOM     27  O   UNL     1     -32.576  34.698   2.634  0.00  0.00    -0.505 OA
ATOM     28  H   UNL     1     -31.685  34.571   2.373  0.00  0.00    +0.292 HD
ENDBRANCH  21  27
ENDBRANCH   8  14
BRANCH   5  29
ATOM     29  C   UNL     1     -35.675  24.436   4.216  0.00  0.00    -0.018 C 
ATOM     30  C   UNL     1     -35.695  23.357   3.334  0.00  0.00    +0.036 C 
ATOM     31  C   UNL     1     -35.506  24.221   5.583  0.00  0.00    -0.001 C 
ATOM     32  C   UNL     1     -35.546  22.058   3.820  0.00  0.00    +0.172 C 
ATOM     33  C   UNL     1     -35.357  22.922   6.069  0.00  0.00    +0.039 C 
ATOM     34  C   UNL     1     -35.376  21.841   5.187  0.00  0.00    +0.168 C 
BRANCH  32  35
ATOM     35  O   UNL     1     -35.566  21.011   2.950  0.00  0.00    -0.468 OA
ATOM     36  C   UNL     1     -36.629  20.977   2.001  0.00  0.00    +0.253 C 
ENDBRANCH  32  35
BRANCH  34  37
ATOM     37  O   UNL     1     -35.229  20.577   5.675  0.00  0.00    -0.503 OA
ATOM     38  H   UNL     1     -35.806  19.895   5.391  0.00  0.00    +0.292 HD
ENDBRANCH  34  37
ENDBRANCH   5  29
BRANCH   6  39
ATOM     39  O   UNL     1     -32.494  27.560   1.663  0.00  0.00    -0.358 OA
ATOM     40  H   UNL     1     -31.808  26.950   1.351  0.00  0.00    +0.213 HD
ENDBRANCH   6  39
TORSDOF 8
ENDMDL
MODEL 9
REMARK VINA RESULT:      -6.7      4.399      9.922
REMARK  Name = 5321311
REMARK  8 active torsions:
REMARK  status: ('A' for Active; 'I' for Inactive)
REMARK    1  A    between atoms: C_5  and  C_29
REMARK    2  A    between atoms: C_6  and  O_39
REMARK    3  A    between atoms: C_8  and  C_14
REMARK    4  A    between atoms: C_15  and  O_23
REMARK    5  A    between atoms: C_20  and  O_25
REMARK    6  A    between atoms: C_21  and  O_27
REMARK    7  A    between atoms: C_32  and  O_35
REMARK    8  A    between atoms: C_34  and  O_37
REMARK                            x       y       z     vdW  Elec       q    Type
REMARK                         _______ _______ _______ _____ _____    ______ ____
ROOT
ATOM      1  O   UNL     1     -36.170  25.458   0.069  0.00  0.00    -0.329 OA
ATOM      2  O   UNL     1     -38.197  27.202   1.522  0.00  0.00    -0.291 OA
ATOM      3  C   UNL     1     -35.347  24.406   2.025  0.00  0.00    +0.043 C 
ATOM      4  C   UNL     1     -34.845  25.866   2.015  0.00  0.00    +0.083 C 
ATOM      5  C   UNL     1     -36.647  24.315   2.918  0.00  0.00    +0.036 C 
ATOM      6  C   UNL     1     -35.926  26.452   1.071  0.00  0.00    +0.241 C 
ATOM      7  C   UNL     1     -37.189  25.752   3.188  0.00  0.00    +0.088 C 
ATOM      8  C   UNL     1     -34.907  26.515   3.382  0.00  0.00    -0.001 C 
ATOM      9  C   UNL     1     -35.589  24.228   0.526  0.00  0.00    +0.146 C 
ATOM     10  C   UNL     1     -37.228  26.539   1.877  0.00  0.00    +0.205 C 
ATOM     11  C   UNL     1     -36.120  26.489   3.963  0.00  0.00    -0.023 C 
ENDROOT
BRANCH   8  14
ATOM     12  O   UNL     1     -33.788  28.560   3.727  0.00  0.00    -0.472 OA
ATOM     13  O   UNL     1     -31.657  27.096   6.910  0.00  0.00    -0.288 OA
ATOM     14  C   UNL     1     -33.681  27.149   3.964  0.00  0.00    +0.218 C 
ATOM     15  C   UNL     1     -33.567  26.850   5.456  0.00  0.00    +0.217 C 
ATOM     16  C   UNL     1     -32.342  27.550   6.000  0.00  0.00    +0.209 C 
ATOM     17  C   UNL     1     -32.780  29.292   4.295  0.00  0.00    +0.148 C 
ATOM     18  C   UNL     1     -32.027  28.855   5.388  0.00  0.00    +0.105 C 
ATOM     19  C   UNL     1     -32.537  30.552   3.746  0.00  0.00    +0.074 C 
ATOM     20  C   UNL     1     -31.011  29.658   5.912  0.00  0.00    +0.142 C 
ATOM     21  C   UNL     1     -31.524  31.357   4.270  0.00  0.00    +0.140 C 
ATOM     22  C   UNL     1     -30.760  30.908   5.346  0.00  0.00    +0.073 C 
BRANCH  15  23
ATOM     23  O   UNL     1     -33.412  25.458   5.668  0.00  0.00    -0.374 OA
ATOM     24  H   UNL     1     -32.538  25.178   5.353  0.00  0.00    +0.211 HD
ENDBRANCH  15  23
BRANCH  20  25
ATOM     25  O   UNL     1     -30.245  29.278   6.972  0.00  0.00    -0.505 OA
ATOM     26  H   UNL     1     -29.310  29.315   6.912  0.00  0.00    +0.292 HD
ENDBRANCH  20  25
BRANCH  21  27
ATOM     27  O   UNL     1     -31.284  32.582   3.728  0.00  0.00    -0.505 OA
ATOM     28  H   UNL     1     -30.781  33.215   4.203  0.00  0.00    +0.292 HD
ENDBRANCH  21  27
ENDBRANCH   8  14
BRANCH   5  29
ATOM     29  C   UNL     1     -37.721  23.426   2.382  0.00  0.00    -0.018 C 
ATOM     30  C   UNL     1     -38.965  23.959   2.052  0.00  0.00    +0.036 C 
ATOM     31  C   UNL     1     -37.475  22.064   2.214  0.00  0.00    -0.001 C 
ATOM     32  C   UNL     1     -39.968  23.128   1.553  0.00  0.00    +0.172 C 
ATOM     33  C   UNL     1     -38.478  21.232   1.715  0.00  0.00    +0.039 C 
ATOM     34  C   UNL     1     -39.724  21.765   1.384  0.00  0.00    +0.168 C 
BRANCH  32  35
ATOM     35  O   UNL     1     -41.181  23.659   1.233  0.00  0.00    -0.468 OA
ATOM     36  C   UNL     1     -41.351  25.059   1.443  0.00  0.00    +0.253 C 
ENDBRANCH  32  35
BRANCH  34  37
ATOM     37  O   UNL     1     -40.695  20.942   0.897  0.00  0.00    -0.503 OA
ATOM     38  H   UNL     1     -41.569  21.000   1.231  0.00  0.00    +0.292 HD
ENDBRANCH  34  37
ENDBRANCH   5  29
BRANCH   6  39
ATOM     39  O   UNL     1     -35.520  27.684   0.532  0.00  0.00    -0.358 OA
ATOM     40  H   UNL     1     -36.039  27.876  -0.264  0.00  0.00    +0.213 HD
ENDBRANCH   6  39
TORSDOF 8
ENDMDL
