MODEL 1
REMARK VINA RESULT:      -5.4      0.000      0.000
REMARK  Name = 196459
REMARK  4 active torsions:
REMARK  status: ('A' for Active; 'I' for Inactive)
REMARK    1  A    between atoms: N_1  and  C_12
REMARK    2  A    between atoms: C_13  and  O_16
REMARK    3  A    between atoms: C_15  and  C_18
REMARK    4  A    between atoms: C_18  and  O_19
REMARK                            x       y       z     vdW  Elec       q    Type
REMARK                         _______ _______ _______ _____ _____    ______ ____
ROOT
ATOM      1  N   UNL     1     -35.105  25.824   3.902  0.00  0.00    -0.248 N 
ATOM      2  N   UNL     1     -33.590  27.227   4.746  0.00  0.00    -0.242 NA
ATOM      3  N   UNL     1     -36.066  27.240   2.177  0.00  0.00    -0.228 NA
ATOM      4  N   UNL     1     -35.005  29.437   2.140  0.00  0.00    -0.229 NA
ATOM      5  C   UNL     1     -35.220  26.983   3.186  0.00  0.00    +0.152 C 
ATOM      6  C   UNL     1     -34.113  26.021   4.828  0.00  0.00    +0.223 C 
ATOM      7  C   UNL     1     -34.272  27.838   3.724  0.00  0.00    +0.140 C 
ATOM      8  C   UNL     1     -34.181  29.107   3.164  0.00  0.00    +0.143 C 
ATOM      9  C   UNL     1     -35.884  28.497   1.717  0.00  0.00    +0.253 C 
ATOM     10  N   UNL     1     -33.246  30.040   3.646  0.00  0.00    -0.342 N 
ATOM     11  H   UNL     1     -33.190  30.936   3.241  0.00  0.00    +0.144 HD
ATOM     12  H   UNL     1     -32.648  29.797   4.389  0.00  0.00    +0.144 HD
ENDROOT
BRANCH   1  15
ATOM     13  I   UNL     1     -35.070  23.597   0.942  0.00  0.00    -0.068 I 
ATOM     14  O   UNL     1     -36.284  24.110   5.022  0.00  0.00    -0.334 OA
ATOM     15  C   UNL     1     -35.886  24.602   3.725  0.00  0.00    +0.207 C 
ATOM     16  C   UNL     1     -35.924  22.253   3.575  0.00  0.00    +0.154 C 
ATOM     17  C   UNL     1     -35.147  23.450   3.045  0.00  0.00    +0.129 C 
ATOM     18  C   UNL     1     -36.211  22.667   5.018  0.00  0.00    +0.174 C 
BRANCH  16  19
ATOM     19  O   UNL     1     -37.177  22.119   2.906  0.00  0.00    -0.381 OA
ATOM     20  H   UNL     1     -37.890  22.422   3.490  0.00  0.00    +0.210 HD
ENDBRANCH  16  19
BRANCH  18  21
ATOM     21  C   UNL     1     -35.123  22.236   5.992  0.00  0.00    +0.169 C 
BRANCH  21  22
ATOM     22  O   UNL     1     -35.058  20.821   6.001  0.00  0.00    -0.379 OA
ATOM     23  H   UNL     1     -34.177  20.536   5.710  0.00  0.00    +0.211 HD
ENDBRANCH  21  22
ENDBRANCH  18  21
ENDBRANCH   1  15
TORSDOF 4
ENDMDL
MODEL 2
REMARK VINA RESULT:      -5.3      2.050      3.279
REMARK  Name = 196459
REMARK  4 active torsions:
REMARK  status: ('A' for Active; 'I' for Inactive)
REMARK    1  A    between atoms: N_1  and  C_12
REMARK    2  A    between atoms: C_13  and  O_16
REMARK    3  A    between atoms: C_15  and  C_18
REMARK    4  A    between atoms: C_18  and  O_19
REMARK                            x       y       z     vdW  Elec       q    Type
REMARK                         _______ _______ _______ _____ _____    ______ ____
ROOT
ATOM      1  N   UNL     1     -35.552  24.741   2.674  0.00  0.00    -0.248 N 
ATOM      2  N   UNL     1     -36.560  26.694   2.293  0.00  0.00    -0.242 NA
ATOM      3  N   UNL     1     -33.528  25.524   3.765  0.00  0.00    -0.228 NA
ATOM      4  N   UNL     1     -33.503  27.958   3.946  0.00  0.00    -0.229 NA
ATOM      5  C   UNL     1     -34.717  25.703   3.168  0.00  0.00    +0.152 C 
ATOM      6  C   UNL     1     -36.646  25.387   2.158  0.00  0.00    +0.223 C 
ATOM      7  C   UNL     1     -35.360  26.905   2.923  0.00  0.00    +0.140 C 
ATOM      8  C   UNL     1     -34.708  28.062   3.336  0.00  0.00    +0.143 C 
ATOM      9  C   UNL     1     -32.995  26.714   4.119  0.00  0.00    +0.253 C 
ATOM     10  N   UNL     1     -35.288  29.325   3.129  0.00  0.00    -0.342 N 
ATOM     11  H   UNL     1     -34.818  30.138   3.426  0.00  0.00    +0.144 HD
ATOM     12  H   UNL     1     -36.165  29.398   2.686  0.00  0.00    +0.144 HD
ENDROOT
BRANCH   1  15
ATOM     13  I   UNL     1     -35.272  22.581   5.670  0.00  0.00    -0.068 I 
ATOM     14  O   UNL     1     -35.734  22.753   1.411  0.00  0.00    -0.334 OA
ATOM     15  C   UNL     1     -35.333  23.297   2.686  0.00  0.00    +0.207 C 
ATOM     16  C   UNL     1     -36.188  21.144   3.108  0.00  0.00    +0.154 C 
ATOM     17  C   UNL     1     -36.126  22.527   3.742  0.00  0.00    +0.129 C 
ATOM     18  C   UNL     1     -36.374  21.475   1.628  0.00  0.00    +0.174 C 
BRANCH  16  19
ATOM     19  O   UNL     1     -34.943  20.461   3.246  0.00  0.00    -0.381 OA
ATOM     20  H   UNL     1     -34.675  20.101   2.386  0.00  0.00    +0.210 HD
ENDBRANCH  16  19
BRANCH  18  21
ATOM     21  C   UNL     1     -37.836  21.592   1.220  0.00  0.00    +0.169 C 
BRANCH  21  22
ATOM     22  O   UNL     1     -38.623  20.854   2.137  0.00  0.00    -0.379 OA
ATOM     23  H   UNL     1     -38.400  21.119   3.043  0.00  0.00    +0.211 HD
ENDBRANCH  21  22
ENDBRANCH  18  21
ENDBRANCH   1  15
TORSDOF 4
ENDMDL
MODEL 3
REMARK VINA RESULT:      -5.3      3.963      5.859
REMARK  Name = 196459
REMARK  4 active torsions:
REMARK  status: ('A' for Active; 'I' for Inactive)
REMARK    1  A    between atoms: N_1  and  C_12
REMARK    2  A    between atoms: C_13  and  O_16
REMARK    3  A    between atoms: C_15  and  C_18
REMARK    4  A    between atoms: C_18  and  O_19
REMARK                            x       y       z     vdW  Elec       q    Type
REMARK                         _______ _______ _______ _____ _____    ______ ____
ROOT
ATOM      1  N   UNL     1     -35.667  21.402   2.347  0.00  0.00    -0.248 N 
ATOM      2  N   UNL     1     -36.211  23.565   2.407  0.00  0.00    -0.242 NA
ATOM      3  N   UNL     1     -35.286  21.005   4.713  0.00  0.00    -0.228 NA
ATOM      4  N   UNL     1     -35.647  23.032   6.023  0.00  0.00    -0.229 NA
ATOM      5  C   UNL     1     -35.606  21.774   3.661  0.00  0.00    +0.152 C 
ATOM      6  C   UNL     1     -36.035  22.514   1.633  0.00  0.00    +0.223 C 
ATOM      7  C   UNL     1     -35.947  23.116   3.676  0.00  0.00    +0.140 C 
ATOM      8  C   UNL     1     -35.960  23.747   4.915  0.00  0.00    +0.143 C 
ATOM      9  C   UNL     1     -35.332  21.725   5.855  0.00  0.00    +0.253 C 
ATOM     10  N   UNL     1     -36.296  25.108   5.025  0.00  0.00    -0.342 N 
ATOM     11  H   UNL     1     -36.303  25.544   5.908  0.00  0.00    +0.144 HD
ATOM     12  H   UNL     1     -36.524  25.624   4.219  0.00  0.00    +0.144 HD
ENDROOT
BRANCH   1  15
ATOM     13  I   UNL     1     -37.526  19.730  -0.386  0.00  0.00    -0.068 I 
ATOM     14  O   UNL     1     -34.030  19.718   2.096  0.00  0.00    -0.334 OA
ATOM     15  C   UNL     1     -35.395  20.078   1.795  0.00  0.00    +0.207 C 
ATOM     16  C   UNL     1     -34.624  18.779  -0.011  0.00  0.00    +0.154 C 
ATOM     17  C   UNL     1     -35.538  19.962   0.278  0.00  0.00    +0.129 C 
ATOM     18  C   UNL     1     -33.471  19.016   0.964  0.00  0.00    +0.174 C 
BRANCH  16  19
ATOM     19  O   UNL     1     -35.250  17.548   0.350  0.00  0.00    -0.381 OA
ATOM     20  H   UNL     1     -34.943  17.275   1.228  0.00  0.00    +0.210 HD
ENDBRANCH  16  19
BRANCH  18  21
ATOM     21  C   UNL     1     -32.353  19.865   0.373  0.00  0.00    +0.169 C 
BRANCH  21  22
ATOM     22  O   UNL     1     -31.145  19.128   0.432  0.00  0.00    -0.379 OA
ATOM     23  H   UNL     1     -30.617  19.433   1.187  0.00  0.00    +0.211 HD
ENDBRANCH  21  22
ENDBRANCH  18  21
ENDBRANCH   1  15
TORSDOF 4
ENDMDL
MODEL 4
REMARK VINA RESULT:      -5.3      1.369      2.447
REMARK  Name = 196459
REMARK  4 active torsions:
REMARK  status: ('A' for Active; 'I' for Inactive)
REMARK    1  A    between atoms: N_1  and  C_12
REMARK    2  A    between atoms: C_13  and  O_16
REMARK    3  A    between atoms: C_15  and  C_18
REMARK    4  A    between atoms: C_18  and  O_19
REMARK                            x       y       z     vdW  Elec       q    Type
REMARK                         _______ _______ _______ _____ _____    ______ ____
ROOT
ATOM      1  N   UNL     1     -36.368  24.640   2.810  0.00  0.00    -0.248 N 
ATOM      2  N   UNL     1     -36.898  26.701   2.140  0.00  0.00    -0.242 NA
ATOM      3  N   UNL     1     -34.397  25.131   4.142  0.00  0.00    -0.228 NA
ATOM      4  N   UNL     1     -33.905  27.521   4.152  0.00  0.00    -0.229 NA
ATOM      5  C   UNL     1     -35.431  25.470   3.358  0.00  0.00    +0.152 C 
ATOM      6  C   UNL     1     -37.227  25.427   2.087  0.00  0.00    +0.223 C 
ATOM      7  C   UNL     1     -35.778  26.742   2.932  0.00  0.00    +0.140 C 
ATOM      8  C   UNL     1     -34.969  27.790   3.357  0.00  0.00    +0.143 C 
ATOM      9  C   UNL     1     -33.688  26.227   4.490  0.00  0.00    +0.253 C 
ATOM     10  N   UNL     1     -35.248  29.113   2.974  0.00  0.00    -0.342 N 
ATOM     11  H   UNL     1     -34.668  29.848   3.282  0.00  0.00    +0.144 HD
ATOM     12  H   UNL     1     -36.022  29.306   2.398  0.00  0.00    +0.144 HD
ENDROOT
BRANCH   1  15
ATOM     13  I   UNL     1     -35.068  22.108   0.440  0.00  0.00    -0.068 I 
ATOM     14  O   UNL     1     -36.645  22.873   4.352  0.00  0.00    -0.334 OA
ATOM     15  C   UNL     1     -36.449  23.189   2.958  0.00  0.00    +0.207 C 
ATOM     16  C   UNL     1     -35.339  21.150   3.351  0.00  0.00    +0.154 C 
ATOM     17  C   UNL     1     -35.203  22.419   2.521  0.00  0.00    +0.129 C 
ATOM     18  C   UNL     1     -35.885  21.686   4.674  0.00  0.00    +0.174 C 
BRANCH  16  19
ATOM     19  O   UNL     1     -36.326  20.279   2.798  0.00  0.00    -0.381 OA
ATOM     20  H   UNL     1     -35.939  19.780   2.062  0.00  0.00    +0.210 HD
ENDBRANCH  16  19
BRANCH  18  21
ATOM     21  C   UNL     1     -34.791  22.067   5.662  0.00  0.00    +0.169 C 
BRANCH  21  22
ATOM     22  O   UNL     1     -35.155  23.280   6.296  0.00  0.00    -0.379 OA
ATOM     23  H   UNL     1     -36.120  23.374   6.287  0.00  0.00    +0.211 HD
ENDBRANCH  21  22
ENDBRANCH  18  21
ENDBRANCH   1  15
TORSDOF 4
ENDMDL
MODEL 5
REMARK VINA RESULT:      -5.2      2.562      3.809
REMARK  Name = 196459
REMARK  4 active torsions:
REMARK  status: ('A' for Active; 'I' for Inactive)
REMARK    1  A    between atoms: N_1  and  C_12
REMARK    2  A    between atoms: C_13  and  O_16
REMARK    3  A    between atoms: C_15  and  C_18
REMARK    4  A    between atoms: C_18  and  O_19
REMARK                            x       y       z     vdW  Elec       q    Type
REMARK                         _______ _______ _______ _____ _____    ______ ____
ROOT
ATOM      1  N   UNL     1     -35.932  23.806   2.466  0.00  0.00    -0.248 N 
ATOM      2  N   UNL     1     -35.911  25.867   1.612  0.00  0.00    -0.242 NA
ATOM      3  N   UNL     1     -35.256  24.296   4.747  0.00  0.00    -0.228 NA
ATOM      4  N   UNL     1     -34.878  26.686   5.067  0.00  0.00    -0.229 NA
ATOM      5  C   UNL     1     -35.555  24.636   3.485  0.00  0.00    +0.152 C 
ATOM      6  C   UNL     1     -36.134  24.593   1.362  0.00  0.00    +0.223 C 
ATOM      7  C   UNL     1     -35.550  25.907   2.935  0.00  0.00    +0.140 C 
ATOM      8  C   UNL     1     -35.193  26.955   3.778  0.00  0.00    +0.143 C 
ATOM      9  C   UNL     1     -34.927  25.392   5.467  0.00  0.00    +0.253 C 
ATOM     10  N   UNL     1     -35.162  28.278   3.305  0.00  0.00    -0.342 N 
ATOM     11  H   UNL     1     -34.909  29.012   3.910  0.00  0.00    +0.144 HD
ATOM     12  H   UNL     1     -35.393  28.471   2.367  0.00  0.00    +0.144 HD
ENDROOT
BRANCH   1  15
ATOM     13  I   UNL     1     -39.020  21.897   1.731  0.00  0.00    -0.068 I 
ATOM     14  O   UNL     1     -34.792  21.738   2.426  0.00  0.00    -0.334 OA
ATOM     15  C   UNL     1     -36.092  22.356   2.529  0.00  0.00    +0.207 C 
ATOM     16  C   UNL     1     -36.399  20.322   1.383  0.00  0.00    +0.154 C 
ATOM     17  C   UNL     1     -36.940  21.745   1.414  0.00  0.00    +0.129 C 
ATOM     18  C   UNL     1     -34.906  20.539   1.628  0.00  0.00    +0.174 C 
BRANCH  16  19
ATOM     19  O   UNL     1     -36.910  19.556   2.475  0.00  0.00    -0.381 OA
ATOM     20  H   UNL     1     -37.879  19.569   2.452  0.00  0.00    +0.210 HD
ENDBRANCH  16  19
BRANCH  18  21
ATOM     21  C   UNL     1     -34.113  20.736   0.343  0.00  0.00    +0.169 C 
BRANCH  21  22
ATOM     22  O   UNL     1     -32.771  20.346   0.575  0.00  0.00    -0.379 OA
ATOM     23  H   UNL     1     -32.250  20.483  -0.232  0.00  0.00    +0.211 HD
ENDBRANCH  21  22
ENDBRANCH  18  21
ENDBRANCH   1  15
TORSDOF 4
ENDMDL
MODEL 6
REMARK VINA RESULT:      -5.2      3.600      5.497
REMARK  Name = 196459
REMARK  4 active torsions:
REMARK  status: ('A' for Active; 'I' for Inactive)
REMARK    1  A    between atoms: N_1  and  C_12
REMARK    2  A    between atoms: C_13  and  O_16
REMARK    3  A    between atoms: C_15  and  C_18
REMARK    4  A    between atoms: C_18  and  O_19
REMARK                            x       y       z     vdW  Elec       q    Type
REMARK                         _______ _______ _______ _____ _____    ______ ____
ROOT
ATOM      1  N   UNL     1     -36.936  24.777   3.930  0.00  0.00    -0.248 N 
ATOM      2  N   UNL     1     -35.708  24.197   5.699  0.00  0.00    -0.242 NA
ATOM      3  N   UNL     1     -36.857  22.701   2.671  0.00  0.00    -0.228 NA
ATOM      4  N   UNL     1     -35.544  21.006   3.836  0.00  0.00    -0.229 NA
ATOM      5  C   UNL     1     -36.558  23.481   3.721  0.00  0.00    +0.152 C 
ATOM      6  C   UNL     1     -36.400  25.163   5.132  0.00  0.00    +0.223 C 
ATOM      7  C   UNL     1     -35.799  23.140   4.829  0.00  0.00    +0.140 C 
ATOM      8  C   UNL     1     -35.283  21.849   4.864  0.00  0.00    +0.143 C 
ATOM      9  C   UNL     1     -36.303  21.478   2.818  0.00  0.00    +0.253 C 
ATOM     10  N   UNL     1     -34.503  21.417   5.951  0.00  0.00    -0.342 N 
ATOM     11  H   UNL     1     -34.143  20.501   5.966  0.00  0.00    +0.144 HD
ATOM     12  H   UNL     1     -34.315  22.032   6.697  0.00  0.00    +0.144 HD
ENDROOT
BRANCH   1  15
ATOM     13  I   UNL     1     -35.714  26.970   1.206  0.00  0.00    -0.068 I 
ATOM     14  O   UNL     1     -39.102  25.088   3.040  0.00  0.00    -0.334 OA
ATOM     15  C   UNL     1     -37.755  25.605   3.049  0.00  0.00    +0.207 C 
ATOM     16  C   UNL     1     -38.615  25.993   0.891  0.00  0.00    +0.154 C 
ATOM     17  C   UNL     1     -37.307  25.641   1.588  0.00  0.00    +0.129 C 
ATOM     18  C   UNL     1     -39.637  25.197   1.703  0.00  0.00    +0.174 C 
BRANCH  16  19
ATOM     19  O   UNL     1     -38.923  27.378   1.048  0.00  0.00    -0.381 OA
ATOM     20  H   UNL     1     -38.147  27.844   1.396  0.00  0.00    +0.210 HD
ENDBRANCH  16  19
BRANCH  18  21
ATOM     21  C   UNL     1     -39.869  23.793   1.160  0.00  0.00    +0.169 C 
BRANCH  21  22
ATOM     22  O   UNL     1     -40.056  22.910   2.251  0.00  0.00    -0.379 OA
ATOM     23  H   UNL     1     -40.332  22.041   1.921  0.00  0.00    +0.211 HD
ENDBRANCH  21  22
ENDBRANCH  18  21
ENDBRANCH   1  15
TORSDOF 4
ENDMDL
MODEL 7
REMARK VINA RESULT:      -5.2      3.019      4.360
REMARK  Name = 196459
REMARK  4 active torsions:
REMARK  status: ('A' for Active; 'I' for Inactive)
REMARK    1  A    between atoms: N_1  and  C_12
REMARK    2  A    between atoms: C_13  and  O_16
REMARK    3  A    between atoms: C_15  and  C_18
REMARK    4  A    between atoms: C_18  and  O_19
REMARK                            x       y       z     vdW  Elec       q    Type
REMARK                         _______ _______ _______ _____ _____    ______ ____
ROOT
ATOM      1  N   UNL     1     -37.423  24.831   2.629  0.00  0.00    -0.248 N 
ATOM      2  N   UNL     1     -37.317  26.007   0.737  0.00  0.00    -0.242 NA
ATOM      3  N   UNL     1     -39.715  25.304   3.283  0.00  0.00    -0.228 NA
ATOM      4  N   UNL     1     -40.813  26.769   1.670  0.00  0.00    -0.229 NA
ATOM      5  C   UNL     1     -38.651  25.411   2.472  0.00  0.00    +0.152 C 
ATOM      6  C   UNL     1     -36.657  25.220   1.561  0.00  0.00    +0.223 C 
ATOM      7  C   UNL     1     -38.564  26.134   1.294  0.00  0.00    +0.140 C 
ATOM      8  C   UNL     1     -39.701  26.831   0.899  0.00  0.00    +0.143 C 
ATOM      9  C   UNL     1     -40.752  26.021   2.798  0.00  0.00    +0.253 C 
ATOM     10  N   UNL     1     -39.703  27.590  -0.284  0.00  0.00    -0.342 N 
ATOM     11  H   UNL     1     -40.514  28.080  -0.554  0.00  0.00    +0.144 HD
ATOM     12  H   UNL     1     -38.894  27.632  -0.843  0.00  0.00    +0.144 HD
ENDROOT
BRANCH   1  15
ATOM     13  I   UNL     1     -35.930  21.457   2.306  0.00  0.00    -0.068 I 
ATOM     14  O   UNL     1     -36.768  24.768   4.898  0.00  0.00    -0.334 OA
ATOM     15  C   UNL     1     -36.996  23.962   3.722  0.00  0.00    +0.207 C 
ATOM     16  C   UNL     1     -35.229  22.949   4.904  0.00  0.00    +0.154 C 
ATOM     17  C   UNL     1     -35.697  23.196   3.476  0.00  0.00    +0.129 C 
ATOM     18  C   UNL     1     -35.614  24.255   5.600  0.00  0.00    +0.174 C 
BRANCH  16  19
ATOM     19  O   UNL     1     -35.977  21.897   5.513  0.00  0.00    -0.381 OA
ATOM     20  H   UNL     1     -36.330  22.202   6.363  0.00  0.00    +0.210 HD
ENDBRANCH  16  19
BRANCH  18  21
ATOM     21  C   UNL     1     -34.513  25.305   5.553  0.00  0.00    +0.169 C 
BRANCH  21  22
ATOM     22  O   UNL     1     -35.100  26.566   5.293  0.00  0.00    -0.379 OA
ATOM     23  H   UNL     1     -35.385  26.607   4.367  0.00  0.00    +0.211 HD
ENDBRANCH  21  22
ENDBRANCH  18  21
ENDBRANCH   1  15
TORSDOF 4
ENDMDL
MODEL 8
REMARK VINA RESULT:      -5.1      4.172      6.506
REMARK  Name = 196459
REMARK  4 active torsions:
REMARK  status: ('A' for Active; 'I' for Inactive)
REMARK    1  A    between atoms: N_1  and  C_12
REMARK    2  A    between atoms: C_13  and  O_16
REMARK    3  A    between atoms: C_15  and  C_18
REMARK    4  A    between atoms: C_18  and  O_19
REMARK                            x       y       z     vdW  Elec       q    Type
REMARK                         _______ _______ _______ _____ _____    ______ ____
ROOT
ATOM      1  N   UNL     1     -36.708  22.174   2.337  0.00  0.00    -0.248 N 
ATOM      2  N   UNL     1     -38.510  21.169   1.491  0.00  0.00    -0.242 NA
ATOM      3  N   UNL     1     -34.964  20.820   1.322  0.00  0.00    -0.228 NA
ATOM      4  N   UNL     1     -35.909  19.067  -0.088  0.00  0.00    -0.229 NA
ATOM      5  C   UNL     1     -36.242  21.158   1.550  0.00  0.00    +0.152 C 
ATOM      6  C   UNL     1     -38.077  22.139   2.268  0.00  0.00    +0.223 C 
ATOM      7  C   UNL     1     -37.374  20.548   1.035  0.00  0.00    +0.140 C 
ATOM      8  C   UNL     1     -37.175  19.464   0.187  0.00  0.00    +0.143 C 
ATOM      9  C   UNL     1     -34.896  19.759   0.489  0.00  0.00    +0.253 C 
ATOM     10  N   UNL     1     -38.267  18.787  -0.382  0.00  0.00    -0.342 N 
ATOM     11  H   UNL     1     -38.113  18.020  -0.981  0.00  0.00    +0.144 HD
ATOM     12  H   UNL     1     -39.185  19.078  -0.181  0.00  0.00    +0.144 HD
ENDROOT
BRANCH   1  15
ATOM     13  I   UNL     1     -37.529  25.727   2.987  0.00  0.00    -0.068 I 
ATOM     14  O   UNL     1     -35.033  22.388   3.988  0.00  0.00    -0.334 OA
ATOM     15  C   UNL     1     -35.909  23.123   3.108  0.00  0.00    +0.207 C 
ATOM     16  C   UNL     1     -35.669  24.418   5.060  0.00  0.00    +0.154 C 
ATOM     17  C   UNL     1     -36.708  24.070   4.002  0.00  0.00    +0.129 C 
ATOM     18  C   UNL     1     -34.944  23.086   5.250  0.00  0.00    +0.174 C 
BRANCH  16  19
ATOM     19  O   UNL     1     -34.721  25.359   4.556  0.00  0.00    -0.381 OA
ATOM     20  H   UNL     1     -34.637  25.250   3.596  0.00  0.00    +0.210 HD
ENDBRANCH  16  19
BRANCH  18  21
ATOM     21  C   UNL     1     -35.570  22.214   6.330  0.00  0.00    +0.169 C 
BRANCH  21  22
ATOM     22  O   UNL     1     -35.468  20.859   5.933  0.00  0.00    -0.379 OA
ATOM     23  H   UNL     1     -34.858  20.785   5.182  0.00  0.00    +0.211 HD
ENDBRANCH  21  22
ENDBRANCH  18  21
ENDBRANCH   1  15
TORSDOF 4
ENDMDL
MODEL 9
REMARK VINA RESULT:      -5.1      2.441      3.914
REMARK  Name = 196459
REMARK  4 active torsions:
REMARK  status: ('A' for Active; 'I' for Inactive)
REMARK    1  A    between atoms: N_1  and  C_12
REMARK    2  A    between atoms: C_13  and  O_16
REMARK    3  A    between atoms: C_15  and  C_18
REMARK    4  A    between atoms: C_18  and  O_19
REMARK                            x       y       z     vdW  Elec       q    Type
REMARK                         _______ _______ _______ _____ _____    ______ ____
ROOT
ATOM      1  N   UNL     1     -37.852  24.765   2.197  0.00  0.00    -0.248 N 
ATOM      2  N   UNL     1     -39.303  25.452   0.649  0.00  0.00    -0.242 NA
ATOM      3  N   UNL     1     -36.421  26.724   2.323  0.00  0.00    -0.228 NA
ATOM      4  N   UNL     1     -37.167  28.468   0.788  0.00  0.00    -0.229 NA
ATOM      5  C   UNL     1     -37.462  26.027   1.844  0.00  0.00    +0.152 C 
ATOM      6  C   UNL     1     -38.962  24.465   1.451  0.00  0.00    +0.223 C 
ATOM      7  C   UNL     1     -38.374  26.434   0.885  0.00  0.00    +0.140 C 
ATOM      8  C   UNL     1     -38.199  27.706   0.351  0.00  0.00    +0.143 C 
ATOM      9  C   UNL     1     -36.353  27.937   1.732  0.00  0.00    +0.253 C 
ATOM     10  N   UNL     1     -39.079  28.202  -0.626  0.00  0.00    -0.342 N 
ATOM     11  H   UNL     1     -38.945  29.105  -0.997  0.00  0.00    +0.144 HD
ATOM     12  H   UNL     1     -39.828  27.647  -0.941  0.00  0.00    +0.144 HD
ENDROOT
BRANCH   1  15
ATOM     13  I   UNL     1     -35.302  22.168   1.512  0.00  0.00    -0.068 I 
ATOM     14  O   UNL     1     -37.328  24.498   4.485  0.00  0.00    -0.334 OA
ATOM     15  C   UNL     1     -37.215  23.893   3.180  0.00  0.00    +0.207 C 
ATOM     16  C   UNL     1     -35.273  23.300   4.373  0.00  0.00    +0.154 C 
ATOM     17  C   UNL     1     -35.723  23.642   2.959  0.00  0.00    +0.129 C 
ATOM     18  C   UNL     1     -36.107  24.261   5.220  0.00  0.00    +0.174 C 
BRANCH  16  19
ATOM     19  O   UNL     1     -35.656  21.970   4.724  0.00  0.00    -0.381 OA
ATOM     20  H   UNL     1     -34.925  21.535   5.189  0.00  0.00    +0.210 HD
ENDBRANCH  16  19
BRANCH  18  21
ATOM     21  C   UNL     1     -35.419  25.598   5.458  0.00  0.00    +0.169 C 
BRANCH  21  22
ATOM     22  O   UNL     1     -36.375  26.632   5.310  0.00  0.00    -0.379 OA
ATOM     23  H   UNL     1     -36.312  27.242   6.062  0.00  0.00    +0.211 HD
ENDBRANCH  21  22
ENDBRANCH  18  21
ENDBRANCH   1  15
TORSDOF 4
ENDMDL
