MODEL 1
REMARK VINA RESULT:      -6.0      0.000      0.000
REMARK  Name = 53465571
REMARK  10 active torsions:
REMARK  status: ('A' for Active; 'I' for Inactive)
REMARK    1  A    between atoms: N_2  and  CA_18
REMARK    2  A    between atoms: C_3  and  CA_8
REMARK    3  A    between atoms: C_9  and  C_16
REMARK    4  A    between atoms: C_10  and  C_13
REMARK    5  A    between atoms: CA_18  and  C_21
REMARK    6  A    between atoms: CA_18  and  CB_29
REMARK    7  A    between atoms: N_20  and  CA_23
REMARK    8  A    between atoms: CA_23  and  C_26
REMARK    9  A    between atoms: C_26  and  O_27
REMARK   10  A    between atoms: CB_29  and  CG_30
REMARK                            x       y       z     vdW  Elec       q    Type
REMARK                         _______ _______ _______ _____ _____    ______ ____
ROOT
ATOM      1  O   UNL     1     -37.092  25.897   3.766  0.00  0.00    -0.268 OA
ATOM      2  N   UNL     1     -34.839  25.928   3.161  0.00  0.00    -0.293 N 
ATOM      3  C   UNL     1     -36.064  25.333   3.405  0.00  0.00    +0.273 C 
ATOM      4  H   UNL     1     -34.090  25.357   2.874  0.00  0.00    +0.150 HD
ENDROOT
BRANCH   3   8
ATOM      5  O   UNL     1     -35.967  19.994   2.329  0.00  0.00    -0.268 OA
ATOM      6  N   UNL     1     -35.753  21.676   3.911  0.00  0.00    -0.294 N 
ATOM      7  N   UNL     1     -36.296  23.491   1.889  0.00  0.00    -0.400 NA
ATOM      8  CA  UNL     1     -36.046  23.876   3.185  0.00  0.00    +0.179 C 
ATOM      9  C   UNL     1     -35.783  23.023   4.194  0.00  0.00    +0.129 C 
ATOM     10  C   UNL     1     -36.272  22.226   1.611  0.00  0.00    +0.161 C 
ATOM     11  C   UNL     1     -35.981  21.172   2.653  0.00  0.00    +0.272 C 
ATOM     12  H   UNL     1     -35.560  21.045   4.642  0.00  0.00    +0.150 HD
BRANCH  10  13
ATOM     13  C   UNL     1     -36.538  21.753   0.212  0.00  0.00    +0.057 C 
ATOM     14  C   UNL     1     -35.832  22.669  -0.777  0.00  0.00    +0.008 C 
ATOM     15  C   UNL     1     -38.040  21.725  -0.022  0.00  0.00    +0.008 C 
ENDBRANCH  10  13
BRANCH   9  16
ATOM     16  C   UNL     1     -35.523  23.355   5.635  0.00  0.00    +0.027 C 
ATOM     17  C   UNL     1     -35.278  22.108   6.461  0.00  0.00    +0.002 C 
ENDBRANCH   9  16
ENDBRANCH   3   8
BRANCH   2  18
ATOM     18  CA  UNL     1     -34.605  27.342   3.306  0.00  0.00    +0.149 C 
BRANCH  18  21
ATOM     19  O   UNL     1     -32.332  26.647   3.784  0.00  0.00    -0.273 OA
ATOM     20  N   UNL     1     -33.029  28.751   4.476  0.00  0.00    -0.295 N 
ATOM     21  C   ACE A   1     -33.203  27.508   3.883  0.00  0.00    +0.241 C 
ATOM     22  H   UNL     1     -33.795  29.369   4.503  0.00  0.00    +0.150 HD
BRANCH  20  23
ATOM     23  CA  UNL     1     -31.778  29.183   5.055  0.00  0.00    +0.171 C 
ATOM     24  CB  UNL     1     -31.615  30.690   4.917  0.00  0.00    +0.033 C 
BRANCH  23  26
ATOM     25  OXT UNL     1     -31.705  29.573   7.441  0.00  0.00    -0.248 OA
ATOM     26  C   UNL     1     -31.661  28.771   6.514  0.00  0.00    +0.332 C 
BRANCH  26  27
ATOM     27  O   UNL     1     -31.492  27.442   6.715  0.00  0.00    -0.479 OA
ATOM     28  H   UNL     1     -31.766  26.831   6.060  0.00  0.00    +0.295 HD
ENDBRANCH  26  27
ENDBRANCH  23  26
ENDBRANCH  20  23
ENDBRANCH  18  21
BRANCH  18  29
ATOM     29  CB  UNL     1     -34.722  28.090   1.972  0.00  0.00    +0.029 C 
BRANCH  29  30
ATOM     30  CG  UNL     1     -35.866  29.122   1.907  0.00  0.00    +0.002 C 
ATOM     31  CD1 UNL     1     -36.308  29.312   0.453  0.00  0.00    +0.000 C 
ATOM     32  CD2 UNL     1     -35.467  30.472   2.504  0.00  0.00    +0.000 C 
ENDBRANCH  29  30
ENDBRANCH  18  29
ENDBRANCH   2  18
TORSDOF 10
ENDMDL
MODEL 2
REMARK VINA RESULT:      -6.0      1.749      1.956
REMARK  Name = 53465571
REMARK  10 active torsions:
REMARK  status: ('A' for Active; 'I' for Inactive)
REMARK    1  A    between atoms: N_2  and  CA_18
REMARK    2  A    between atoms: C_3  and  CA_8
REMARK    3  A    between atoms: C_9  and  C_16
REMARK    4  A    between atoms: C_10  and  C_13
REMARK    5  A    between atoms: CA_18  and  C_21
REMARK    6  A    between atoms: CA_18  and  CB_29
REMARK    7  A    between atoms: N_20  and  CA_23
REMARK    8  A    between atoms: CA_23  and  C_26
REMARK    9  A    between atoms: C_26  and  O_27
REMARK   10  A    between atoms: CB_29  and  CG_30
REMARK                            x       y       z     vdW  Elec       q    Type
REMARK                         _______ _______ _______ _____ _____    ______ ____
ROOT
ATOM      1  O   UNL     1     -36.020  26.369   5.603  0.00  0.00    -0.268 OA
ATOM      2  N   UNL     1     -35.190  26.770   3.460  0.00  0.00    -0.293 N 
ATOM      3  C   UNL     1     -35.884  26.060   4.425  0.00  0.00    +0.273 C 
ATOM      4  H   UNL     1     -35.159  26.409   2.545  0.00  0.00    +0.150 HD
ENDROOT
BRANCH   3   8
ATOM      5  O   UNL     1     -38.203  21.628   2.269  0.00  0.00    -0.268 OA
ATOM      6  N   UNL     1     -36.685  22.499   3.790  0.00  0.00    -0.294 N 
ATOM      7  N   UNL     1     -37.440  25.021   2.928  0.00  0.00    -0.400 NA
ATOM      8  CA  UNL     1     -36.488  24.824   3.899  0.00  0.00    +0.179 C 
ATOM      9  C   UNL     1     -36.099  23.613   4.347  0.00  0.00    +0.129 C 
ATOM     10  C   UNL     1     -38.000  23.980   2.398  0.00  0.00    +0.161 C 
ATOM     11  C   UNL     1     -37.644  22.570   2.808  0.00  0.00    +0.272 C 
ATOM     12  H   UNL     1     -36.405  21.610   4.110  0.00  0.00    +0.150 HD
BRANCH  10  13
ATOM     13  C   UNL     1     -39.046  24.141   1.334  0.00  0.00    +0.057 C 
ATOM     14  C   UNL     1     -38.636  25.256   0.383  0.00  0.00    +0.008 C 
ATOM     15  C   UNL     1     -40.384  24.431   1.996  0.00  0.00    +0.008 C 
ENDBRANCH  10  13
BRANCH   9  16
ATOM     16  C   UNL     1     -35.088  23.310   5.414  0.00  0.00    +0.027 C 
ATOM     17  C   UNL     1     -35.497  22.111   6.247  0.00  0.00    +0.002 C 
ENDBRANCH   9  16
ENDBRANCH   3   8
BRANCH   2  18
ATOM     18  CA  UNL     1     -34.514  28.013   3.729  0.00  0.00    +0.149 C 
BRANCH  18  21
ATOM     19  O   UNL     1     -32.492  26.678   3.629  0.00  0.00    -0.273 OA
ATOM     20  N   UNL     1     -32.481  28.634   4.881  0.00  0.00    -0.295 N 
ATOM     21  C   ACE A   1     -33.066  27.671   4.070  0.00  0.00    +0.241 C 
ATOM     22  H   UNL     1     -33.033  29.393   5.179  0.00  0.00    +0.150 HD
BRANCH  20  23
ATOM     23  CA  UNL     1     -31.102  28.577   5.308  0.00  0.00    +0.171 C 
ATOM     24  CB  UNL     1     -30.200  29.272   4.299  0.00  0.00    +0.033 C 
BRANCH  23  26
ATOM     25  OXT UNL     1     -31.811  29.778   7.284  0.00  0.00    -0.248 OA
ATOM     26  C   UNL     1     -30.916  29.184   6.689  0.00  0.00    +0.332 C 
BRANCH  26  27
ATOM     27  O   UNL     1     -29.677  29.029   7.214  0.00  0.00    -0.479 OA
ATOM     28  H   UNL     1     -29.503  29.307   8.092  0.00  0.00    +0.295 HD
ENDBRANCH  26  27
ENDBRANCH  23  26
ENDBRANCH  20  23
ENDBRANCH  18  21
BRANCH  18  29
ATOM     29  CB  UNL     1     -34.565  28.974   2.535  0.00  0.00    +0.029 C 
BRANCH  29  30
ATOM     30  CG  UNL     1     -35.008  30.411   2.879  0.00  0.00    +0.002 C 
ATOM     31  CD1 UNL     1     -36.093  30.866   1.899  0.00  0.00    +0.000 C 
ATOM     32  CD2 UNL     1     -33.844  31.401   2.854  0.00  0.00    +0.000 C 
ENDBRANCH  29  30
ENDBRANCH  18  29
ENDBRANCH   2  18
TORSDOF 10
ENDMDL
MODEL 3
REMARK VINA RESULT:      -5.9      4.753      8.813
REMARK  Name = 53465571
REMARK  10 active torsions:
REMARK  status: ('A' for Active; 'I' for Inactive)
REMARK    1  A    between atoms: N_2  and  CA_18
REMARK    2  A    between atoms: C_3  and  CA_8
REMARK    3  A    between atoms: C_9  and  C_16
REMARK    4  A    between atoms: C_10  and  C_13
REMARK    5  A    between atoms: CA_18  and  C_21
REMARK    6  A    between atoms: CA_18  and  CB_29
REMARK    7  A    between atoms: N_20  and  CA_23
REMARK    8  A    between atoms: CA_23  and  C_26
REMARK    9  A    between atoms: C_26  and  O_27
REMARK   10  A    between atoms: CB_29  and  CG_30
REMARK                            x       y       z     vdW  Elec       q    Type
REMARK                         _______ _______ _______ _____ _____    ______ ____
ROOT
ATOM      1  O   UNL     1     -35.170  20.329   3.674  0.00  0.00    -0.268 OA
ATOM      2  N   UNL     1     -35.003  21.014   1.450  0.00  0.00    -0.293 N 
ATOM      3  C   UNL     1     -35.439  21.102   2.760  0.00  0.00    +0.273 C 
ATOM      4  H   UNL     1     -35.294  21.705   0.812  0.00  0.00    +0.150 HD
ENDROOT
BRANCH   3   8
ATOM      5  O   UNL     1     -38.830  25.304   3.478  0.00  0.00    -0.268 OA
ATOM      6  N   UNL     1     -36.957  24.154   4.214  0.00  0.00    -0.294 N 
ATOM      7  N   UNL     1     -37.332  22.411   2.093  0.00  0.00    -0.400 NA
ATOM      8  CA  UNL     1     -36.306  22.270   2.996  0.00  0.00    +0.179 C 
ATOM      9  C   UNL     1     -36.089  23.099   4.036  0.00  0.00    +0.129 C 
ATOM     10  C   UNL     1     -38.153  23.401   2.249  0.00  0.00    +0.161 C 
ATOM     11  C   UNL     1     -38.022  24.394   3.380  0.00  0.00    +0.272 C 
ATOM     12  H   UNL     1     -36.806  24.764   4.973  0.00  0.00    +0.150 HD
BRANCH  10  13
ATOM     13  C   UNL     1     -39.290  23.600   1.290  0.00  0.00    +0.057 C 
ATOM     14  C   UNL     1     -39.941  22.259   0.988  0.00  0.00    +0.008 C 
ATOM     15  C   UNL     1     -38.761  24.264   0.028  0.00  0.00    +0.008 C 
ENDBRANCH  10  13
BRANCH   9  16
ATOM     16  C   UNL     1     -34.986  23.031   5.052  0.00  0.00    +0.027 C 
ATOM     17  C   UNL     1     -35.444  22.359   6.331  0.00  0.00    +0.002 C 
ENDBRANCH   9  16
ENDBRANCH   3   8
BRANCH   2  18
ATOM     18  CA  UNL     1     -34.144  19.961   0.973  0.00  0.00    +0.149 C 
BRANCH  18  21
ATOM     19  O   UNL     1     -35.337  19.656  -1.116  0.00  0.00    -0.273 OA
ATOM     20  N   UNL     1     -35.099  17.841   0.313  0.00  0.00    -0.295 N 
ATOM     21  C   ACE A   1     -34.937  19.167  -0.061  0.00  0.00    +0.241 C 
ATOM     22  H   UNL     1     -34.739  17.552   1.183  0.00  0.00    +0.150 HD
BRANCH  20  23
ATOM     23  CA  UNL     1     -35.769  16.862  -0.511  0.00  0.00    +0.171 C 
ATOM     24  CB  UNL     1     -35.091  15.505  -0.391  0.00  0.00    +0.033 C 
BRANCH  23  26
ATOM     25  OXT UNL     1     -38.071  17.601  -0.473  0.00  0.00    -0.248 OA
ATOM     26  C   UNL     1     -37.244  16.749  -0.163  0.00  0.00    +0.332 C 
BRANCH  26  27
ATOM     27  O   UNL     1     -37.579  15.634   0.530  0.00  0.00    -0.479 OA
ATOM     28  H   UNL     1     -38.071  15.707   1.324  0.00  0.00    +0.295 HD
ENDBRANCH  26  27
ENDBRANCH  23  26
ENDBRANCH  20  23
ENDBRANCH  18  21
BRANCH  18  29
ATOM     29  CB  UNL     1     -32.852  20.502   0.349  0.00  0.00    +0.029 C 
BRANCH  29  30
ATOM     30  CG  UNL     1     -31.827  19.423  -0.056  0.00  0.00    +0.002 C 
ATOM     31  CD1 UNL     1     -31.653  18.420   1.089  0.00  0.00    +0.000 C 
ATOM     32  CD2 UNL     1     -30.469  20.019  -0.428  0.00  0.00    +0.000 C 
ENDBRANCH  29  30
ENDBRANCH  18  29
ENDBRANCH   2  18
TORSDOF 10
ENDMDL
MODEL 4
REMARK VINA RESULT:      -5.9      2.686      8.338
REMARK  Name = 53465571
REMARK  10 active torsions:
REMARK  status: ('A' for Active; 'I' for Inactive)
REMARK    1  A    between atoms: N_2  and  CA_18
REMARK    2  A    between atoms: C_3  and  CA_8
REMARK    3  A    between atoms: C_9  and  C_16
REMARK    4  A    between atoms: C_10  and  C_13
REMARK    5  A    between atoms: CA_18  and  C_21
REMARK    6  A    between atoms: CA_18  and  CB_29
REMARK    7  A    between atoms: N_20  and  CA_23
REMARK    8  A    between atoms: CA_23  and  C_26
REMARK    9  A    between atoms: C_26  and  O_27
REMARK   10  A    between atoms: CB_29  and  CG_30
REMARK                            x       y       z     vdW  Elec       q    Type
REMARK                         _______ _______ _______ _____ _____    ______ ____
ROOT
ATOM      1  O   UNL     1     -37.187  22.058   3.064  0.00  0.00    -0.268 OA
ATOM      2  N   UNL     1     -35.090  21.806   2.075  0.00  0.00    -0.293 N 
ATOM      3  C   UNL     1     -36.037  22.433   2.865  0.00  0.00    +0.273 C 
ATOM      4  H   UNL     1     -34.197  22.214   2.000  0.00  0.00    +0.150 HD
ENDROOT
BRANCH   3   8
ATOM      5  O   UNL     1     -34.325  27.129   5.030  0.00  0.00    -0.268 OA
ATOM      6  N   UNL     1     -34.491  24.825   5.235  0.00  0.00    -0.294 N 
ATOM      7  N   UNL     1     -35.758  24.811   2.771  0.00  0.00    -0.400 NA
ATOM      8  CA  UNL     1     -35.530  23.665   3.494  0.00  0.00    +0.179 C 
ATOM      9  C   UNL     1     -34.913  23.632   4.693  0.00  0.00    +0.129 C 
ATOM     10  C   UNL     1     -35.363  25.939   3.271  0.00  0.00    +0.161 C 
ATOM     11  C   UNL     1     -34.669  26.035   4.609  0.00  0.00    +0.272 C 
ATOM     12  H   UNL     1     -34.041  24.811   6.111  0.00  0.00    +0.150 HD
BRANCH  10  13
ATOM     13  C   UNL     1     -35.588  27.220   2.521  0.00  0.00    +0.057 C 
ATOM     14  C   UNL     1     -36.916  27.149   1.781  0.00  0.00    +0.008 C 
ATOM     15  C   UNL     1     -34.425  27.444   1.568  0.00  0.00    +0.008 C 
ENDBRANCH  10  13
BRANCH   9  16
ATOM     16  C   UNL     1     -34.605  22.429   5.535  0.00  0.00    +0.027 C 
ATOM     17  C   UNL     1     -35.724  22.131   6.514  0.00  0.00    +0.002 C 
ENDBRANCH   9  16
ENDBRANCH   3   8
BRANCH   2  18
ATOM     18  CA  UNL     1     -35.345  20.584   1.356  0.00  0.00    +0.149 C 
BRANCH  18  21
ATOM     19  O   UNL     1     -36.150  21.442  -0.763  0.00  0.00    -0.273 OA
ATOM     20  N   UNL     1     -37.662  20.440   0.685  0.00  0.00    -0.295 N 
ATOM     21  C   ACE A   1     -36.407  20.894   0.306  0.00  0.00    +0.241 C 
ATOM     22  H   UNL     1     -37.759  20.013   1.567  0.00  0.00    +0.150 HD
BRANCH  20  23
ATOM     23  CA  UNL     1     -38.834  20.562  -0.151  0.00  0.00    +0.171 C 
ATOM     24  CB  UNL     1     -39.054  19.289  -0.955  0.00  0.00    +0.033 C 
BRANCH  23  26
ATOM     25  OXT UNL     1     -41.189  21.012   0.166  0.00  0.00    -0.248 OA
ATOM     26  C   UNL     1     -40.074  20.893   0.664  0.00  0.00    +0.332 C 
BRANCH  26  27
ATOM     27  O   UNL     1     -39.853  21.060   1.990  0.00  0.00    -0.479 OA
ATOM     28  H   UNL     1     -39.120  20.643   2.399  0.00  0.00    +0.295 HD
ENDBRANCH  26  27
ENDBRANCH  23  26
ENDBRANCH  20  23
ENDBRANCH  18  21
BRANCH  18  29
ATOM     29  CB  UNL     1     -34.082  20.028   0.686  0.00  0.00    +0.029 C 
BRANCH  29  30
ATOM     30  CG  UNL     1     -33.745  18.568   1.051  0.00  0.00    +0.002 C 
ATOM     31  CD1 UNL     1     -32.228  18.405   1.178  0.00  0.00    +0.000 C 
ATOM     32  CD2 UNL     1     -34.285  17.571   0.026  0.00  0.00    +0.000 C 
ENDBRANCH  29  30
ENDBRANCH  18  29
ENDBRANCH   2  18
TORSDOF 10
ENDMDL
MODEL 5
REMARK VINA RESULT:      -5.8      3.794      9.257
REMARK  Name = 53465571
REMARK  10 active torsions:
REMARK  status: ('A' for Active; 'I' for Inactive)
REMARK    1  A    between atoms: N_2  and  CA_18
REMARK    2  A    between atoms: C_3  and  CA_8
REMARK    3  A    between atoms: C_9  and  C_16
REMARK    4  A    between atoms: C_10  and  C_13
REMARK    5  A    between atoms: CA_18  and  C_21
REMARK    6  A    between atoms: CA_18  and  CB_29
REMARK    7  A    between atoms: N_20  and  CA_23
REMARK    8  A    between atoms: CA_23  and  C_26
REMARK    9  A    between atoms: C_26  and  O_27
REMARK   10  A    between atoms: CB_29  and  CG_30
REMARK                            x       y       z     vdW  Elec       q    Type
REMARK                         _______ _______ _______ _____ _____    ______ ____
ROOT
ATOM      1  O   UNL     1     -35.211  20.605   3.821  0.00  0.00    -0.268 OA
ATOM      2  N   UNL     1     -35.265  20.962   1.517  0.00  0.00    -0.293 N 
ATOM      3  C   UNL     1     -35.569  21.242   2.837  0.00  0.00    +0.273 C 
ATOM      4  H   UNL     1     -35.618  21.558   0.818  0.00  0.00    +0.150 HD
ENDROOT
BRANCH   3   8
ATOM      5  O   UNL     1     -38.457  25.821   3.437  0.00  0.00    -0.268 OA
ATOM      6  N   UNL     1     -38.383  23.646   2.640  0.00  0.00    -0.294 N 
ATOM      7  N   UNL     1     -35.804  23.487   3.641  0.00  0.00    -0.400 NA
ATOM      8  CA  UNL     1     -36.411  22.443   2.986  0.00  0.00    +0.179 C 
ATOM      9  C   UNL     1     -37.664  22.481   2.491  0.00  0.00    +0.129 C 
ATOM     10  C   UNL     1     -36.472  24.587   3.790  0.00  0.00    +0.161 C 
ATOM     11  C   UNL     1     -37.880  24.758   3.271  0.00  0.00    +0.272 C 
ATOM     12  H   UNL     1     -39.298  23.683   2.279  0.00  0.00    +0.150 HD
BRANCH  10  13
ATOM     13  C   UNL     1     -35.855  25.758   4.498  0.00  0.00    +0.057 C 
ATOM     14  C   UNL     1     -35.092  26.613   3.497  0.00  0.00    +0.008 C 
ATOM     15  C   UNL     1     -34.948  25.244   5.604  0.00  0.00    +0.008 C 
ENDBRANCH  10  13
BRANCH   9  16
ATOM     16  C   UNL     1     -38.407  21.384   1.785  0.00  0.00    +0.027 C 
ATOM     17  C   UNL     1     -39.843  21.776   1.501  0.00  0.00    +0.002 C 
ENDBRANCH   9  16
ENDBRANCH   3   8
BRANCH   2  18
ATOM     18  CA  UNL     1     -34.455  19.840   1.115  0.00  0.00    +0.149 C 
BRANCH  18  21
ATOM     19  O   UNL     1     -35.395  19.669  -1.114  0.00  0.00    -0.273 OA
ATOM     20  N   UNL     1     -35.548  17.841   0.309  0.00  0.00    -0.295 N 
ATOM     21  C   ACE A   1     -35.192  19.140  -0.024  0.00  0.00    +0.241 C 
ATOM     22  H   UNL     1     -35.338  17.515   1.214  0.00  0.00    +0.150 HD
BRANCH  20  23
ATOM     23  CA  UNL     1     -36.212  16.943  -0.608  0.00  0.00    +0.171 C 
ATOM     24  CB  UNL     1     -35.422  15.651  -0.758  0.00  0.00    +0.033 C 
BRANCH  23  26
ATOM     25  OXT UNL     1     -37.991  15.546   0.247  0.00  0.00    -0.248 OA
ATOM     26  C   UNL     1     -37.637  16.644  -0.170  0.00  0.00    +0.332 C 
BRANCH  26  27
ATOM     27  O   UNL     1     -38.495  17.685  -0.287  0.00  0.00    -0.479 OA
ATOM     28  H   UNL     1     -39.412  17.526  -0.397  0.00  0.00    +0.295 HD
ENDBRANCH  26  27
ENDBRANCH  23  26
ENDBRANCH  20  23
ENDBRANCH  18  21
BRANCH  18  29
ATOM     29  CB  UNL     1     -33.055  20.268   0.656  0.00  0.00    +0.029 C 
BRANCH  29  30
ATOM     30  CG  UNL     1     -32.134  19.109   0.223  0.00  0.00    +0.002 C 
ATOM     31  CD1 UNL     1     -32.039  18.076   1.350  0.00  0.00    +0.000 C 
ATOM     32  CD2 UNL     1     -30.733  19.588  -0.155  0.00  0.00    +0.000 C 
ENDBRANCH  29  30
ENDBRANCH  18  29
ENDBRANCH   2  18
TORSDOF 10
ENDMDL
MODEL 6
REMARK VINA RESULT:      -5.8      2.448      8.277
REMARK  Name = 53465571
REMARK  10 active torsions:
REMARK  status: ('A' for Active; 'I' for Inactive)
REMARK    1  A    between atoms: N_2  and  CA_18
REMARK    2  A    between atoms: C_3  and  CA_8
REMARK    3  A    between atoms: C_9  and  C_16
REMARK    4  A    between atoms: C_10  and  C_13
REMARK    5  A    between atoms: CA_18  and  C_21
REMARK    6  A    between atoms: CA_18  and  CB_29
REMARK    7  A    between atoms: N_20  and  CA_23
REMARK    8  A    between atoms: CA_23  and  C_26
REMARK    9  A    between atoms: C_26  and  O_27
REMARK   10  A    between atoms: CB_29  and  CG_30
REMARK                            x       y       z     vdW  Elec       q    Type
REMARK                         _______ _______ _______ _____ _____    ______ ____
ROOT
ATOM      1  O   UNL     1     -33.170  25.701   3.675  0.00  0.00    -0.268 OA
ATOM      2  N   UNL     1     -35.041  26.669   4.677  0.00  0.00    -0.293 N 
ATOM      3  C   UNL     1     -33.777  26.672   4.116  0.00  0.00    +0.273 C 
ATOM      4  H   UNL     1     -35.415  27.523   4.993  0.00  0.00    +0.150 HD
ENDROOT
BRANCH   3   8
ATOM      5  O   UNL     1     -31.361  31.553   4.171  0.00  0.00    -0.268 OA
ATOM      6  N   UNL     1     -32.752  30.071   3.056  0.00  0.00    -0.294 N 
ATOM      7  N   UNL     1     -32.390  28.317   5.170  0.00  0.00    -0.400 NA
ATOM      8  CA  UNL     1     -33.170  28.014   4.080  0.00  0.00    +0.179 C 
ATOM      9  C   UNL     1     -33.374  28.843   3.037  0.00  0.00    +0.129 C 
ATOM     10  C   UNL     1     -31.802  29.471   5.200  0.00  0.00    +0.161 C 
ATOM     11  C   UNL     1     -31.944  30.484   4.088  0.00  0.00    +0.272 C 
ATOM     12  H   UNL     1     -32.894  30.682   2.297  0.00  0.00    +0.150 HD
BRANCH  10  13
ATOM     13  C   UNL     1     -30.939  29.852   6.368  0.00  0.00    +0.057 C 
ATOM     14  C   UNL     1     -29.651  29.043   6.332  0.00  0.00    +0.008 C 
ATOM     15  C   UNL     1     -31.716  29.614   7.654  0.00  0.00    +0.008 C 
ENDBRANCH  10  13
BRANCH   9  16
ATOM     16  C   UNL     1     -34.224  28.601   1.823  0.00  0.00    +0.027 C 
ATOM     17  C   UNL     1     -35.598  29.224   1.971  0.00  0.00    +0.002 C 
ENDBRANCH   9  16
ENDBRANCH   3   8
BRANCH   2  18
ATOM     18  CA  UNL     1     -35.838  25.478   4.822  0.00  0.00    +0.149 C 
BRANCH  18  21
ATOM     19  O   UNL     1     -36.135  25.153   2.438  0.00  0.00    -0.273 OA
ATOM     20  N   UNL     1     -38.017  25.347   3.784  0.00  0.00    -0.295 N 
ATOM     21  C   ACE A   1     -36.651  25.323   3.540  0.00  0.00    +0.241 C 
ATOM     22  H   UNL     1     -38.325  25.490   4.708  0.00  0.00    +0.150 HD
BRANCH  20  23
ATOM     23  CA  UNL     1     -39.009  25.170   2.749  0.00  0.00    +0.171 C 
ATOM     24  CB  UNL     1     -39.445  23.715   2.668  0.00  0.00    +0.033 C 
BRANCH  23  26
ATOM     25  OXT UNL     1     -40.580  26.905   2.143  0.00  0.00    -0.248 OA
ATOM     26  C   UNL     1     -40.213  26.072   2.965  0.00  0.00    +0.332 C 
BRANCH  26  27
ATOM     27  O   UNL     1     -40.850  25.893   4.147  0.00  0.00    -0.479 OA
ATOM     28  H   UNL     1     -40.976  26.620   4.726  0.00  0.00    +0.295 HD
ENDBRANCH  26  27
ENDBRANCH  23  26
ENDBRANCH  20  23
ENDBRANCH  18  21
BRANCH  18  29
ATOM     29  CB  UNL     1     -34.980  24.229   5.061  0.00  0.00    +0.029 C 
BRANCH  29  30
ATOM     30  CG  UNL     1     -35.772  22.910   5.165  0.00  0.00    +0.002 C 
ATOM     31  CD1 UNL     1     -35.363  22.161   6.436  0.00  0.00    +0.000 C 
ATOM     32  CD2 UNL     1     -35.565  22.008   3.948  0.00  0.00    +0.000 C 
ENDBRANCH  29  30
ENDBRANCH  18  29
ENDBRANCH   2  18
TORSDOF 10
ENDMDL
MODEL 7
REMARK VINA RESULT:      -5.7      9.917     13.478
REMARK  Name = 53465571
REMARK  10 active torsions:
REMARK  status: ('A' for Active; 'I' for Inactive)
REMARK    1  A    between atoms: N_2  and  CA_18
REMARK    2  A    between atoms: C_3  and  CA_8
REMARK    3  A    between atoms: C_9  and  C_16
REMARK    4  A    between atoms: C_10  and  C_13
REMARK    5  A    between atoms: CA_18  and  C_21
REMARK    6  A    between atoms: CA_18  and  CB_29
REMARK    7  A    between atoms: N_20  and  CA_23
REMARK    8  A    between atoms: CA_23  and  C_26
REMARK    9  A    between atoms: C_26  and  O_27
REMARK   10  A    between atoms: CB_29  and  CG_30
REMARK                            x       y       z     vdW  Elec       q    Type
REMARK                         _______ _______ _______ _____ _____    ______ ____
ROOT
ATOM      1  O   UNL     1     -44.156  31.988   1.806  0.00  0.00    -0.268 OA
ATOM      2  N   UNL     1     -44.576  33.712   3.320  0.00  0.00    -0.293 N 
ATOM      3  C   UNL     1     -44.020  33.145   2.186  0.00  0.00    +0.273 C 
ATOM      4  H   UNL     1     -44.387  34.659   3.511  0.00  0.00    +0.150 HD
ENDROOT
BRANCH   3   8
ATOM      5  O   UNL     1     -40.770  36.540  -0.567  0.00  0.00    -0.268 OA
ATOM      6  N   UNL     1     -42.891  35.642  -0.307  0.00  0.00    -0.294 N 
ATOM      7  N   UNL     1     -41.891  34.185   1.826  0.00  0.00    -0.400 NA
ATOM      8  CA  UNL     1     -43.200  34.097   1.416  0.00  0.00    +0.179 C 
ATOM      9  C   UNL     1     -43.723  34.793   0.387  0.00  0.00    +0.129 C 
ATOM     10  C   UNL     1     -41.100  34.983   1.181  0.00  0.00    +0.161 C 
ATOM     11  C   UNL     1     -41.564  35.810   0.005  0.00  0.00    +0.272 C 
ATOM     12  H   UNL     1     -43.265  36.154  -1.062  0.00  0.00    +0.150 HD
BRANCH  10  13
ATOM     13  C   UNL     1     -39.662  35.116   1.589  0.00  0.00    +0.057 C 
ATOM     14  C   UNL     1     -39.012  33.740   1.615  0.00  0.00    +0.008 C 
ATOM     15  C   UNL     1     -39.594  35.795   2.947  0.00  0.00    +0.008 C 
ENDBRANCH  10  13
BRANCH   9  16
ATOM     16  C   UNL     1     -45.139  34.774  -0.110  0.00  0.00    +0.027 C 
ATOM     17  C   UNL     1     -45.731  36.168  -0.166  0.00  0.00    +0.002 C 
ENDBRANCH   9  16
ENDBRANCH   3   8
BRANCH   2  18
ATOM     18  CA  UNL     1     -45.418  32.984   4.234  0.00  0.00    +0.149 C 
BRANCH  18  21
ATOM     19  O   UNL     1     -43.704  32.239   5.780  0.00  0.00    -0.273 OA
ATOM     20  N   UNL     1     -44.834  30.656   4.512  0.00  0.00    -0.295 N 
ATOM     21  C   ACE A   1     -44.539  31.947   4.926  0.00  0.00    +0.241 C 
ATOM     22  H   UNL     1     -45.522  30.532   3.820  0.00  0.00    +0.150 HD
BRANCH  20  23
ATOM     23  CA  UNL     1     -44.181  29.484   5.049  0.00  0.00    +0.171 C 
ATOM     24  CB  UNL     1     -45.147  28.309   5.101  0.00  0.00    +0.033 C 
BRANCH  23  26
ATOM     25  OXT UNL     1     -41.927  28.657   4.766  0.00  0.00    -0.248 OA
ATOM     26  C   UNL     1     -42.942  29.114   4.250  0.00  0.00    +0.332 C 
BRANCH  26  27
ATOM     27  O   UNL     1     -43.038  29.340   2.918  0.00  0.00    -0.479 OA
ATOM     28  H   UNL     1     -43.415  28.689   2.359  0.00  0.00    +0.295 HD
ENDBRANCH  26  27
ENDBRANCH  23  26
ENDBRANCH  20  23
ENDBRANCH  18  21
BRANCH  18  29
ATOM     29  CB  UNL     1     -46.075  33.900   5.274  0.00  0.00    +0.029 C 
BRANCH  29  30
ATOM     30  CG  UNL     1     -47.095  33.203   6.198  0.00  0.00    +0.002 C 
ATOM     31  CD1 UNL     1     -48.159  32.496   5.352  0.00  0.00    +0.000 C 
ATOM     32  CD2 UNL     1     -47.770  34.178   7.162  0.00  0.00    +0.000 C 
ENDBRANCH  29  30
ENDBRANCH  18  29
ENDBRANCH   2  18
TORSDOF 10
ENDMDL
MODEL 8
REMARK VINA RESULT:      -5.6      2.319      5.070
REMARK  Name = 53465571
REMARK  10 active torsions:
REMARK  status: ('A' for Active; 'I' for Inactive)
REMARK    1  A    between atoms: N_2  and  CA_18
REMARK    2  A    between atoms: C_3  and  CA_8
REMARK    3  A    between atoms: C_9  and  C_16
REMARK    4  A    between atoms: C_10  and  C_13
REMARK    5  A    between atoms: CA_18  and  C_21
REMARK    6  A    between atoms: CA_18  and  CB_29
REMARK    7  A    between atoms: N_20  and  CA_23
REMARK    8  A    between atoms: CA_23  and  C_26
REMARK    9  A    between atoms: C_26  and  O_27
REMARK   10  A    between atoms: CB_29  and  CG_30
REMARK                            x       y       z     vdW  Elec       q    Type
REMARK                         _______ _______ _______ _____ _____    ______ ____
ROOT
ATOM      1  O   UNL     1     -32.290  26.078   3.030  0.00  0.00    -0.268 OA
ATOM      2  N   UNL     1     -33.275  27.574   4.524  0.00  0.00    -0.293 N 
ATOM      3  C   UNL     1     -33.253  26.485   3.671  0.00  0.00    +0.273 C 
ATOM      4  H   UNL     1     -34.119  27.794   4.981  0.00  0.00    +0.150 HD
ENDROOT
BRANCH   3   8
ATOM      5  O   UNL     1     -37.993  23.804   3.545  0.00  0.00    -0.268 OA
ATOM      6  N   UNL     1     -36.799  25.697   2.941  0.00  0.00    -0.294 N 
ATOM      7  N   UNL     1     -34.598  24.572   4.192  0.00  0.00    -0.400 NA
ATOM      8  CA  UNL     1     -34.556  25.802   3.582  0.00  0.00    +0.179 C 
ATOM      9  C   UNL     1     -35.603  26.379   2.960  0.00  0.00    +0.129 C 
ATOM     10  C   UNL     1     -35.718  23.920   4.178  0.00  0.00    +0.161 C 
ATOM     11  C   UNL     1     -36.965  24.463   3.521  0.00  0.00    +0.272 C 
ATOM     12  H   UNL     1     -37.570  26.112   2.490  0.00  0.00    +0.150 HD
BRANCH  10  13
ATOM     13  C   UNL     1     -35.817  22.571   4.829  0.00  0.00    +0.057 C 
ATOM     14  C   UNL     1     -34.964  22.552   6.089  0.00  0.00    +0.008 C 
ATOM     15  C   UNL     1     -35.375  21.509   3.835  0.00  0.00    +0.008 C 
ENDBRANCH  10  13
BRANCH   9  16
ATOM     16  C   UNL     1     -35.637  27.703   2.253  0.00  0.00    +0.027 C 
ATOM     17  C   UNL     1     -36.769  27.771   1.248  0.00  0.00    +0.002 C 
ENDBRANCH   9  16
ENDBRANCH   3   8
BRANCH   2  18
ATOM     18  CA  UNL     1     -32.124  28.401   4.778  0.00  0.00    +0.149 C 
BRANCH  18  21
ATOM     19  O   UNL     1     -32.530  30.666   5.543  0.00  0.00    -0.273 OA
ATOM     20  N   UNL     1     -32.969  30.138   3.325  0.00  0.00    -0.295 N 
ATOM     21  C   ACE A   1     -32.570  29.852   4.623  0.00  0.00    +0.241 C 
ATOM     22  H   UNL     1     -32.963  29.410   2.662  0.00  0.00    +0.150 HD
BRANCH  20  23
ATOM     23  CA  UNL     1     -33.391  31.452   2.897  0.00  0.00    +0.171 C 
ATOM     24  CB  UNL     1     -32.656  31.865   1.631  0.00  0.00    +0.033 C 
BRANCH  23  26
ATOM     25  OXT UNL     1     -35.409  32.125   1.749  0.00  0.00    -0.248 OA
ATOM     26  C   UNL     1     -34.894  31.517   2.682  0.00  0.00    +0.332 C 
BRANCH  26  27
ATOM     27  O   UNL     1     -35.629  30.860   3.611  0.00  0.00    -0.479 OA
ATOM     28  H   UNL     1     -35.254  30.653   4.444  0.00  0.00    +0.295 HD
ENDBRANCH  26  27
ENDBRANCH  23  26
ENDBRANCH  20  23
ENDBRANCH  18  21
BRANCH  18  29
ATOM     29  CB  UNL     1     -31.541  28.173   6.178  0.00  0.00    +0.029 C 
BRANCH  29  30
ATOM     30  CG  UNL     1     -30.001  28.229   6.255  0.00  0.00    +0.002 C 
ATOM     31  CD1 UNL     1     -29.568  29.475   7.033  0.00  0.00    +0.000 C 
ATOM     32  CD2 UNL     1     -29.348  28.233   4.872  0.00  0.00    +0.000 C 
ENDBRANCH  29  30
ENDBRANCH  18  29
ENDBRANCH   2  18
TORSDOF 10
ENDMDL
MODEL 9
REMARK VINA RESULT:      -5.6      5.011      8.024
REMARK  Name = 53465571
REMARK  10 active torsions:
REMARK  status: ('A' for Active; 'I' for Inactive)
REMARK    1  A    between atoms: N_2  and  CA_18
REMARK    2  A    between atoms: C_3  and  CA_8
REMARK    3  A    between atoms: C_9  and  C_16
REMARK    4  A    between atoms: C_10  and  C_13
REMARK    5  A    between atoms: CA_18  and  C_21
REMARK    6  A    between atoms: CA_18  and  CB_29
REMARK    7  A    between atoms: N_20  and  CA_23
REMARK    8  A    between atoms: CA_23  and  C_26
REMARK    9  A    between atoms: C_26  and  O_27
REMARK   10  A    between atoms: CB_29  and  CG_30
REMARK                            x       y       z     vdW  Elec       q    Type
REMARK                         _______ _______ _______ _____ _____    ______ ____
ROOT
ATOM      1  O   UNL     1     -33.711  20.915   0.333  0.00  0.00    -0.268 OA
ATOM      2  N   UNL     1     -35.289  20.366   1.961  0.00  0.00    -0.293 N 
ATOM      3  C   UNL     1     -34.434  20.106   0.905  0.00  0.00    +0.273 C 
ATOM      4  H   UNL     1     -35.817  19.622   2.330  0.00  0.00    +0.150 HD
ENDROOT
BRANCH   3   8
ATOM      5  O   UNL     1     -34.709  14.940  -0.802  0.00  0.00    -0.268 OA
ATOM      6  N   UNL     1     -33.474  16.584   0.270  0.00  0.00    -0.294 N 
ATOM      7  N   UNL     1     -35.609  18.300  -0.145  0.00  0.00    -0.400 NA
ATOM      8  CA  UNL     1     -34.454  18.693   0.488  0.00  0.00    +0.179 C 
ATOM      9  C   UNL     1     -33.398  17.886   0.712  0.00  0.00    +0.129 C 
ATOM     10  C   UNL     1     -35.692  17.077  -0.564  0.00  0.00    +0.161 C 
ATOM     11  C   UNL     1     -34.574  16.079  -0.381  0.00  0.00    +0.272 C 
ATOM     12  H   UNL     1     -32.706  15.988   0.428  0.00  0.00    +0.150 HD
BRANCH  10  13
ATOM     13  C   UNL     1     -36.932  16.598  -1.261  0.00  0.00    +0.057 C 
ATOM     14  C   UNL     1     -37.467  17.702  -2.161  0.00  0.00    +0.008 C 
ATOM     15  C   UNL     1     -37.955  16.178  -0.218  0.00  0.00    +0.008 C 
ENDBRANCH  10  13
BRANCH   9  16
ATOM     16  C   UNL     1     -32.114  18.225   1.412  0.00  0.00    +0.027 C 
ATOM     17  C   UNL     1     -30.928  18.149   0.472  0.00  0.00    +0.002 C 
ENDBRANCH   9  16
ENDBRANCH   3   8
BRANCH   2  18
ATOM     18  CA  UNL     1     -35.445  21.673   2.547  0.00  0.00    +0.149 C 
BRANCH  18  21
ATOM     19  O   UNL     1     -36.425  23.591   1.434  0.00  0.00    -0.273 OA
ATOM     20  N   UNL     1     -37.544  21.558   1.355  0.00  0.00    -0.295 N 
ATOM     21  C   ACE A   1     -36.512  22.403   1.737  0.00  0.00    +0.241 C 
ATOM     22  H   UNL     1     -37.517  20.621   1.653  0.00  0.00    +0.150 HD
BRANCH  20  23
ATOM     23  CA  UNL     1     -38.656  21.987   0.538  0.00  0.00    +0.171 C 
ATOM     24  CB  UNL     1     -38.326  21.836  -0.940  0.00  0.00    +0.033 C 
BRANCH  23  26
ATOM     25  OXT UNL     1     -40.694  20.791   0.020  0.00  0.00    -0.248 OA
ATOM     26  C   UNL     1     -39.928  21.225   0.875  0.00  0.00    +0.332 C 
BRANCH  26  27
ATOM     27  O   UNL     1     -40.161  21.069   2.200  0.00  0.00    -0.479 OA
ATOM     28  H   UNL     1     -40.974  21.352   2.569  0.00  0.00    +0.295 HD
ENDBRANCH  26  27
ENDBRANCH  23  26
ENDBRANCH  20  23
ENDBRANCH  18  21
BRANCH  18  29
ATOM     29  CB  UNL     1     -35.855  21.602   4.023  0.00  0.00    +0.029 C 
BRANCH  29  30
ATOM     30  CG  UNL     1     -35.155  22.628   4.938  0.00  0.00    +0.002 C 
ATOM     31  CD1 UNL     1     -35.075  22.078   6.365  0.00  0.00    +0.000 C 
ATOM     32  CD2 UNL     1     -35.866  23.981   4.948  0.00  0.00    +0.000 C 
ENDBRANCH  29  30
ENDBRANCH  18  29
ENDBRANCH   2  18
TORSDOF 10
ENDMDL
