MODEL 1
REMARK VINA RESULT:      -6.6      0.000      0.000
REMARK  Name = 53802
REMARK  8 active torsions:
REMARK  status: ('A' for Active; 'I' for Inactive)
REMARK    1  A    between atoms: C_3  and  C_21
REMARK    2  A    between atoms: C_9  and  O_35
REMARK    3  A    between atoms: C_11  and  O_33
REMARK    4  A    between atoms: C_16  and  O_37
REMARK    5  A    between atoms: C_19  and  C_39
REMARK    6  A    between atoms: C_22  and  O_27
REMARK    7  A    between atoms: C_23  and  O_29
REMARK    8  A    between atoms: C_24  and  O_31
REMARK                            x       y       z     vdW  Elec       q    Type
REMARK                         _______ _______ _______ _____ _____    ______ ____
ROOT
ATOM      1  O   UNL     1     -38.266  24.509   2.263  0.00  0.00    -0.421 OA
ATOM      2  O   UNL     1     -38.969  26.625   2.737  0.00  0.00    -0.244 OA
ATOM      3  C   UNL     1     -36.196  22.579   2.510  0.00  0.00    +0.010 C 
ATOM      4  C   UNL     1     -37.399  22.297   1.827  0.00  0.00    +0.039 C 
ATOM      5  C   UNL     1     -37.563  21.016   1.258  0.00  0.00    +0.070 C 
ATOM      6  C   UNL     1     -35.188  21.622   2.624  0.00  0.00    +0.001 C 
ATOM      7  C   UNL     1     -38.456  23.228   1.679  0.00  0.00    +0.149 A 
ATOM      8  C   UNL     1     -39.649  22.951   1.003  0.00  0.00    +0.041 A 
ATOM      9  C   UNL     1     -36.538  20.061   1.380  0.00  0.00    +0.137 C 
ATOM     10  C   UNL     1     -35.358  20.363   2.059  0.00  0.00    +0.036 C 
ATOM     11  C   UNL     1     -38.749  20.718   0.577  0.00  0.00    +0.142 C 
ATOM     12  C   UNL     1     -39.771  21.667   0.453  0.00  0.00    +0.040 C 
ATOM     13  C   UNL     1     -40.681  23.994   0.909  0.00  0.00    +0.043 A 
ATOM     14  C   UNL     1     -40.453  25.249   1.499  0.00  0.00    +0.079 A 
ATOM     15  C   UNL     1     -39.192  25.540   2.215  0.00  0.00    +0.346 A 
ATOM     16  C   UNL     1     -41.911  23.807   0.250  0.00  0.00    +0.139 C 
ATOM     17  C   UNL     1     -41.414  26.270   1.430  0.00  0.00    +0.007 C 
ATOM     18  C   UNL     1     -42.868  24.823   0.180  0.00  0.00    +0.037 C 
ATOM     19  C   UNL     1     -42.620  26.056   0.771  0.00  0.00    +0.003 C 
ENDROOT
BRANCH   3  21
ATOM     20  O   UNL     1     -35.040  23.715   4.301  0.00  0.00    -0.349 OA
ATOM     21  C   UNL     1     -35.892  23.913   3.166  0.00  0.00    +0.167 C 
ATOM     22  C   UNL     1     -35.273  24.917   2.174  0.00  0.00    +0.171 C 
ATOM     23  C   UNL     1     -34.953  26.240   2.877  0.00  0.00    +0.169 C 
ATOM     24  C   UNL     1     -34.135  25.980   4.147  0.00  0.00    +0.167 C 
ATOM     25  C   UNL     1     -34.742  24.897   5.051  0.00  0.00    +0.145 C 
ATOM     26  C   UNL     1     -35.937  25.333   5.899  0.00  0.00    +0.035 C 
BRANCH  22  27
ATOM     27  O   UNL     1     -34.063  24.379   1.642  0.00  0.00    -0.379 OA
ATOM     28  H   UNL     1     -33.805  23.596   2.152  0.00  0.00    +0.211 HD
ENDBRANCH  22  27
BRANCH  23  29
ATOM     29  O   UNL     1     -36.165  26.914   3.206  0.00  0.00    -0.379 OA
ATOM     30  H   UNL     1     -36.035  27.871   3.121  0.00  0.00    +0.211 HD
ENDBRANCH  23  29
BRANCH  24  31
ATOM     31  O   UNL     1     -33.935  27.184   4.875  0.00  0.00    -0.379 OA
ATOM     32  H   UNL     1     -34.657  27.802   4.684  0.00  0.00    +0.211 HD
ENDBRANCH  24  31
ENDBRANCH   3  21
BRANCH  11  33
ATOM     33  O   UNL     1     -38.980  19.500  -0.000  0.00  0.00    -0.471 OA
ATOM     34  C   UNL     1     -39.331  19.499  -1.380  0.00  0.00    +0.252 C 
ENDBRANCH  11  33
BRANCH   9  35
ATOM     35  O   UNL     1     -36.631  18.804   0.853  0.00  0.00    -0.505 OA
ATOM     36  H   UNL     1     -35.861  18.278   0.757  0.00  0.00    +0.292 HD
ENDBRANCH   9  35
BRANCH  16  37
ATOM     37  O   UNL     1     -42.292  22.655  -0.375  0.00  0.00    -0.471 OA
ATOM     38  C   UNL     1     -43.501  22.699  -1.129  0.00  0.00    +0.252 C 
ENDBRANCH  16  37
BRANCH  19  39
ATOM     39  C   UNL     1     -43.614  27.113   0.700  0.00  0.00    +0.000 C 
ATOM     40  C   UNL     1     -43.744  28.149   1.556  0.00  0.00    +0.000 C 
ENDBRANCH  19  39
TORSDOF 8
ENDMDL
MODEL 2
REMARK VINA RESULT:      -6.5      4.322      8.620
REMARK  Name = 53802
REMARK  8 active torsions:
REMARK  status: ('A' for Active; 'I' for Inactive)
REMARK    1  A    between atoms: C_3  and  C_21
REMARK    2  A    between atoms: C_9  and  O_35
REMARK    3  A    between atoms: C_11  and  O_33
REMARK    4  A    between atoms: C_16  and  O_37
REMARK    5  A    between atoms: C_19  and  C_39
REMARK    6  A    between atoms: C_22  and  O_27
REMARK    7  A    between atoms: C_23  and  O_29
REMARK    8  A    between atoms: C_24  and  O_31
REMARK                            x       y       z     vdW  Elec       q    Type
REMARK                         _______ _______ _______ _____ _____    ______ ____
ROOT
ATOM      1  O   UNL     1     -33.353  28.093   3.905  0.00  0.00    -0.421 OA
ATOM      2  O   UNL     1     -33.084  26.022   4.819  0.00  0.00    -0.244 OA
ATOM      3  C   UNL     1     -32.323  30.726   3.639  0.00  0.00    +0.010 C 
ATOM      4  C   UNL     1     -33.518  30.327   3.003  0.00  0.00    +0.039 C 
ATOM      5  C   UNL     1     -34.208  31.274   2.216  0.00  0.00    +0.070 C 
ATOM      6  C   UNL     1     -31.828  32.024   3.500  0.00  0.00    +0.001 C 
ATOM      7  C   UNL     1     -34.068  29.026   3.109  0.00  0.00    +0.149 A 
ATOM      8  C   UNL     1     -35.252  28.628   2.479  0.00  0.00    +0.041 A 
ATOM      9  C   UNL     1     -33.698  32.578   2.085  0.00  0.00    +0.137 C 
ATOM     10  C   UNL     1     -32.516  32.949   2.723  0.00  0.00    +0.036 C 
ATOM     11  C   UNL     1     -35.396  30.896   1.578  0.00  0.00    +0.142 C 
ATOM     12  C   UNL     1     -35.906  29.599   1.707  0.00  0.00    +0.040 C 
ATOM     13  C   UNL     1     -35.733  27.250   2.658  0.00  0.00    +0.043 A 
ATOM     14  C   UNL     1     -34.997  26.358   3.455  0.00  0.00    +0.079 A 
ATOM     15  C   UNL     1     -33.744  26.780   4.120  0.00  0.00    +0.346 A 
ATOM     16  C   UNL     1     -36.913  26.760   2.065  0.00  0.00    +0.139 C 
ATOM     17  C   UNL     1     -35.424  25.034   3.651  0.00  0.00    +0.007 C 
ATOM     18  C   UNL     1     -37.339  25.443   2.259  0.00  0.00    +0.037 C 
ATOM     19  C   UNL     1     -36.595  24.579   3.052  0.00  0.00    +0.003 C 
ENDROOT
BRANCH   3  21
ATOM     20  O   UNL     1     -30.110  30.209   4.457  0.00  0.00    -0.349 OA
ATOM     21  C   UNL     1     -31.485  29.810   4.512  0.00  0.00    +0.167 C 
ATOM     22  C   UNL     1     -31.996  29.770   5.965  0.00  0.00    +0.171 C 
ATOM     23  C   UNL     1     -31.111  28.859   6.821  0.00  0.00    +0.169 C 
ATOM     24  C   UNL     1     -29.636  29.244   6.652  0.00  0.00    +0.167 C 
ATOM     25  C   UNL     1     -29.205  29.371   5.184  0.00  0.00    +0.145 C 
ATOM     26  C   UNL     1     -28.956  28.053   4.448  0.00  0.00    +0.035 C 
BRANCH  22  27
ATOM     27  O   UNL     1     -31.967  31.086   6.518  0.00  0.00    -0.379 OA
ATOM     28  H   UNL     1     -31.587  31.054   7.409  0.00  0.00    +0.211 HD
ENDBRANCH  22  27
BRANCH  23  29
ATOM     29  O   UNL     1     -31.308  27.501   6.440  0.00  0.00    -0.379 OA
ATOM     30  H   UNL     1     -32.078  27.439   5.853  0.00  0.00    +0.211 HD
ENDBRANCH  23  29
BRANCH  24  31
ATOM     31  O   UNL     1     -28.794  28.332   7.344  0.00  0.00    -0.379 OA
ATOM     32  H   UNL     1     -28.877  27.451   6.949  0.00  0.00    +0.211 HD
ENDBRANCH  24  31
ENDBRANCH   3  21
BRANCH  11  33
ATOM     33  O   UNL     1     -36.119  31.757   0.800  0.00  0.00    -0.471 OA
ATOM     34  C   UNL     1     -37.469  31.992   1.186  0.00  0.00    +0.252 C 
ENDBRANCH  11  33
BRANCH   9  35
ATOM     35  O   UNL     1     -34.315  33.542   1.339  0.00  0.00    -0.505 OA
ATOM     36  H   UNL     1     -34.939  34.116   1.741  0.00  0.00    +0.292 HD
ENDBRANCH   9  35
BRANCH  16  37
ATOM     37  O   UNL     1     -37.743  27.490   1.265  0.00  0.00    -0.471 OA
ATOM     38  C   UNL     1     -38.866  26.810   0.708  0.00  0.00    +0.252 C 
ENDBRANCH  16  37
BRANCH  19  39
ATOM     39  C   UNL     1     -37.036  23.209   3.254  0.00  0.00    +0.000 C 
ATOM     40  C   UNL     1     -36.258  22.106   3.234  0.00  0.00    +0.000 C 
ENDBRANCH  19  39
TORSDOF 8
ENDMDL
MODEL 3
REMARK VINA RESULT:      -6.2      4.207      9.891
REMARK  Name = 53802
REMARK  8 active torsions:
REMARK  status: ('A' for Active; 'I' for Inactive)
REMARK    1  A    between atoms: C_3  and  C_21
REMARK    2  A    between atoms: C_9  and  O_35
REMARK    3  A    between atoms: C_11  and  O_33
REMARK    4  A    between atoms: C_16  and  O_37
REMARK    5  A    between atoms: C_19  and  C_39
REMARK    6  A    between atoms: C_22  and  O_27
REMARK    7  A    between atoms: C_23  and  O_29
REMARK    8  A    between atoms: C_24  and  O_31
REMARK                            x       y       z     vdW  Elec       q    Type
REMARK                         _______ _______ _______ _____ _____    ______ ____
ROOT
ATOM      1  O   UNL     1     -34.065  27.637   3.754  0.00  0.00    -0.421 OA
ATOM      2  O   UNL     1     -32.937  26.414   5.313  0.00  0.00    -0.244 OA
ATOM      3  C   UNL     1     -36.181  27.704   1.860  0.00  0.00    +0.010 C 
ATOM      4  C   UNL     1     -35.342  28.819   2.079  0.00  0.00    +0.039 C 
ATOM      5  C   UNL     1     -35.575  29.991   1.328  0.00  0.00    +0.070 C 
ATOM      6  C   UNL     1     -37.217  27.751   0.926  0.00  0.00    +0.001 C 
ATOM      7  C   UNL     1     -34.276  28.828   3.012  0.00  0.00    +0.149 A 
ATOM      8  C   UNL     1     -33.444  29.932   3.230  0.00  0.00    +0.041 A 
ATOM      9  C   UNL     1     -36.622  30.024   0.391  0.00  0.00    +0.137 C 
ATOM     10  C   UNL     1     -37.437  28.911   0.192  0.00  0.00    +0.036 C 
ATOM     11  C   UNL     1     -34.753  31.106   1.532  0.00  0.00    +0.142 C 
ATOM     12  C   UNL     1     -33.709  31.076   2.465  0.00  0.00    +0.040 C 
ATOM     13  C   UNL     1     -32.365  29.832   4.224  0.00  0.00    +0.043 A 
ATOM     14  C   UNL     1     -32.188  28.634   4.937  0.00  0.00    +0.079 A 
ATOM     15  C   UNL     1     -33.070  27.469   4.705  0.00  0.00    +0.346 A 
ATOM     16  C   UNL     1     -31.478  30.888   4.511  0.00  0.00    +0.139 C 
ATOM     17  C   UNL     1     -31.169  28.500   5.893  0.00  0.00    +0.007 C 
ATOM     18  C   UNL     1     -30.463  30.755   5.462  0.00  0.00    +0.037 C 
ATOM     19  C   UNL     1     -30.308  29.561   6.154  0.00  0.00    +0.003 C 
ENDROOT
BRANCH   3  21
ATOM     20  O   UNL     1     -37.226  26.123   3.357  0.00  0.00    -0.349 OA
ATOM     21  C   UNL     1     -36.040  26.385   2.597  0.00  0.00    +0.167 C 
ATOM     22  C   UNL     1     -35.723  25.220   1.640  0.00  0.00    +0.171 C 
ATOM     23  C   UNL     1     -35.616  23.902   2.414  0.00  0.00    +0.169 C 
ATOM     24  C   UNL     1     -36.852  23.708   3.301  0.00  0.00    +0.167 C 
ATOM     25  C   UNL     1     -37.184  24.937   4.158  0.00  0.00    +0.145 C 
ATOM     26  C   UNL     1     -36.312  25.136   5.400  0.00  0.00    +0.035 C 
BRANCH  22  27
ATOM     27  O   UNL     1     -36.766  25.098   0.673  0.00  0.00    -0.379 OA
ATOM     28  H   UNL     1     -37.604  25.390   1.062  0.00  0.00    +0.211 HD
ENDBRANCH  22  27
BRANCH  23  29
ATOM     29  O   UNL     1     -34.437  23.909   3.213  0.00  0.00    -0.379 OA
ATOM     30  H   UNL     1     -33.696  24.258   2.693  0.00  0.00    +0.211 HD
ENDBRANCH  23  29
BRANCH  24  31
ATOM     31  O   UNL     1     -36.712  22.552   4.116  0.00  0.00    -0.379 OA
ATOM     32  H   UNL     1     -37.076  22.730   4.996  0.00  0.00    +0.211 HD
ENDBRANCH  24  31
ENDBRANCH   3  21
BRANCH  11  33
ATOM     33  O   UNL     1     -34.917  32.276   0.843  0.00  0.00    -0.471 OA
ATOM     34  C   UNL     1     -34.233  33.419   1.346  0.00  0.00    +0.252 C 
ENDBRANCH  11  33
BRANCH   9  35
ATOM     35  O   UNL     1     -36.902  31.125  -0.368  0.00  0.00    -0.505 OA
ATOM     36  H   UNL     1     -37.600  31.098  -0.993  0.00  0.00    +0.292 HD
ENDBRANCH   9  35
BRANCH  16  37
ATOM     37  O   UNL     1     -31.508  32.114   3.913  0.00  0.00    -0.471 OA
ATOM     38  C   UNL     1     -30.277  32.611   3.394  0.00  0.00    +0.252 C 
ENDBRANCH  16  37
BRANCH  19  39
ATOM     39  C   UNL     1     -29.253  29.421   7.144  0.00  0.00    +0.000 C 
ATOM     40  C   UNL     1     -28.252  28.517   7.125  0.00  0.00    +0.000 C 
ENDBRANCH  19  39
TORSDOF 8
ENDMDL
MODEL 4
REMARK VINA RESULT:      -6.2      1.894      6.714
REMARK  Name = 53802
REMARK  8 active torsions:
REMARK  status: ('A' for Active; 'I' for Inactive)
REMARK    1  A    between atoms: C_3  and  C_21
REMARK    2  A    between atoms: C_9  and  O_35
REMARK    3  A    between atoms: C_11  and  O_33
REMARK    4  A    between atoms: C_16  and  O_37
REMARK    5  A    between atoms: C_19  and  C_39
REMARK    6  A    between atoms: C_22  and  O_27
REMARK    7  A    between atoms: C_23  and  O_29
REMARK    8  A    between atoms: C_24  and  O_31
REMARK                            x       y       z     vdW  Elec       q    Type
REMARK                         _______ _______ _______ _____ _____    ______ ____
ROOT
ATOM      1  O   UNL     1     -39.754  24.802   1.772  0.00  0.00    -0.421 OA
ATOM      2  O   UNL     1     -38.908  26.420   3.138  0.00  0.00    -0.244 OA
ATOM      3  C   UNL     1     -41.761  24.086  -0.105  0.00  0.00    +0.010 C 
ATOM      4  C   UNL     1     -40.753  23.180   0.287  0.00  0.00    +0.039 C 
ATOM      5  C   UNL     1     -40.756  21.887  -0.278  0.00  0.00    +0.070 C 
ATOM      6  C   UNL     1     -42.742  23.721  -1.028  0.00  0.00    +0.001 C 
ATOM      7  C   UNL     1     -39.734  23.494   1.220  0.00  0.00    +0.149 A 
ATOM      8  C   UNL     1     -38.733  22.598   1.610  0.00  0.00    +0.041 A 
ATOM      9  C   UNL     1     -41.750  21.533  -1.207  0.00  0.00    +0.137 C 
ATOM     10  C   UNL     1     -42.737  22.445  -1.578  0.00  0.00    +0.036 C 
ATOM     11  C   UNL     1     -39.763  20.975   0.100  0.00  0.00    +0.142 C 
ATOM     12  C   UNL     1     -38.772  21.325   1.025  0.00  0.00    +0.040 C 
ATOM     13  C   UNL     1     -37.723  23.030   2.587  0.00  0.00    +0.043 A 
ATOM     14  C   UNL     1     -37.779  24.333   3.111  0.00  0.00    +0.079 A 
ATOM     15  C   UNL     1     -38.837  25.279   2.697  0.00  0.00    +0.346 A 
ATOM     16  C   UNL     1     -36.680  22.199   3.040  0.00  0.00    +0.139 C 
ATOM     17  C   UNL     1     -36.833  24.782   4.047  0.00  0.00    +0.007 C 
ATOM     18  C   UNL     1     -35.738  22.644   3.972  0.00  0.00    +0.037 C 
ATOM     19  C   UNL     1     -35.814  23.937   4.476  0.00  0.00    +0.003 C 
ENDROOT
BRANCH   3  21
ATOM     20  O   UNL     1     -42.395  26.365  -0.595  0.00  0.00    -0.349 OA
ATOM     21  C   UNL     1     -41.875  25.504   0.425  0.00  0.00    +0.167 C 
ATOM     22  C   UNL     1     -42.731  25.576   1.704  0.00  0.00    +0.171 C 
ATOM     23  C   UNL     1     -42.847  27.023   2.193  0.00  0.00    +0.169 C 
ATOM     24  C   UNL     1     -43.299  27.934   1.046  0.00  0.00    +0.167 C 
ATOM     25  C   UNL     1     -42.478  27.748  -0.238  0.00  0.00    +0.145 C 
ATOM     26  C   UNL     1     -41.098  28.408  -0.245  0.00  0.00    +0.035 C 
BRANCH  22  27
ATOM     27  O   UNL     1     -44.042  25.080   1.431  0.00  0.00    -0.379 OA
ATOM     28  H   UNL     1     -44.489  25.674   0.809  0.00  0.00    +0.211 HD
ENDBRANCH  22  27
BRANCH  23  29
ATOM     29  O   UNL     1     -41.589  27.461   2.698  0.00  0.00    -0.379 OA
ATOM     30  H   UNL     1     -41.705  27.811   3.595  0.00  0.00    +0.211 HD
ENDBRANCH  23  29
BRANCH  24  31
ATOM     31  O   UNL     1     -43.293  29.297   1.451  0.00  0.00    -0.379 OA
ATOM     32  H   UNL     1     -42.449  29.705   1.204  0.00  0.00    +0.211 HD
ENDBRANCH  24  31
ENDBRANCH   3  21
BRANCH  11  33
ATOM     33  O   UNL     1     -39.700  19.705  -0.405  0.00  0.00    -0.471 OA
ATOM     34  C   UNL     1     -38.408  19.210  -0.737  0.00  0.00    +0.252 C 
ENDBRANCH  11  33
BRANCH   9  35
ATOM     35  O   UNL     1     -41.811  20.299  -1.791  0.00  0.00    -0.505 OA
ATOM     36  H   UNL     1     -42.640  19.876  -1.905  0.00  0.00    +0.292 HD
ENDBRANCH   9  35
BRANCH  16  37
ATOM     37  O   UNL     1     -36.480  20.911   2.636  0.00  0.00    -0.471 OA
ATOM     38  C   UNL     1     -35.149  20.545   2.278  0.00  0.00    +0.252 C 
ENDBRANCH  16  37
BRANCH  19  39
ATOM     39  C   UNL     1     -34.835  24.402   5.444  0.00  0.00    +0.000 C 
ATOM     40  C   UNL     1     -34.447  25.680   5.639  0.00  0.00    +0.000 C 
ENDBRANCH  19  39
TORSDOF 8
ENDMDL
MODEL 5
REMARK VINA RESULT:      -6.1      3.947      8.094
REMARK  Name = 53802
REMARK  8 active torsions:
REMARK  status: ('A' for Active; 'I' for Inactive)
REMARK    1  A    between atoms: C_3  and  C_21
REMARK    2  A    between atoms: C_9  and  O_35
REMARK    3  A    between atoms: C_11  and  O_33
REMARK    4  A    between atoms: C_16  and  O_37
REMARK    5  A    between atoms: C_19  and  C_39
REMARK    6  A    between atoms: C_22  and  O_27
REMARK    7  A    between atoms: C_23  and  O_29
REMARK    8  A    between atoms: C_24  and  O_31
REMARK                            x       y       z     vdW  Elec       q    Type
REMARK                         _______ _______ _______ _____ _____    ______ ____
ROOT
ATOM      1  O   UNL     1     -33.525  27.989   3.833  0.00  0.00    -0.421 OA
ATOM      2  O   UNL     1     -32.574  26.801   5.531  0.00  0.00    -0.244 OA
ATOM      3  C   UNL     1     -33.402  30.302   2.189  0.00  0.00    +0.010 C 
ATOM      4  C   UNL     1     -34.430  29.345   2.051  0.00  0.00    +0.039 C 
ATOM      5  C   UNL     1     -35.416  29.557   1.064  0.00  0.00    +0.070 C 
ATOM      6  C   UNL     1     -33.353  31.434   1.374  0.00  0.00    +0.001 C 
ATOM      7  C   UNL     1     -34.530  28.179   2.849  0.00  0.00    +0.149 A 
ATOM      8  C   UNL     1     -35.549  27.229   2.713  0.00  0.00    +0.041 A 
ATOM      9  C   UNL     1     -35.355  30.702   0.250  0.00  0.00    +0.137 C 
ATOM     10  C   UNL     1     -34.330  31.634   0.405  0.00  0.00    +0.036 C 
ATOM     11  C   UNL     1     -36.444  28.619   0.912  0.00  0.00    +0.142 C 
ATOM     12  C   UNL     1     -36.507  27.477   1.721  0.00  0.00    +0.040 C 
ATOM     13  C   UNL     1     -35.556  26.054   3.597  0.00  0.00    +0.043 A 
ATOM     14  C   UNL     1     -34.544  25.903   4.559  0.00  0.00    +0.079 A 
ATOM     15  C   UNL     1     -33.468  26.909   4.701  0.00  0.00    +0.346 A 
ATOM     16  C   UNL     1     -36.539  25.047   3.535  0.00  0.00    +0.139 C 
ATOM     17  C   UNL     1     -34.518  24.796   5.422  0.00  0.00    +0.007 C 
ATOM     18  C   UNL     1     -36.515  23.943   4.393  0.00  0.00    +0.037 C 
ATOM     19  C   UNL     1     -35.503  23.817   5.337  0.00  0.00    +0.003 C 
ENDROOT
BRANCH   3  21
ATOM     20  O   UNL     1     -31.026  30.035   2.538  0.00  0.00    -0.349 OA
ATOM     21  C   UNL     1     -32.282  30.196   3.209  0.00  0.00    +0.167 C 
ATOM     22  C   UNL     1     -32.253  31.406   4.162  0.00  0.00    +0.171 C 
ATOM     23  C   UNL     1     -31.096  31.279   5.157  0.00  0.00    +0.169 C 
ATOM     24  C   UNL     1     -29.786  30.997   4.412  0.00  0.00    +0.167 C 
ATOM     25  C   UNL     1     -29.898  29.849   3.399  0.00  0.00    +0.145 C 
ATOM     26  C   UNL     1     -29.876  28.438   3.989  0.00  0.00    +0.035 C 
BRANCH  22  27
ATOM     27  O   UNL     1     -32.078  32.605   3.408  0.00  0.00    -0.379 OA
ATOM     28  H   UNL     1     -32.727  32.633   2.689  0.00  0.00    +0.211 HD
ENDBRANCH  22  27
BRANCH  23  29
ATOM     29  O   UNL     1     -31.369  30.228   6.080  0.00  0.00    -0.379 OA
ATOM     30  H   UNL     1     -30.567  29.700   6.214  0.00  0.00    +0.211 HD
ENDBRANCH  23  29
BRANCH  24  31
ATOM     31  O   UNL     1     -28.726  30.756   5.327  0.00  0.00    -0.379 OA
ATOM     32  H   UNL     1     -27.894  31.086   4.953  0.00  0.00    +0.211 HD
ENDBRANCH  24  31
ENDBRANCH   3  21
BRANCH  11  33
ATOM     33  O   UNL     1     -37.433  28.756  -0.022  0.00  0.00    -0.471 OA
ATOM     34  C   UNL     1     -38.488  27.799   0.015  0.00  0.00    +0.252 C 
ENDBRANCH  11  33
BRANCH   9  35
ATOM     35  O   UNL     1     -36.276  30.969  -0.723  0.00  0.00    -0.505 OA
ATOM     36  H   UNL     1     -36.770  30.268  -1.104  0.00  0.00    +0.292 HD
ENDBRANCH   9  35
BRANCH  16  37
ATOM     37  O   UNL     1     -37.589  25.036   2.664  0.00  0.00    -0.471 OA
ATOM     38  C   UNL     1     -38.892  24.887   3.223  0.00  0.00    +0.252 C 
ENDBRANCH  16  37
BRANCH  19  39
ATOM     39  C   UNL     1     -35.476  22.671   6.229  0.00  0.00    +0.000 C 
ATOM     40  C   UNL     1     -35.071  21.422   5.916  0.00  0.00    +0.000 C 
ENDBRANCH  19  39
TORSDOF 8
ENDMDL
MODEL 6
REMARK VINA RESULT:      -6.1      1.981      6.413
REMARK  Name = 53802
REMARK  8 active torsions:
REMARK  status: ('A' for Active; 'I' for Inactive)
REMARK    1  A    between atoms: C_3  and  C_21
REMARK    2  A    between atoms: C_9  and  O_35
REMARK    3  A    between atoms: C_11  and  O_33
REMARK    4  A    between atoms: C_16  and  O_37
REMARK    5  A    between atoms: C_19  and  C_39
REMARK    6  A    between atoms: C_22  and  O_27
REMARK    7  A    between atoms: C_23  and  O_29
REMARK    8  A    between atoms: C_24  and  O_31
REMARK                            x       y       z     vdW  Elec       q    Type
REMARK                         _______ _______ _______ _____ _____    ______ ____
ROOT
ATOM      1  O   UNL     1     -36.637  22.435   1.308  0.00  0.00    -0.421 OA
ATOM      2  O   UNL     1     -34.445  22.303   1.922  0.00  0.00    -0.244 OA
ATOM      3  C   UNL     1     -38.985  24.028   1.205  0.00  0.00    +0.010 C 
ATOM      4  C   UNL     1     -38.961  22.707   0.709  0.00  0.00    +0.039 C 
ATOM      5  C   UNL     1     -40.143  22.178   0.149  0.00  0.00    +0.070 C 
ATOM      6  C   UNL     1     -40.147  24.800   1.148  0.00  0.00    +0.001 C 
ATOM      7  C   UNL     1     -37.813  21.878   0.740  0.00  0.00    +0.149 A 
ATOM      8  C   UNL     1     -37.785  20.568   0.249  0.00  0.00    +0.041 A 
ATOM      9  C   UNL     1     -41.306  22.967   0.098  0.00  0.00    +0.137 C 
ATOM     10  C   UNL     1     -41.307  24.269   0.595  0.00  0.00    +0.036 C 
ATOM     11  C   UNL     1     -40.137  20.869  -0.348  0.00  0.00    +0.142 C 
ATOM     12  C   UNL     1     -38.980  20.081  -0.299  0.00  0.00    +0.040 C 
ATOM     13  C   UNL     1     -36.538  19.795   0.333  0.00  0.00    +0.043 A 
ATOM     14  C   UNL     1     -35.396  20.383   0.903  0.00  0.00    +0.079 A 
ATOM     15  C   UNL     1     -35.426  21.768   1.421  0.00  0.00    +0.346 A 
ATOM     16  C   UNL     1     -36.415  18.472  -0.134  0.00  0.00    +0.139 C 
ATOM     17  C   UNL     1     -34.186  19.676   1.002  0.00  0.00    +0.007 C 
ATOM     18  C   UNL     1     -35.212  17.767  -0.036  0.00  0.00    +0.037 C 
ATOM     19  C   UNL     1     -34.096  18.370   0.532  0.00  0.00    +0.003 C 
ENDROOT
BRANCH   3  21
ATOM     20  O   UNL     1     -37.840  26.124   1.565  0.00  0.00    -0.349 OA
ATOM     21  C   UNL     1     -37.787  24.717   1.832  0.00  0.00    +0.167 C 
ATOM     22  C   UNL     1     -37.687  24.440   3.344  0.00  0.00    +0.171 C 
ATOM     23  C   UNL     1     -36.484  25.173   3.946  0.00  0.00    +0.169 C 
ATOM     24  C   UNL     1     -36.514  26.653   3.549  0.00  0.00    +0.167 C 
ATOM     25  C   UNL     1     -36.719  26.875   2.043  0.00  0.00    +0.145 C 
ATOM     26  C   UNL     1     -35.486  26.654   1.165  0.00  0.00    +0.035 C 
BRANCH  22  27
ATOM     27  O   UNL     1     -38.873  24.898   3.993  0.00  0.00    -0.379 OA
ATOM     28  H   UNL     1     -39.622  24.343   3.727  0.00  0.00    +0.211 HD
ENDBRANCH  22  27
BRANCH  23  29
ATOM     29  O   UNL     1     -35.277  24.569   3.492  0.00  0.00    -0.379 OA
ATOM     30  H   UNL     1     -35.204  23.675   3.861  0.00  0.00    +0.211 HD
ENDBRANCH  23  29
BRANCH  24  31
ATOM     31  O   UNL     1     -35.342  27.320   3.997  0.00  0.00    -0.379 OA
ATOM     32  H   UNL     1     -34.691  26.666   4.296  0.00  0.00    +0.211 HD
ENDBRANCH  24  31
ENDBRANCH   3  21
BRANCH  11  33
ATOM     33  O   UNL     1     -41.243  20.289  -0.905  0.00  0.00    -0.471 OA
ATOM     34  C   UNL     1     -41.015  19.294  -1.898  0.00  0.00    +0.252 C 
ENDBRANCH  11  33
BRANCH   9  35
ATOM     35  O   UNL     1     -42.483  22.517  -0.430  0.00  0.00    -0.505 OA
ATOM     36  H   UNL     1     -42.983  21.869   0.027  0.00  0.00    +0.292 HD
ENDBRANCH   9  35
BRANCH  16  37
ATOM     37  O   UNL     1     -37.421  17.754  -0.712  0.00  0.00    -0.471 OA
ATOM     38  C   UNL     1     -37.708  16.476  -0.150  0.00  0.00    +0.252 C 
ENDBRANCH  16  37
BRANCH  19  39
ATOM     39  C   UNL     1     -32.844  17.640   0.635  0.00  0.00    +0.000 C 
ATOM     40  C   UNL     1     -31.700  18.087   1.194  0.00  0.00    +0.000 C 
ENDBRANCH  19  39
TORSDOF 8
ENDMDL
MODEL 7
REMARK VINA RESULT:      -6.0      6.505     10.519
REMARK  Name = 53802
REMARK  8 active torsions:
REMARK  status: ('A' for Active; 'I' for Inactive)
REMARK    1  A    between atoms: C_3  and  C_21
REMARK    2  A    between atoms: C_9  and  O_35
REMARK    3  A    between atoms: C_11  and  O_33
REMARK    4  A    between atoms: C_16  and  O_37
REMARK    5  A    between atoms: C_19  and  C_39
REMARK    6  A    between atoms: C_22  and  O_27
REMARK    7  A    between atoms: C_23  and  O_29
REMARK    8  A    between atoms: C_24  and  O_31
REMARK                            x       y       z     vdW  Elec       q    Type
REMARK                         _______ _______ _______ _____ _____    ______ ____
ROOT
ATOM      1  O   UNL     1     -31.411  31.188   3.730  0.00  0.00    -0.421 OA
ATOM      2  O   UNL     1     -29.670  32.608   4.118  0.00  0.00    -0.244 OA
ATOM      3  C   UNL     1     -32.417  28.542   3.959  0.00  0.00    +0.010 C 
ATOM      4  C   UNL     1     -33.177  29.579   3.376  0.00  0.00    +0.039 C 
ATOM      5  C   UNL     1     -34.470  29.277   2.899  0.00  0.00    +0.070 C 
ATOM      6  C   UNL     1     -32.924  27.246   4.065  0.00  0.00    +0.001 C 
ATOM      7  C   UNL     1     -32.714  30.911   3.241  0.00  0.00    +0.149 A 
ATOM      8  C   UNL     1     -33.466  31.941   2.663  0.00  0.00    +0.041 A 
ATOM      9  C   UNL     1     -34.968  27.966   3.012  0.00  0.00    +0.137 C 
ATOM     10  C   UNL     1     -34.199  26.958   3.591  0.00  0.00    +0.036 C 
ATOM     11  C   UNL     1     -35.238  30.293   2.317  0.00  0.00    +0.142 C 
ATOM     12  C   UNL     1     -34.745  31.598   2.203  0.00  0.00    +0.040 C 
ATOM     13  C   UNL     1     -32.886  33.289   2.574  0.00  0.00    +0.043 A 
ATOM     14  C   UNL     1     -31.592  33.521   3.068  0.00  0.00    +0.079 A 
ATOM     15  C   UNL     1     -30.799  32.432   3.679  0.00  0.00    +0.346 A 
ATOM     16  C   UNL     1     -33.566  34.386   2.009  0.00  0.00    +0.139 C 
ATOM     17  C   UNL     1     -31.004  34.795   2.999  0.00  0.00    +0.007 C 
ATOM     18  C   UNL     1     -32.982  35.654   1.940  0.00  0.00    +0.037 C 
ATOM     19  C   UNL     1     -31.701  35.859   2.436  0.00  0.00    +0.003 C 
ENDROOT
BRANCH   3  21
ATOM     20  O   UNL     1     -30.860  27.970   5.715  0.00  0.00    -0.349 OA
ATOM     21  C   UNL     1     -31.015  28.730   4.509  0.00  0.00    +0.167 C 
ATOM     22  C   UNL     1     -29.934  28.362   3.475  0.00  0.00    +0.171 C 
ATOM     23  C   UNL     1     -28.535  28.536   4.074  0.00  0.00    +0.169 C 
ATOM     24  C   UNL     1     -28.440  27.802   5.417  0.00  0.00    +0.167 C 
ATOM     25  C   UNL     1     -29.598  28.126   6.371  0.00  0.00    +0.145 C 
ATOM     26  C   UNL     1     -29.508  29.472   7.091  0.00  0.00    +0.035 C 
BRANCH  22  27
ATOM     27  O   UNL     1     -30.095  26.999   3.080  0.00  0.00    -0.379 OA
ATOM     28  H   UNL     1     -30.118  26.435   3.867  0.00  0.00    +0.211 HD
ENDBRANCH  22  27
BRANCH  23  29
ATOM     29  O   UNL     1     -28.260  29.922   4.255  0.00  0.00    -0.379 OA
ATOM     30  H   UNL     1     -28.870  30.446   3.713  0.00  0.00    +0.211 HD
ENDBRANCH  23  29
BRANCH  24  31
ATOM     31  O   UNL     1     -27.189  28.055   6.043  0.00  0.00    -0.379 OA
ATOM     32  H   UNL     1     -27.294  28.756   6.704  0.00  0.00    +0.211 HD
ENDBRANCH  24  31
ENDBRANCH   3  21
BRANCH  11  33
ATOM     33  O   UNL     1     -36.499  30.076   1.834  0.00  0.00    -0.471 OA
ATOM     34  C   UNL     1     -36.799  30.627   0.555  0.00  0.00    +0.252 C 
ENDBRANCH  11  33
BRANCH   9  35
ATOM     35  O   UNL     1     -36.210  27.606   2.571  0.00  0.00    -0.505 OA
ATOM     36  H   UNL     1     -36.973  27.895   3.034  0.00  0.00    +0.292 HD
ENDBRANCH   9  35
BRANCH  16  37
ATOM     37  O   UNL     1     -34.824  34.336   1.484  0.00  0.00    -0.471 OA
ATOM     38  C   UNL     1     -34.978  34.763   0.133  0.00  0.00    +0.252 C 
ENDBRANCH  16  37
BRANCH  19  39
ATOM     39  C   UNL     1     -31.092  37.177   2.365  0.00  0.00    +0.000 C 
ATOM     40  C   UNL     1     -31.062  38.099   3.351  0.00  0.00    +0.000 C 
ENDBRANCH  19  39
TORSDOF 8
ENDMDL
MODEL 8
REMARK VINA RESULT:      -6.0      3.681      7.135
REMARK  Name = 53802
REMARK  8 active torsions:
REMARK  status: ('A' for Active; 'I' for Inactive)
REMARK    1  A    between atoms: C_3  and  C_21
REMARK    2  A    between atoms: C_9  and  O_35
REMARK    3  A    between atoms: C_11  and  O_33
REMARK    4  A    between atoms: C_16  and  O_37
REMARK    5  A    between atoms: C_19  and  C_39
REMARK    6  A    between atoms: C_22  and  O_27
REMARK    7  A    between atoms: C_23  and  O_29
REMARK    8  A    between atoms: C_24  and  O_31
REMARK                            x       y       z     vdW  Elec       q    Type
REMARK                         _______ _______ _______ _____ _____    ______ ____
ROOT
ATOM      1  O   UNL     1     -35.469  27.783   2.467  0.00  0.00    -0.421 OA
ATOM      2  O   UNL     1     -33.976  27.396   4.146  0.00  0.00    -0.244 OA
ATOM      3  C   UNL     1     -36.373  29.572   0.455  0.00  0.00    +0.010 C 
ATOM      4  C   UNL     1     -36.989  28.320   0.669  0.00  0.00    +0.039 C 
ATOM      5  C   UNL     1     -38.083  27.962  -0.148  0.00  0.00    +0.070 C 
ATOM      6  C   UNL     1     -36.828  30.442  -0.537  0.00  0.00    +0.001 C 
ATOM      7  C   UNL     1     -36.572  27.398   1.660  0.00  0.00    +0.149 A 
ATOM      8  C   UNL     1     -37.181  26.157   1.874  0.00  0.00    +0.041 A 
ATOM      9  C   UNL     1     -38.530  28.848  -1.144  0.00  0.00    +0.137 C 
ATOM     10  C   UNL     1     -37.906  30.080  -1.336  0.00  0.00    +0.036 C 
ATOM     11  C   UNL     1     -38.707  26.725   0.050  0.00  0.00    +0.142 C 
ATOM     12  C   UNL     1     -38.263  25.840   1.041  0.00  0.00    +0.040 C 
ATOM     13  C   UNL     1     -36.666  25.277   2.933  0.00  0.00    +0.043 A 
ATOM     14  C   UNL     1     -35.573  25.695   3.711  0.00  0.00    +0.079 A 
ATOM     15  C   UNL     1     -34.929  27.008   3.483  0.00  0.00    +0.346 A 
ATOM     16  C   UNL     1     -37.214  24.012   3.222  0.00  0.00    +0.139 C 
ATOM     17  C   UNL     1     -35.053  24.883   4.732  0.00  0.00    +0.007 C 
ATOM     18  C   UNL     1     -36.697  23.203   4.238  0.00  0.00    +0.037 C 
ATOM     19  C   UNL     1     -35.616  23.638   4.993  0.00  0.00    +0.003 C 
ENDROOT
BRANCH   3  21
ATOM     20  O   UNL     1     -34.375  30.930   0.446  0.00  0.00    -0.349 OA
ATOM     21  C   UNL     1     -35.192  30.079   1.261  0.00  0.00    +0.167 C 
ATOM     22  C   UNL     1     -35.637  30.802   2.547  0.00  0.00    +0.171 C 
ATOM     23  C   UNL     1     -34.421  31.324   3.319  0.00  0.00    +0.169 C 
ATOM     24  C   UNL     1     -33.513  32.137   2.389  0.00  0.00    +0.167 C 
ATOM     25  C   UNL     1     -33.184  31.412   1.076  0.00  0.00    +0.145 C 
ATOM     26  C   UNL     1     -32.121  30.316   1.170  0.00  0.00    +0.035 C 
BRANCH  22  27
ATOM     27  O   UNL     1     -36.473  31.908   2.209  0.00  0.00    -0.379 OA
ATOM     28  H   UNL     1     -37.251  31.915   2.788  0.00  0.00    +0.211 HD
ENDBRANCH  22  27
BRANCH  23  29
ATOM     29  O   UNL     1     -33.698  30.229   3.874  0.00  0.00    -0.379 OA
ATOM     30  H   UNL     1     -32.959  30.001   3.289  0.00  0.00    +0.211 HD
ENDBRANCH  23  29
BRANCH  24  31
ATOM     31  O   UNL     1     -32.321  32.525   3.059  0.00  0.00    -0.379 OA
ATOM     32  H   UNL     1     -31.823  31.735   3.318  0.00  0.00    +0.211 HD
ENDBRANCH  24  31
ENDBRANCH   3  21
BRANCH  11  33
ATOM     33  O   UNL     1     -39.770  26.309  -0.702  0.00  0.00    -0.471 OA
ATOM     34  C   UNL     1     -40.708  25.446  -0.066  0.00  0.00    +0.252 C 
ENDBRANCH  11  33
BRANCH   9  35
ATOM     35  O   UNL     1     -39.582  28.565  -1.968  0.00  0.00    -0.505 OA
ATOM     36  H   UNL     1     -40.381  28.230  -1.609  0.00  0.00    +0.292 HD
ENDBRANCH   9  35
BRANCH  16  37
ATOM     37  O   UNL     1     -38.273  23.455   2.566  0.00  0.00    -0.471 OA
ATOM     38  C   UNL     1     -38.142  22.092   2.169  0.00  0.00    +0.252 C 
ENDBRANCH  16  37
BRANCH  19  39
ATOM     39  C   UNL     1     -35.077  22.799   6.050  0.00  0.00    +0.000 C 
ATOM     40  C   UNL     1     -35.082  21.449   6.081  0.00  0.00    +0.000 C 
ENDBRANCH  19  39
TORSDOF 8
ENDMDL
MODEL 9
REMARK VINA RESULT:      -6.0      4.532      7.043
REMARK  Name = 53802
REMARK  8 active torsions:
REMARK  status: ('A' for Active; 'I' for Inactive)
REMARK    1  A    between atoms: C_3  and  C_21
REMARK    2  A    between atoms: C_9  and  O_35
REMARK    3  A    between atoms: C_11  and  O_33
REMARK    4  A    between atoms: C_16  and  O_37
REMARK    5  A    between atoms: C_19  and  C_39
REMARK    6  A    between atoms: C_22  and  O_27
REMARK    7  A    between atoms: C_23  and  O_29
REMARK    8  A    between atoms: C_24  and  O_31
REMARK                            x       y       z     vdW  Elec       q    Type
REMARK                         _______ _______ _______ _____ _____    ______ ____
ROOT
ATOM      1  O   UNL     1     -33.934  29.653   3.114  0.00  0.00    -0.421 OA
ATOM      2  O   UNL     1     -33.133  31.785   3.217  0.00  0.00    -0.244 OA
ATOM      3  C   UNL     1     -33.590  26.944   3.892  0.00  0.00    +0.010 C 
ATOM      4  C   UNL     1     -34.672  27.353   3.083  0.00  0.00    +0.039 C 
ATOM      5  C   UNL     1     -35.600  26.378   2.659  0.00  0.00    +0.070 C 
ATOM      6  C   UNL     1     -33.433  25.608   4.268  0.00  0.00    +0.001 C 
ATOM      7  C   UNL     1     -34.881  28.692   2.671  0.00  0.00    +0.149 A 
ATOM      8  C   UNL     1     -35.953  29.101   1.870  0.00  0.00    +0.041 A 
ATOM      9  C   UNL     1     -35.429  25.037   3.045  0.00  0.00    +0.137 C 
ATOM     10  C   UNL     1     -34.352  24.655   3.843  0.00  0.00    +0.036 C 
ATOM     11  C   UNL     1     -36.679  26.767   1.856  0.00  0.00    +0.142 C 
ATOM     12  C   UNL     1     -36.851  28.102   1.470  0.00  0.00    +0.040 C 
ATOM     13  C   UNL     1     -36.073  30.519   1.500  0.00  0.00    +0.043 A 
ATOM     14  C   UNL     1     -35.114  31.438   1.957  0.00  0.00    +0.079 A 
ATOM     15  C   UNL     1     -33.982  31.004   2.805  0.00  0.00    +0.346 A 
ATOM     16  C   UNL     1     -37.115  31.023   0.698  0.00  0.00    +0.139 C 
ATOM     17  C   UNL     1     -35.195  32.800   1.625  0.00  0.00    +0.007 C 
ATOM     18  C   UNL     1     -37.197  32.378   0.366  0.00  0.00    +0.037 C 
ATOM     19  C   UNL     1     -36.236  33.268   0.830  0.00  0.00    +0.003 C 
ENDROOT
BRANCH   3  21
ATOM     20  O   UNL     1     -32.052  27.430   5.690  0.00  0.00    -0.349 OA
ATOM     21  C   UNL     1     -32.523  27.887   4.416  0.00  0.00    +0.167 C 
ATOM     22  C   UNL     1     -31.360  28.054   3.419  0.00  0.00    +0.171 C 
ATOM     23  C   UNL     1     -30.291  28.989   3.992  0.00  0.00    +0.169 C 
ATOM     24  C   UNL     1     -29.891  28.534   5.400  0.00  0.00    +0.167 C 
ATOM     25  C   UNL     1     -31.092  28.282   6.323  0.00  0.00    +0.145 C 
ATOM     26  C   UNL     1     -31.756  29.531   6.905  0.00  0.00    +0.035 C 
BRANCH  22  27
ATOM     27  O   UNL     1     -30.765  26.783   3.161  0.00  0.00    -0.379 OA
ATOM     28  H   UNL     1     -31.234  26.347   2.434  0.00  0.00    +0.211 HD
ENDBRANCH  22  27
BRANCH  23  29
ATOM     29  O   UNL     1     -30.791  30.322   4.033  0.00  0.00    -0.379 OA
ATOM     30  H   UNL     1     -31.164  30.554   3.169  0.00  0.00    +0.211 HD
ENDBRANCH  23  29
BRANCH  24  31
ATOM     31  O   UNL     1     -28.990  29.460   5.993  0.00  0.00    -0.379 OA
ATOM     32  H   UNL     1     -29.455  30.289   6.183  0.00  0.00    +0.211 HD
ENDBRANCH  24  31
ENDBRANCH   3  21
BRANCH  11  33
ATOM     33  O   UNL     1     -37.617  25.880   1.406  0.00  0.00    -0.471 OA
ATOM     34  C   UNL     1     -38.979  26.185   1.692  0.00  0.00    +0.252 C 
ENDBRANCH  11  33
BRANCH   9  35
ATOM     35  O   UNL     1     -36.289  24.044   2.669  0.00  0.00    -0.505 OA
ATOM     36  H   UNL     1     -36.309  23.755   1.777  0.00  0.00    +0.292 HD
ENDBRANCH   9  35
BRANCH  16  37
ATOM     37  O   UNL     1     -38.126  30.271   0.172  0.00  0.00    -0.471 OA
ATOM     38  C   UNL     1     -39.261  30.974  -0.328  0.00  0.00    +0.252 C 
ENDBRANCH  16  37
BRANCH  19  39
ATOM     39  C   UNL     1     -36.319  34.677   0.487  0.00  0.00    +0.000 C 
ATOM     40  C   UNL     1     -37.128  35.594   1.059  0.00  0.00    +0.000 C 
ENDBRANCH  19  39
TORSDOF 8
ENDMDL
