MODEL 1
REMARK VINA RESULT:      -6.7      0.000      0.000
REMARK  Name = 20054813
REMARK  11 active torsions:
REMARK  status: ('A' for Active; 'I' for Inactive)
REMARK    1  A    between atoms: N_1  and  C_37
REMARK    2  A    between atoms: C_8  and  O_21
REMARK    3  A    between atoms: C_9  and  O_23
REMARK    4  A    between atoms: C_10  and  C_39
REMARK    5  A    between atoms: C_11  and  O_25
REMARK    6  A    between atoms: C_13  and  O_27
REMARK    7  A    between atoms: C_14  and  O_29
REMARK    8  A    between atoms: C_15  and  O_31
REMARK    9  A    between atoms: C_17  and  O_35
REMARK   10  A    between atoms: C_18  and  O_33
REMARK   11  A    between atoms: C_39  and  O_40
REMARK                            x       y       z     vdW  Elec       q    Type
REMARK                         _______ _______ _______ _____ _____    ______ ____
ROOT
ATOM      1  N   UNL     1     -37.338  25.125   3.253  0.00  0.00    +0.389 N 
ATOM      2  C   UNL     1     -35.245  24.261   2.183  0.00  0.00    +0.011 C 
ATOM      3  C   UNL     1     -34.633  24.341   3.638  0.00  0.00    +0.030 C 
ATOM      4  C   UNL     1     -34.701  23.053   1.318  0.00  0.00    +0.008 C 
ATOM      5  C   UNL     1     -36.709  23.960   2.594  0.00  0.00    -0.051 C 
ATOM      6  C   UNL     1     -36.478  22.716   3.497  0.00  0.00    +0.036 C 
ATOM      7  C   UNL     1     -34.877  21.607   1.850  0.00  0.00    +0.056 C 
ATOM      8  C   UNL     1     -36.208  21.450   2.632  0.00  0.00    +0.118 C 
ATOM      9  C   UNL     1     -35.189  23.052   4.308  0.00  0.00    +0.116 C 
ATOM     10  C   UNL     1     -35.121  25.677   4.311  0.00  0.00    +0.036 C 
ATOM     11  C   UNL     1     -35.005  25.565   1.356  0.00  0.00    +0.116 C 
ATOM     12  C   UNL     1     -35.339  22.975  -0.097  0.00  0.00    +0.032 C 
ATOM     13  C   UNL     1     -35.834  21.529  -0.282  0.00  0.00    +0.140 C 
ATOM     14  C   UNL     1     -34.826  20.766   0.567  0.00  0.00    +0.140 C 
ATOM     15  C   UNL     1     -37.384  20.992   1.724  0.00  0.00    +0.164 C 
ATOM     16  C   UNL     1     -36.670  25.593   4.469  0.00  0.00    -0.072 C 
ATOM     17  C   UNL     1     -34.646  26.916   3.470  0.00  0.00    +0.113 C 
ATOM     18  C   UNL     1     -37.284  21.364   0.231  0.00  0.00    +0.171 C 
ATOM     19  C   UNL     1     -34.136  26.582   2.076  0.00  0.00    +0.059 C 
ATOM     20  H   UNL     1     -37.216  25.882   2.579  0.00  0.00    -0.080 HD
ENDROOT
BRANCH   8  21
ATOM     21  O   UNL     1     -36.004  20.365   3.566  0.00  0.00    -0.384 OA
ATOM     22  H   UNL     1     -36.690  19.692   3.435  0.00  0.00    +0.210 HD
ENDBRANCH   8  21
BRANCH   9  23
ATOM     23  O   UNL     1     -35.467  23.134   5.691  0.00  0.00    -0.354 OA
ATOM     24  C   UNL     1     -35.129  21.930   6.371  0.00  0.00    +0.174 C 
ENDBRANCH   9  23
BRANCH  11  25
ATOM     25  O   UNL     1     -36.212  26.176   0.912  0.00  0.00    -0.354 OA
ATOM     26  C   UNL     1     -35.999  26.958  -0.254  0.00  0.00    +0.174 C 
ENDBRANCH  11  25
BRANCH  13  27
ATOM     27  O   UNL     1     -35.735  21.195  -1.656  0.00  0.00    -0.382 OA
ATOM     28  H   UNL     1     -36.509  20.672  -1.919  0.00  0.00    +0.210 HD
ENDBRANCH  13  27
BRANCH  14  29
ATOM     29  O   UNL     1     -35.157  19.409   0.780  0.00  0.00    -0.382 OA
ATOM     30  H   UNL     1     -36.009  19.215   0.359  0.00  0.00    +0.210 HD
ENDBRANCH  14  29
BRANCH  15  31
ATOM     31  O   UNL     1     -38.646  21.445   2.218  0.00  0.00    -0.380 OA
ATOM     32  H   UNL     1     -38.707  22.408   2.116  0.00  0.00    +0.211 HD
ENDBRANCH  15  31
BRANCH  18  33
ATOM     33  O   UNL     1     -37.915  20.305  -0.506  0.00  0.00    -0.349 OA
ATOM     34  C   UNL     1     -39.116  20.752  -1.108  0.00  0.00    +0.174 C 
ENDBRANCH  18  33
BRANCH  17  35
ATOM     35  O   UNL     1     -35.660  27.912   3.351  0.00  0.00    -0.384 OA
ATOM     36  H   UNL     1     -35.259  28.791   3.419  0.00  0.00    +0.210 HD
ENDBRANCH  17  35
BRANCH   1  37
ATOM     37  C   UNL     1     -38.768  24.928   3.477  0.00  0.00    -0.077 C 
ATOM     38  C   UNL     1     -39.526  24.870   2.162  0.00  0.00    -0.025 C 
ENDBRANCH   1  37
BRANCH  10  39
ATOM     39  C   UNL     1     -34.502  25.884   5.717  0.00  0.00    +0.142 C 
BRANCH  39  40
ATOM     40  O   UNL     1     -33.702  27.041   5.665  0.00  0.00    -0.351 OA
ATOM     41  C   UNL     1     -32.772  27.097   6.744  0.00  0.00    +0.174 C 
ENDBRANCH  39  40
ENDBRANCH  10  39
TORSDOF 11
ENDMDL
MODEL 2
REMARK VINA RESULT:      -6.0      2.311      4.207
REMARK  Name = 20054813
REMARK  11 active torsions:
REMARK  status: ('A' for Active; 'I' for Inactive)
REMARK    1  A    between atoms: N_1  and  C_37
REMARK    2  A    between atoms: C_8  and  O_21
REMARK    3  A    between atoms: C_9  and  O_23
REMARK    4  A    between atoms: C_10  and  C_39
REMARK    5  A    between atoms: C_11  and  O_25
REMARK    6  A    between atoms: C_13  and  O_27
REMARK    7  A    between atoms: C_14  and  O_29
REMARK    8  A    between atoms: C_15  and  O_31
REMARK    9  A    between atoms: C_17  and  O_35
REMARK   10  A    between atoms: C_18  and  O_33
REMARK   11  A    between atoms: C_39  and  O_40
REMARK                            x       y       z     vdW  Elec       q    Type
REMARK                         _______ _______ _______ _____ _____    ______ ____
ROOT
ATOM      1  N   UNL     1     -34.721  27.888   1.770  0.00  0.00    +0.389 N 
ATOM      2  C   UNL     1     -33.783  25.601   2.172  0.00  0.00    +0.011 C 
ATOM      3  C   UNL     1     -32.727  26.346   3.083  0.00  0.00    +0.030 C 
ATOM      4  C   UNL     1     -34.193  24.167   2.697  0.00  0.00    +0.008 C 
ATOM      5  C   UNL     1     -34.970  26.573   2.399  0.00  0.00    -0.051 C 
ATOM      6  C   UNL     1     -35.021  26.566   3.952  0.00  0.00    +0.036 C 
ATOM      7  C   UNL     1     -34.801  24.031   4.117  0.00  0.00    +0.056 C 
ATOM      8  C   UNL     1     -35.681  25.258   4.476  0.00  0.00    +0.118 C 
ATOM      9  C   UNL     1     -33.525  26.584   4.396  0.00  0.00    +0.116 C 
ATOM     10  C   UNL     1     -32.282  27.667   2.352  0.00  0.00    +0.036 C 
ATOM     11  C   UNL     1     -33.293  25.430   0.698  0.00  0.00    +0.116 C 
ATOM     12  C   UNL     1     -35.255  23.466   1.804  0.00  0.00    +0.032 C 
ATOM     13  C   UNL     1     -36.380  22.990   2.742  0.00  0.00    +0.140 C 
ATOM     14  C   UNL     1     -35.598  22.722   4.021  0.00  0.00    +0.140 C 
ATOM     15  C   UNL     1     -37.174  25.055   4.090  0.00  0.00    +0.164 C 
ATOM     16  C   UNL     1     -33.530  28.595   2.243  0.00  0.00    -0.072 C 
ATOM     17  C   UNL     1     -31.634  27.327   0.962  0.00  0.00    +0.113 C 
ATOM     18  C   UNL     1     -37.456  24.085   2.926  0.00  0.00    +0.171 C 
ATOM     19  C   UNL     1     -31.865  25.903   0.480  0.00  0.00    +0.059 C 
ATOM     20  H   UNL     1     -34.520  27.659   0.796  0.00  0.00    -0.080 HD
ENDROOT
BRANCH   8  21
ATOM     21  O   UNL     1     -35.671  25.355   5.919  0.00  0.00    -0.384 OA
ATOM     22  H   UNL     1     -36.399  24.828   6.283  0.00  0.00    +0.210 HD
ENDBRANCH   8  21
BRANCH   9  23
ATOM     23  O   UNL     1     -33.221  27.767   5.108  0.00  0.00    -0.354 OA
ATOM     24  C   UNL     1     -32.586  27.487   6.351  0.00  0.00    +0.174 C 
ENDBRANCH   9  23
BRANCH  11  25
ATOM     25  O   UNL     1     -34.162  26.034  -0.255  0.00  0.00    -0.354 OA
ATOM     26  C   UNL     1     -34.148  25.330  -1.488  0.00  0.00    +0.174 C 
ENDBRANCH  11  25
BRANCH  13  27
ATOM     27  O   UNL     1     -36.940  21.805   2.201  0.00  0.00    -0.382 OA
ATOM     28  H   UNL     1     -36.747  21.761   1.251  0.00  0.00    +0.210 HD
ENDBRANCH  13  27
BRANCH  14  29
ATOM     29  O   UNL     1     -36.406  22.480   5.154  0.00  0.00    -0.382 OA
ATOM     30  H   UNL     1     -35.917  21.935   5.790  0.00  0.00    +0.210 HD
ENDBRANCH  14  29
BRANCH  15  31
ATOM     31  O   UNL     1     -37.824  26.297   3.811  0.00  0.00    -0.380 OA
ATOM     32  H   UNL     1     -37.317  27.024   4.205  0.00  0.00    +0.211 HD
ENDBRANCH  15  31
BRANCH  18  33
ATOM     33  O   UNL     1     -38.714  23.451   3.207  0.00  0.00    -0.349 OA
ATOM     34  C   UNL     1     -39.700  23.844   2.270  0.00  0.00    +0.174 C 
ENDBRANCH  18  33
BRANCH  17  35
ATOM     35  O   UNL     1     -32.055  28.223  -0.065  0.00  0.00    -0.384 OA
ATOM     36  H   UNL     1     -31.883  29.136   0.211  0.00  0.00    +0.210 HD
ENDBRANCH  17  35
BRANCH   1  37
ATOM     37  C   UNL     1     -35.899  28.751   1.810  0.00  0.00    -0.077 C 
ATOM     38  C   UNL     1     -35.535  30.159   2.249  0.00  0.00    -0.025 C 
ENDBRANCH   1  37
BRANCH  10  39
ATOM     39  C   UNL     1     -31.181  28.426   3.135  0.00  0.00    +0.142 C 
BRANCH  39  40
ATOM     40  O   UNL     1     -30.233  27.478   3.566  0.00  0.00    -0.351 OA
ATOM     41  C   UNL     1     -29.284  28.042   4.468  0.00  0.00    +0.174 C 
ENDBRANCH  39  40
ENDBRANCH  10  39
TORSDOF 11
ENDMDL
MODEL 3
REMARK VINA RESULT:      -5.8      1.745      2.238
REMARK  Name = 20054813
REMARK  11 active torsions:
REMARK  status: ('A' for Active; 'I' for Inactive)
REMARK    1  A    between atoms: N_1  and  C_37
REMARK    2  A    between atoms: C_8  and  O_21
REMARK    3  A    between atoms: C_9  and  O_23
REMARK    4  A    between atoms: C_10  and  C_39
REMARK    5  A    between atoms: C_11  and  O_25
REMARK    6  A    between atoms: C_13  and  O_27
REMARK    7  A    between atoms: C_14  and  O_29
REMARK    8  A    between atoms: C_15  and  O_31
REMARK    9  A    between atoms: C_17  and  O_35
REMARK   10  A    between atoms: C_18  and  O_33
REMARK   11  A    between atoms: C_39  and  O_40
REMARK                            x       y       z     vdW  Elec       q    Type
REMARK                         _______ _______ _______ _____ _____    ______ ____
ROOT
ATOM      1  N   UNL     1     -36.061  26.409   1.733  0.00  0.00    +0.389 N 
ATOM      2  C   UNL     1     -34.618  24.378   1.477  0.00  0.00    +0.011 C 
ATOM      3  C   UNL     1     -33.832  24.949   2.723  0.00  0.00    +0.030 C 
ATOM      4  C   UNL     1     -34.696  22.799   1.430  0.00  0.00    +0.008 C 
ATOM      5  C   UNL     1     -36.017  24.935   1.846  0.00  0.00    -0.051 C 
ATOM      6  C   UNL     1     -36.157  24.362   3.284  0.00  0.00    +0.036 C 
ATOM      7  C   UNL     1     -35.334  22.041   2.622  0.00  0.00    +0.056 C 
ATOM      8  C   UNL     1     -36.507  22.847   3.242  0.00  0.00    +0.118 C 
ATOM      9  C   UNL     1     -34.740  24.531   3.914  0.00  0.00    +0.116 C 
ATOM     10  C   UNL     1     -33.680  26.506   2.546  0.00  0.00    +0.036 C 
ATOM     11  C   UNL     1     -34.014  24.851   0.115  0.00  0.00    +0.116 C 
ATOM     12  C   UNL     1     -35.499  22.259   0.213  0.00  0.00    +0.032 C 
ATOM     13  C   UNL     1     -36.527  21.257   0.770  0.00  0.00    +0.140 C 
ATOM     14  C   UNL     1     -35.780  20.718   1.983  0.00  0.00    +0.140 C 
ATOM     15  C   UNL     1     -37.880  22.490   2.604  0.00  0.00    +0.164 C 
ATOM     16  C   UNL     1     -35.108  27.131   2.578  0.00  0.00    -0.072 C 
ATOM     17  C   UNL     1     -32.888  26.829   1.229  0.00  0.00    +0.113 C 
ATOM     18  C   UNL     1     -37.847  21.964   1.155  0.00  0.00    +0.171 C 
ATOM     19  C   UNL     1     -32.735  25.656   0.272  0.00  0.00    +0.059 C 
ATOM     20  H   UNL     1     -35.752  26.590   0.777  0.00  0.00    -0.080 HD
ENDROOT
BRANCH   8  21
ATOM     21  O   UNL     1     -36.606  22.421   4.620  0.00  0.00    -0.384 OA
ATOM     22  H   UNL     1     -36.658  21.453   4.657  0.00  0.00    +0.210 HD
ENDBRANCH   8  21
BRANCH   9  23
ATOM     23  O   UNL     1     -34.777  25.416   5.015  0.00  0.00    -0.354 OA
ATOM     24  C   UNL     1     -36.103  25.606   5.498  0.00  0.00    +0.174 C 
ENDBRANCH   9  23
BRANCH  11  25
ATOM     25  O   UNL     1     -34.946  25.561  -0.694  0.00  0.00    -0.354 OA
ATOM     26  C   UNL     1     -34.652  25.412  -2.075  0.00  0.00    +0.174 C 
ENDBRANCH  11  25
BRANCH  13  27
ATOM     27  O   UNL     1     -36.748  20.255  -0.209  0.00  0.00    -0.382 OA
ATOM     28  H   UNL     1     -36.293  19.439   0.055  0.00  0.00    +0.210 HD
ENDBRANCH  13  27
BRANCH  14  29
ATOM     29  O   UNL     1     -36.570  19.925   2.844  0.00  0.00    -0.382 OA
ATOM     30  H   UNL     1     -36.099  19.789   3.681  0.00  0.00    +0.210 HD
ENDBRANCH  14  29
BRANCH  15  31
ATOM     31  O   UNL     1     -38.796  23.585   2.666  0.00  0.00    -0.380 OA
ATOM     32  H   UNL     1     -38.477  24.306   2.101  0.00  0.00    +0.211 HD
ENDBRANCH  15  31
BRANCH  18  33
ATOM     33  O   UNL     1     -38.926  21.025   1.028  0.00  0.00    -0.349 OA
ATOM     34  C   UNL     1     -39.930  21.520   0.160  0.00  0.00    +0.174 C 
ENDBRANCH  18  33
BRANCH  17  35
ATOM     35  O   UNL     1     -33.453  27.924   0.511  0.00  0.00    -0.384 OA
ATOM     36  H   UNL     1     -32.758  28.565   0.297  0.00  0.00    +0.210 HD
ENDBRANCH  17  35
BRANCH   1  37
ATOM     37  C   UNL     1     -37.414  26.935   1.892  0.00  0.00    -0.077 C 
ATOM     38  C   UNL     1     -38.309  26.505   0.742  0.00  0.00    -0.025 C 
ENDBRANCH   1  37
BRANCH  10  39
ATOM     39  C   UNL     1     -32.846  27.146   3.685  0.00  0.00    +0.142 C 
BRANCH  39  40
ATOM     40  O   UNL     1     -33.464  28.361   4.036  0.00  0.00    -0.351 OA
ATOM     41  C   UNL     1     -32.544  29.450   4.034  0.00  0.00    +0.174 C 
ENDBRANCH  39  40
ENDBRANCH  10  39
TORSDOF 11
ENDMDL
MODEL 4
REMARK VINA RESULT:      -5.5      1.869      4.541
REMARK  Name = 20054813
REMARK  11 active torsions:
REMARK  status: ('A' for Active; 'I' for Inactive)
REMARK    1  A    between atoms: N_1  and  C_37
REMARK    2  A    between atoms: C_8  and  O_21
REMARK    3  A    between atoms: C_9  and  O_23
REMARK    4  A    between atoms: C_10  and  C_39
REMARK    5  A    between atoms: C_11  and  O_25
REMARK    6  A    between atoms: C_13  and  O_27
REMARK    7  A    between atoms: C_14  and  O_29
REMARK    8  A    between atoms: C_15  and  O_31
REMARK    9  A    between atoms: C_17  and  O_35
REMARK   10  A    between atoms: C_18  and  O_33
REMARK   11  A    between atoms: C_39  and  O_40
REMARK                            x       y       z     vdW  Elec       q    Type
REMARK                         _______ _______ _______ _____ _____    ______ ____
ROOT
ATOM      1  N   UNL     1     -34.621  24.177   1.684  0.00  0.00    +0.389 N 
ATOM      2  C   UNL     1     -36.852  24.386   2.802  0.00  0.00    +0.011 C 
ATOM      3  C   UNL     1     -36.579  25.942   2.745  0.00  0.00    +0.030 C 
ATOM      4  C   UNL     1     -38.372  23.989   2.622  0.00  0.00    +0.008 C 
ATOM      5  C   UNL     1     -36.079  23.997   1.515  0.00  0.00    -0.051 C 
ATOM      6  C   UNL     1     -36.765  24.952   0.499  0.00  0.00    +0.036 C 
ATOM      7  C   UNL     1     -39.117  24.427   1.334  0.00  0.00    +0.056 C 
ATOM      8  C   UNL     1     -38.172  24.416   0.103  0.00  0.00    +0.118 C 
ATOM      9  C   UNL     1     -36.940  26.293   1.274  0.00  0.00    +0.116 C 
ATOM     10  C   UNL     1     -35.071  26.198   3.116  0.00  0.00    +0.036 C 
ATOM     11  C   UNL     1     -36.360  23.736   4.136  0.00  0.00    +0.116 C 
ATOM     12  C   UNL     1     -38.613  22.454   2.650  0.00  0.00    +0.032 C 
ATOM     13  C   UNL     1     -39.454  22.114   1.405  0.00  0.00    +0.140 C 
ATOM     14  C   UNL     1     -40.253  23.399   1.234  0.00  0.00    +0.140 C 
ATOM     15  C   UNL     1     -38.188  23.056  -0.650  0.00  0.00    +0.164 C 
ATOM     16  C   UNL     1     -34.190  25.537   2.012  0.00  0.00    -0.072 C 
ATOM     17  C   UNL     1     -34.767  25.661   4.560  0.00  0.00    +0.113 C 
ATOM     18  C   UNL     1     -38.552  21.812   0.186  0.00  0.00    +0.171 C 
ATOM     19  C   UNL     1     -35.837  24.749   5.141  0.00  0.00    +0.059 C 
ATOM     20  H   UNL     1     -34.401  23.625   2.513  0.00  0.00    -0.080 HD
ENDROOT
BRANCH   8  21
ATOM     21  O   UNL     1     -38.716  25.376  -0.833  0.00  0.00    -0.384 OA
ATOM     22  H   UNL     1     -38.860  26.222  -0.380  0.00  0.00    +0.210 HD
ENDBRANCH   8  21
BRANCH   9  23
ATOM     23  O   UNL     1     -36.188  27.328   0.674  0.00  0.00    -0.354 OA
ATOM     24  C   UNL     1     -37.014  28.413   0.263  0.00  0.00    +0.174 C 
ENDBRANCH   9  23
BRANCH  11  25
ATOM     25  O   UNL     1     -35.402  22.703   3.935  0.00  0.00    -0.354 OA
ATOM     26  C   UNL     1     -35.281  21.878   5.085  0.00  0.00    +0.174 C 
ENDBRANCH  11  25
BRANCH  13  27
ATOM     27  O   UNL     1     -40.284  21.007   1.715  0.00  0.00    -0.382 OA
ATOM     28  H   UNL     1     -39.945  20.214   1.271  0.00  0.00    +0.210 HD
ENDBRANCH  13  27
BRANCH  14  29
ATOM     29  O   UNL     1     -40.967  23.480   0.018  0.00  0.00    -0.382 OA
ATOM     30  H   UNL     1     -41.104  22.587  -0.337  0.00  0.00    +0.210 HD
ENDBRANCH  14  29
BRANCH  15  31
ATOM     31  O   UNL     1     -36.950  22.804  -1.319  0.00  0.00    -0.380 OA
ATOM     32  H   UNL     1     -36.232  22.765  -0.668  0.00  0.00    +0.211 HD
ENDBRANCH  15  31
BRANCH  18  33
ATOM     33  O   UNL     1     -39.247  20.911  -0.690  0.00  0.00    -0.349 OA
ATOM     34  C   UNL     1     -38.527  19.702  -0.847  0.00  0.00    +0.174 C 
ENDBRANCH  18  33
BRANCH  17  35
ATOM     35  O   UNL     1     -33.512  24.985   4.634  0.00  0.00    -0.384 OA
ATOM     36  H   UNL     1     -33.635  24.119   5.053  0.00  0.00    +0.210 HD
ENDBRANCH  17  35
BRANCH   1  37
ATOM     37  C   UNL     1     -33.865  23.640   0.555  0.00  0.00    -0.077 C 
ATOM     38  C   UNL     1     -34.018  22.131   0.459  0.00  0.00    -0.025 C 
ENDBRANCH   1  37
BRANCH  10  39
ATOM     39  C   UNL     1     -34.729  27.709   3.168  0.00  0.00    +0.142 C 
BRANCH  39  40
ATOM     40  O   UNL     1     -33.831  27.907   4.234  0.00  0.00    -0.351 OA
ATOM     41  C   UNL     1     -32.662  28.613   3.825  0.00  0.00    +0.174 C 
ENDBRANCH  39  40
ENDBRANCH  10  39
TORSDOF 11
ENDMDL
MODEL 5
REMARK VINA RESULT:      -5.1      2.306      6.113
REMARK  Name = 20054813
REMARK  11 active torsions:
REMARK  status: ('A' for Active; 'I' for Inactive)
REMARK    1  A    between atoms: N_1  and  C_37
REMARK    2  A    between atoms: C_8  and  O_21
REMARK    3  A    between atoms: C_9  and  O_23
REMARK    4  A    between atoms: C_10  and  C_39
REMARK    5  A    between atoms: C_11  and  O_25
REMARK    6  A    between atoms: C_13  and  O_27
REMARK    7  A    between atoms: C_14  and  O_29
REMARK    8  A    between atoms: C_15  and  O_31
REMARK    9  A    between atoms: C_17  and  O_35
REMARK   10  A    between atoms: C_18  and  O_33
REMARK   11  A    between atoms: C_39  and  O_40
REMARK                            x       y       z     vdW  Elec       q    Type
REMARK                         _______ _______ _______ _____ _____    ______ ____
ROOT
ATOM      1  N   UNL     1     -36.160  23.275  -0.079  0.00  0.00    +0.389 N 
ATOM      2  C   UNL     1     -38.223  22.744   1.239  0.00  0.00    +0.011 C 
ATOM      3  C   UNL     1     -37.231  22.031   2.242  0.00  0.00    +0.030 C 
ATOM      4  C   UNL     1     -39.461  23.438   1.937  0.00  0.00    +0.008 C 
ATOM      5  C   UNL     1     -37.252  23.845   0.740  0.00  0.00    -0.051 C 
ATOM      6  C   UNL     1     -36.825  24.456   2.104  0.00  0.00    +0.036 C 
ATOM      7  C   UNL     1     -39.207  24.527   3.010  0.00  0.00    +0.056 C 
ATOM      8  C   UNL     1     -37.948  25.370   2.674  0.00  0.00    +0.118 C 
ATOM      9  C   UNL     1     -36.652  23.227   3.049  0.00  0.00    +0.116 C 
ATOM     10  C   UNL     1     -36.158  21.241   1.405  0.00  0.00    +0.036 C 
ATOM     11  C   UNL     1     -38.789  21.770   0.156  0.00  0.00    +0.116 C 
ATOM     12  C   UNL     1     -40.406  24.159   0.935  0.00  0.00    +0.032 C 
ATOM     13  C   UNL     1     -40.625  25.584   1.479  0.00  0.00    +0.140 C 
ATOM     14  C   UNL     1     -40.508  25.344   2.978  0.00  0.00    +0.140 C 
ATOM     15  C   UNL     1     -38.282  26.633   1.830  0.00  0.00    +0.164 C 
ATOM     16  C   UNL     1     -35.324  22.280   0.596  0.00  0.00    -0.072 C 
ATOM     17  C   UNL     1     -36.859  20.164   0.500  0.00  0.00    +0.113 C 
ATOM     18  C   UNL     1     -39.545  26.556   0.949  0.00  0.00    +0.171 C 
ATOM     19  C   UNL     1     -38.366  20.326   0.367  0.00  0.00    +0.059 C 
ATOM     20  H   UNL     1     -36.649  22.755  -0.808  0.00  0.00    -0.080 HD
ENDROOT
BRANCH   8  21
ATOM     21  O   UNL     1     -37.451  25.875   3.934  0.00  0.00    -0.384 OA
ATOM     22  H   UNL     1     -36.492  25.732   3.984  0.00  0.00    +0.210 HD
ENDBRANCH   8  21
BRANCH   9  23
ATOM     23  O   UNL     1     -35.311  23.103   3.479  0.00  0.00    -0.354 OA
ATOM     24  C   UNL     1     -35.192  23.247   4.890  0.00  0.00    +0.174 C 
ENDBRANCH   9  23
BRANCH  11  25
ATOM     25  O   UNL     1     -38.495  22.180  -1.176  0.00  0.00    -0.354 OA
ATOM     26  C   UNL     1     -39.552  21.851  -2.064  0.00  0.00    +0.174 C 
ENDBRANCH  11  25
BRANCH  13  27
ATOM     27  O   UNL     1     -41.925  26.009   1.107  0.00  0.00    -0.382 OA
ATOM     28  H   UNL     1     -41.861  26.817   0.573  0.00  0.00    +0.210 HD
ENDBRANCH  13  27
BRANCH  14  29
ATOM     29  O   UNL     1     -40.440  26.525   3.750  0.00  0.00    -0.382 OA
ATOM     30  H   UNL     1     -41.129  26.506   4.432  0.00  0.00    +0.210 HD
ENDBRANCH  14  29
BRANCH  15  31
ATOM     31  O   UNL     1     -37.182  27.030   1.008  0.00  0.00    -0.380 OA
ATOM     32  H   UNL     1     -37.346  26.754   0.092  0.00  0.00    +0.211 HD
ENDBRANCH  15  31
BRANCH  18  33
ATOM     33  O   UNL     1     -40.101  27.879   0.902  0.00  0.00    -0.349 OA
ATOM     34  C   UNL     1     -40.004  28.423  -0.402  0.00  0.00    +0.174 C 
ENDBRANCH  18  33
BRANCH  17  35
ATOM     35  O   UNL     1     -36.296  20.107  -0.809  0.00  0.00    -0.384 OA
ATOM     36  H   UNL     1     -36.140  21.006  -1.134  0.00  0.00    +0.210 HD
ENDBRANCH  17  35
BRANCH   1  37
ATOM     37  C   UNL     1     -35.346  24.309  -0.712  0.00  0.00    -0.077 C 
ATOM     38  C   UNL     1     -33.914  24.269  -0.205  0.00  0.00    -0.025 C 
ENDBRANCH   1  37
BRANCH  10  39
ATOM     39  C   UNL     1     -35.187  20.437   2.307  0.00  0.00    +0.142 C 
BRANCH  39  40
ATOM     40  O   UNL     1     -34.827  19.267   1.612  0.00  0.00    -0.351 OA
ATOM     41  C   UNL     1     -33.413  19.125   1.500  0.00  0.00    +0.174 C 
ENDBRANCH  39  40
ENDBRANCH  10  39
TORSDOF 11
ENDMDL
MODEL 6
REMARK VINA RESULT:      -5.1      2.621      5.032
REMARK  Name = 20054813
REMARK  11 active torsions:
REMARK  status: ('A' for Active; 'I' for Inactive)
REMARK    1  A    between atoms: N_1  and  C_37
REMARK    2  A    between atoms: C_8  and  O_21
REMARK    3  A    between atoms: C_9  and  O_23
REMARK    4  A    between atoms: C_10  and  C_39
REMARK    5  A    between atoms: C_11  and  O_25
REMARK    6  A    between atoms: C_13  and  O_27
REMARK    7  A    between atoms: C_14  and  O_29
REMARK    8  A    between atoms: C_15  and  O_31
REMARK    9  A    between atoms: C_17  and  O_35
REMARK   10  A    between atoms: C_18  and  O_33
REMARK   11  A    between atoms: C_39  and  O_40
REMARK                            x       y       z     vdW  Elec       q    Type
REMARK                         _______ _______ _______ _____ _____    ______ ____
ROOT
ATOM      1  N   UNL     1     -34.535  26.864  -0.003  0.00  0.00    +0.389 N 
ATOM      2  C   UNL     1     -33.855  24.843   1.311  0.00  0.00    +0.011 C 
ATOM      3  C   UNL     1     -32.567  25.684   1.675  0.00  0.00    +0.030 C 
ATOM      4  C   UNL     1     -34.356  23.892   2.471  0.00  0.00    +0.008 C 
ATOM      5  C   UNL     1     -34.843  26.030   1.179  0.00  0.00    -0.051 C 
ATOM      6  C   UNL     1     -34.624  26.709   2.560  0.00  0.00    +0.036 C 
ATOM      7  C   UNL     1     -34.719  24.509   3.846  0.00  0.00    +0.056 C 
ATOM      8  C   UNL     1     -35.352  25.917   3.685  0.00  0.00    +0.118 C 
ATOM      9  C   UNL     1     -33.086  26.622   2.802  0.00  0.00    +0.116 C 
ATOM     10  C   UNL     1     -32.083  26.440   0.382  0.00  0.00    +0.036 C 
ATOM     11  C   UNL     1     -33.656  23.955   0.040  0.00  0.00    +0.116 C 
ATOM     12  C   UNL     1     -35.640  23.098   2.103  0.00  0.00    +0.032 C 
ATOM     13  C   UNL     1     -36.639  23.309   3.257  0.00  0.00    +0.140 C 
ATOM     14  C   UNL     1     -35.689  23.474   4.436  0.00  0.00    +0.140 C 
ATOM     15  C   UNL     1     -36.903  25.866   3.578  0.00  0.00    +0.164 C 
ATOM     16  C   UNL     1     -33.195  27.455  -0.021  0.00  0.00    -0.072 C 
ATOM     17  C   UNL     1     -31.738  25.410  -0.752  0.00  0.00    +0.113 C 
ATOM     18  C   UNL     1     -37.510  24.564   3.020  0.00  0.00    +0.171 C 
ATOM     19  C   UNL     1     -32.237  23.995  -0.504  0.00  0.00    +0.059 C 
ATOM     20  H   UNL     1     -34.538  26.199  -0.777  0.00  0.00    -0.080 HD
ENDROOT
BRANCH   8  21
ATOM     21  O   UNL     1     -35.079  26.627   4.915  0.00  0.00    -0.384 OA
ATOM     22  H   UNL     1     -35.834  26.532   5.517  0.00  0.00    +0.210 HD
ENDBRANCH   8  21
BRANCH   9  23
ATOM     23  O   UNL     1     -32.508  27.910   2.861  0.00  0.00    -0.354 OA
ATOM     24  C   UNL     1     -31.908  28.163   4.128  0.00  0.00    +0.174 C 
ENDBRANCH   9  23
BRANCH  11  25
ATOM     25  O   UNL     1     -34.588  24.244  -0.996  0.00  0.00    -0.354 OA
ATOM     26  C   UNL     1     -34.946  23.071  -1.712  0.00  0.00    +0.174 C 
ENDBRANCH  11  25
BRANCH  13  27
ATOM     27  O   UNL     1     -37.437  22.144   3.375  0.00  0.00    -0.382 OA
ATOM     28  H   UNL     1     -38.375  22.391   3.347  0.00  0.00    +0.210 HD
ENDBRANCH  13  27
BRANCH  14  29
ATOM     29  O   UNL     1     -36.312  23.914   5.625  0.00  0.00    -0.382 OA
ATOM     30  H   UNL     1     -35.797  24.639   6.011  0.00  0.00    +0.210 HD
ENDBRANCH  14  29
BRANCH  15  31
ATOM     31  O   UNL     1     -37.420  26.965   2.824  0.00  0.00    -0.380 OA
ATOM     32  H   UNL     1     -38.200  27.328   3.274  0.00  0.00    +0.211 HD
ENDBRANCH  15  31
BRANCH  18  33
ATOM     33  O   UNL     1     -38.773  24.378   3.678  0.00  0.00    -0.349 OA
ATOM     34  C   UNL     1     -39.846  24.516   2.765  0.00  0.00    +0.174 C 
ENDBRANCH  18  33
BRANCH  17  35
ATOM     35  O   UNL     1     -32.207  25.834  -2.031  0.00  0.00    -0.384 OA
ATOM     36  H   UNL     1     -31.558  25.595  -2.710  0.00  0.00    +0.210 HD
ENDBRANCH  17  35
BRANCH   1  37
ATOM     37  C   UNL     1     -35.562  27.872  -0.251  0.00  0.00    -0.077 C 
ATOM     38  C   UNL     1     -36.876  27.228  -0.659  0.00  0.00    -0.025 C 
ENDBRANCH   1  37
BRANCH  10  39
ATOM     39  C   UNL     1     -30.771  27.229   0.622  0.00  0.00    +0.142 C 
BRANCH  39  40
ATOM     40  O   UNL     1     -29.854  26.356   1.238  0.00  0.00    -0.351 OA
ATOM     41  C   UNL     1     -28.511  26.625   0.842  0.00  0.00    +0.174 C 
ENDBRANCH  39  40
ENDBRANCH  10  39
TORSDOF 11
ENDMDL
MODEL 7
REMARK VINA RESULT:      -5.1      2.282      4.357
REMARK  Name = 20054813
REMARK  11 active torsions:
REMARK  status: ('A' for Active; 'I' for Inactive)
REMARK    1  A    between atoms: N_1  and  C_37
REMARK    2  A    between atoms: C_8  and  O_21
REMARK    3  A    between atoms: C_9  and  O_23
REMARK    4  A    between atoms: C_10  and  C_39
REMARK    5  A    between atoms: C_11  and  O_25
REMARK    6  A    between atoms: C_13  and  O_27
REMARK    7  A    between atoms: C_14  and  O_29
REMARK    8  A    between atoms: C_15  and  O_31
REMARK    9  A    between atoms: C_17  and  O_35
REMARK   10  A    between atoms: C_18  and  O_33
REMARK   11  A    between atoms: C_39  and  O_40
REMARK                            x       y       z     vdW  Elec       q    Type
REMARK                         _______ _______ _______ _____ _____    ______ ____
ROOT
ATOM      1  N   UNL     1     -37.811  24.854   0.167  0.00  0.00    +0.389 N 
ATOM      2  C   UNL     1     -37.154  23.300   2.018  0.00  0.00    +0.011 C 
ATOM      3  C   UNL     1     -38.640  23.492   2.520  0.00  0.00    +0.030 C 
ATOM      4  C   UNL     1     -36.567  21.854   2.273  0.00  0.00    +0.008 C 
ATOM      5  C   UNL     1     -37.428  23.465   0.501  0.00  0.00    -0.051 C 
ATOM      6  C   UNL     1     -38.541  22.395   0.318  0.00  0.00    +0.036 C 
ATOM      7  C   UNL     1     -37.300  20.627   1.672  0.00  0.00    +0.056 C 
ATOM      8  C   UNL     1     -37.931  20.964   0.294  0.00  0.00    +0.118 C 
ATOM      9  C   UNL     1     -39.436  22.537   1.587  0.00  0.00    +0.116 C 
ATOM     10  C   UNL     1     -39.026  25.010   2.367  0.00  0.00    +0.036 C 
ATOM     11  C   UNL     1     -36.162  24.321   2.664  0.00  0.00    +0.116 C 
ATOM     12  C   UNL     1     -35.116  21.677   1.744  0.00  0.00    +0.032 C 
ATOM     13  C   UNL     1     -35.108  20.397   0.887  0.00  0.00    +0.140 C 
ATOM     14  C   UNL     1     -36.184  19.575   1.585  0.00  0.00    +0.140 C 
ATOM     15  C   UNL     1     -36.973  20.659  -0.892  0.00  0.00    +0.164 C 
ATOM     16  C   UNL     1     -39.007  25.356   0.847  0.00  0.00    -0.072 C 
ATOM     17  C   UNL     1     -38.059  25.906   3.222  0.00  0.00    +0.113 C 
ATOM     18  C   UNL     1     -35.462  20.707  -0.585  0.00  0.00    +0.171 C 
ATOM     19  C   UNL     1     -36.809  25.199   3.722  0.00  0.00    +0.059 C 
ATOM     20  H   UNL     1     -37.044  25.414   0.540  0.00  0.00    -0.080 HD
ENDROOT
BRANCH   8  21
ATOM     21  O   UNL     1     -39.044  20.057   0.127  0.00  0.00    -0.384 OA
ATOM     22  H   UNL     1     -38.716  19.193  -0.166  0.00  0.00    +0.210 HD
ENDBRANCH   8  21
BRANCH   9  23
ATOM     23  O   UNL     1     -40.745  22.945   1.242  0.00  0.00    -0.354 OA
ATOM     24  C   UNL     1     -41.021  22.726  -0.138  0.00  0.00    +0.174 C 
ENDBRANCH   9  23
BRANCH  11  25
ATOM     25  O   UNL     1     -35.484  25.126   1.705  0.00  0.00    -0.354 OA
ATOM     26  C   UNL     1     -34.209  25.532   2.179  0.00  0.00    +0.174 C 
ENDBRANCH  11  25
BRANCH  13  27
ATOM     27  O   UNL     1     -33.827  19.798   0.992  0.00  0.00    -0.382 OA
ATOM     28  H   UNL     1     -33.885  18.864   0.734  0.00  0.00    +0.210 HD
ENDBRANCH  13  27
BRANCH  14  29
ATOM     29  O   UNL     1     -36.572  18.413   0.882  0.00  0.00    -0.382 OA
ATOM     30  H   UNL     1     -37.284  17.965   1.364  0.00  0.00    +0.210 HD
ENDBRANCH  14  29
BRANCH  15  31
ATOM     31  O   UNL     1     -37.232  21.504  -2.016  0.00  0.00    -0.380 OA
ATOM     32  H   UNL     1     -37.759  22.267  -1.732  0.00  0.00    +0.211 HD
ENDBRANCH  15  31
BRANCH  18  33
ATOM     33  O   UNL     1     -34.835  19.725  -1.426  0.00  0.00    -0.349 OA
ATOM     34  C   UNL     1     -33.998  20.342  -2.387  0.00  0.00    +0.174 C 
ENDBRANCH  18  33
BRANCH  17  35
ATOM     35  O   UNL     1     -37.660  27.087   2.529  0.00  0.00    -0.384 OA
ATOM     36  H   UNL     1     -37.116  26.846   1.764  0.00  0.00    +0.210 HD
ENDBRANCH  17  35
BRANCH   1  37
ATOM     37  C   UNL     1     -37.889  25.074  -1.274  0.00  0.00    -0.077 C 
ATOM     38  C   UNL     1     -36.521  24.953  -1.924  0.00  0.00    -0.025 C 
ENDBRANCH   1  37
BRANCH  10  39
ATOM     39  C   UNL     1     -40.444  25.312   2.914  0.00  0.00    +0.142 C 
BRANCH  39  40
ATOM     40  O   UNL     1     -40.503  26.687   3.211  0.00  0.00    -0.351 OA
ATOM     41  C   UNL     1     -41.758  27.058   3.777  0.00  0.00    +0.174 C 
ENDBRANCH  39  40
ENDBRANCH  10  39
TORSDOF 11
ENDMDL
MODEL 8
REMARK VINA RESULT:      -5.1      2.061      6.590
REMARK  Name = 20054813
REMARK  11 active torsions:
REMARK  status: ('A' for Active; 'I' for Inactive)
REMARK    1  A    between atoms: N_1  and  C_37
REMARK    2  A    between atoms: C_8  and  O_21
REMARK    3  A    between atoms: C_9  and  O_23
REMARK    4  A    between atoms: C_10  and  C_39
REMARK    5  A    between atoms: C_11  and  O_25
REMARK    6  A    between atoms: C_13  and  O_27
REMARK    7  A    between atoms: C_14  and  O_29
REMARK    8  A    between atoms: C_15  and  O_31
REMARK    9  A    between atoms: C_17  and  O_35
REMARK   10  A    between atoms: C_18  and  O_33
REMARK   11  A    between atoms: C_39  and  O_40
REMARK                            x       y       z     vdW  Elec       q    Type
REMARK                         _______ _______ _______ _____ _____    ______ ____
ROOT
ATOM      1  N   UNL     1     -35.346  21.324   0.885  0.00  0.00    +0.389 N 
ATOM      2  C   UNL     1     -36.219  23.532   0.086  0.00  0.00    +0.011 C 
ATOM      3  C   UNL     1     -37.299  22.669  -0.682  0.00  0.00    +0.030 C 
ATOM      4  C   UNL     1     -36.760  24.918   0.621  0.00  0.00    +0.008 C 
ATOM      5  C   UNL     1     -36.017  22.577   1.292  0.00  0.00    -0.051 C 
ATOM      6  C   UNL     1     -37.492  22.432   1.761  0.00  0.00    +0.036 C 
ATOM      7  C   UNL     1     -37.971  24.931   1.590  0.00  0.00    +0.056 C 
ATOM      8  C   UNL     1     -37.951  23.701   2.537  0.00  0.00    +0.118 C 
ATOM      9  C   UNL     1     -38.317  22.326   0.442  0.00  0.00    +0.116 C 
ATOM     10  C   UNL     1     -36.583  21.415  -1.306  0.00  0.00    +0.036 C 
ATOM     11  C   UNL     1     -34.957  23.833  -0.785  0.00  0.00    +0.116 C 
ATOM     12  C   UNL     1     -35.691  25.735   1.400  0.00  0.00    +0.032 C 
ATOM     13  C   UNL     1     -36.336  26.149   2.736  0.00  0.00    +0.140 C 
ATOM     14  C   UNL     1     -37.799  26.267   2.328  0.00  0.00    +0.140 C 
ATOM     15  C   UNL     1     -37.200  23.985   3.869  0.00  0.00    +0.164 C 
ATOM     16  C   UNL     1     -36.047  20.539  -0.133  0.00  0.00    -0.072 C 
ATOM     17  C   UNL     1     -35.461  21.870  -2.307  0.00  0.00    +0.113 C 
ATOM     18  C   UNL     1     -36.109  25.074   3.824  0.00  0.00    +0.171 C 
ATOM     19  C   UNL     1     -35.084  23.341  -2.217  0.00  0.00    +0.059 C 
ATOM     20  H   UNL     1     -34.491  21.643   0.427  0.00  0.00    -0.080 HD
ENDROOT
BRANCH   8  21
ATOM     21  O   UNL     1     -39.325  23.462   2.918  0.00  0.00    -0.384 OA
ATOM     22  H   UNL     1     -39.858  24.246   2.713  0.00  0.00    +0.210 HD
ENDBRANCH   8  21
BRANCH   9  23
ATOM     23  O   UNL     1     -38.958  21.071   0.344  0.00  0.00    -0.354 OA
ATOM     24  C   UNL     1     -40.359  21.207   0.130  0.00  0.00    +0.174 C 
ENDBRANCH   9  23
BRANCH  11  25
ATOM     25  O   UNL     1     -33.749  23.352  -0.205  0.00  0.00    -0.354 OA
ATOM     26  C   UNL     1     -32.679  24.264  -0.408  0.00  0.00    +0.174 C 
ENDBRANCH  11  25
BRANCH  13  27
ATOM     27  O   UNL     1     -35.790  27.398   3.127  0.00  0.00    -0.382 OA
ATOM     28  H   UNL     1     -36.178  27.669   3.974  0.00  0.00    +0.210 HD
ENDBRANCH  13  27
BRANCH  14  29
ATOM     29  O   UNL     1     -38.692  26.419   3.412  0.00  0.00    -0.382 OA
ATOM     30  H   UNL     1     -39.356  25.713   3.386  0.00  0.00    +0.210 HD
ENDBRANCH  14  29
BRANCH  15  31
ATOM     31  O   UNL     1     -36.630  22.797   4.422  0.00  0.00    -0.380 OA
ATOM     32  H   UNL     1     -36.495  22.144   3.716  0.00  0.00    +0.211 HD
ENDBRANCH  15  31
BRANCH  18  33
ATOM     33  O   UNL     1     -36.106  25.714   5.110  0.00  0.00    -0.349 OA
ATOM     34  C   UNL     1     -34.844  25.582   5.738  0.00  0.00    +0.174 C 
ENDBRANCH  18  33
BRANCH  17  35
ATOM     35  O   UNL     1     -34.271  21.093  -2.178  0.00  0.00    -0.384 OA
ATOM     36  H   UNL     1     -33.636  21.565  -1.618  0.00  0.00    +0.210 HD
ENDBRANCH  17  35
BRANCH   1  37
ATOM     37  C   UNL     1     -34.978  20.497   2.031  0.00  0.00    -0.077 C 
ATOM     38  C   UNL     1     -33.965  19.434   1.640  0.00  0.00    -0.025 C 
ENDBRANCH   1  37
BRANCH  10  39
ATOM     39  C   UNL     1     -37.550  20.549  -2.153  0.00  0.00    +0.142 C 
BRANCH  39  40
ATOM     40  O   UNL     1     -36.844  19.406  -2.573  0.00  0.00    -0.351 OA
ATOM     41  C   UNL     1     -37.334  18.900  -3.812  0.00  0.00    +0.174 C 
ENDBRANCH  39  40
ENDBRANCH  10  39
TORSDOF 11
ENDMDL
MODEL 9
REMARK VINA RESULT:      -5.1      1.701      2.291
REMARK  Name = 20054813
REMARK  11 active torsions:
REMARK  status: ('A' for Active; 'I' for Inactive)
REMARK    1  A    between atoms: N_1  and  C_37
REMARK    2  A    between atoms: C_8  and  O_21
REMARK    3  A    between atoms: C_9  and  O_23
REMARK    4  A    between atoms: C_10  and  C_39
REMARK    5  A    between atoms: C_11  and  O_25
REMARK    6  A    between atoms: C_13  and  O_27
REMARK    7  A    between atoms: C_14  and  O_29
REMARK    8  A    between atoms: C_15  and  O_31
REMARK    9  A    between atoms: C_17  and  O_35
REMARK   10  A    between atoms: C_18  and  O_33
REMARK   11  A    between atoms: C_39  and  O_40
REMARK                            x       y       z     vdW  Elec       q    Type
REMARK                         _______ _______ _______ _____ _____    ______ ____
ROOT
ATOM      1  N   UNL     1     -36.577  25.521   0.724  0.00  0.00    +0.389 N 
ATOM      2  C   UNL     1     -35.106  23.678   1.567  0.00  0.00    +0.011 C 
ATOM      3  C   UNL     1     -35.492  24.214   3.003  0.00  0.00    +0.030 C 
ATOM      4  C   UNL     1     -34.916  22.110   1.492  0.00  0.00    +0.008 C 
ATOM      5  C   UNL     1     -36.426  24.055   0.847  0.00  0.00    -0.051 C 
ATOM      6  C   UNL     1     -37.446  23.346   1.781  0.00  0.00    +0.036 C 
ATOM      7  C   UNL     1     -36.093  21.188   1.904  0.00  0.00    +0.056 C 
ATOM      8  C   UNL     1     -37.461  21.812   1.518  0.00  0.00    +0.118 C 
ATOM      9  C   UNL     1     -36.905  23.602   3.221  0.00  0.00    +0.116 C 
ATOM     10  C   UNL     1     -35.472  25.788   2.970  0.00  0.00    +0.036 C 
ATOM     11  C   UNL     1     -33.797  24.328   1.013  0.00  0.00    +0.116 C 
ATOM     12  C   UNL     1     -34.566  21.601   0.066  0.00  0.00    +0.032 C 
ATOM     13  C   UNL     1     -35.545  20.453  -0.248  0.00  0.00    +0.140 C 
ATOM     14  C   UNL     1     -35.786  19.888   1.146  0.00  0.00    +0.140 C 
ATOM     15  C   UNL     1     -37.940  21.375   0.105  0.00  0.00    +0.164 C 
ATOM     16  C   UNL     1     -36.588  26.258   1.988  0.00  0.00    -0.072 C 
ATOM     17  C   UNL     1     -34.040  26.305   2.581  0.00  0.00    +0.113 C 
ATOM     18  C   UNL     1     -36.840  20.985  -0.903  0.00  0.00    +0.171 C 
ATOM     19  C   UNL     1     -33.110  25.243   2.014  0.00  0.00    +0.059 C 
ATOM     20  H   UNL     1     -35.720  25.816   0.255  0.00  0.00    -0.080 HD
ENDROOT
BRANCH   8  21
ATOM     21  O   UNL     1     -38.431  21.259   2.437  0.00  0.00    -0.384 OA
ATOM     22  H   UNL     1     -38.420  21.767   3.263  0.00  0.00    +0.210 HD
ENDBRANCH   8  21
BRANCH   9  23
ATOM     23  O   UNL     1     -37.815  24.378   3.975  0.00  0.00    -0.354 OA
ATOM     24  C   UNL     1     -39.086  24.469   3.339  0.00  0.00    +0.174 C 
ENDBRANCH   9  23
BRANCH  11  25
ATOM     25  O   UNL     1     -33.990  25.008  -0.223  0.00  0.00    -0.354 OA
ATOM     26  C   UNL     1     -32.800  25.020  -0.998  0.00  0.00    +0.174 C 
ENDBRANCH  11  25
BRANCH  13  27
ATOM     27  O   UNL     1     -34.887  19.524  -1.093  0.00  0.00    -0.382 OA
ATOM     28  H   UNL     1     -34.236  19.022  -0.577  0.00  0.00    +0.210 HD
ENDBRANCH  13  27
BRANCH  14  29
ATOM     29  O   UNL     1     -36.836  18.946   1.215  0.00  0.00    -0.382 OA
ATOM     30  H   UNL     1     -36.689  18.353   1.968  0.00  0.00    +0.210 HD
ENDBRANCH  14  29
BRANCH  15  31
ATOM     31  O   UNL     1     -38.779  22.361  -0.501  0.00  0.00    -0.380 OA
ATOM     32  H   UNL     1     -38.858  23.127   0.091  0.00  0.00    +0.211 HD
ENDBRANCH  15  31
BRANCH  18  33
ATOM     33  O   UNL     1     -37.389  19.956  -1.741  0.00  0.00    -0.349 OA
ATOM     34  C   UNL     1     -37.558  20.420  -3.068  0.00  0.00    +0.174 C 
ENDBRANCH  18  33
BRANCH  17  35
ATOM     35  O   UNL     1     -34.089  27.396   1.663  0.00  0.00    -0.384 OA
ATOM     36  H   UNL     1     -34.787  28.013   1.931  0.00  0.00    +0.210 HD
ENDBRANCH  17  35
BRANCH   1  37
ATOM     37  C   UNL     1     -37.715  25.890  -0.114  0.00  0.00    -0.077 C 
ATOM     38  C   UNL     1     -38.640  26.853   0.609  0.00  0.00    -0.025 C 
ENDBRANCH   1  37
BRANCH  10  39
ATOM     39  C   UNL     1     -35.759  26.406   4.362  0.00  0.00    +0.142 C 
BRANCH  39  40
ATOM     40  O   UNL     1     -34.549  26.936   4.851  0.00  0.00    -0.351 OA
ATOM     41  C   UNL     1     -34.061  26.207   5.974  0.00  0.00    +0.174 C 
ENDBRANCH  39  40
ENDBRANCH  10  39
TORSDOF 11
ENDMDL
