MODEL 1
REMARK VINA RESULT:      -5.8      0.000      0.000
REMARK  Name = 54697253
REMARK  6 active torsions:
REMARK  status: ('A' for Active; 'I' for Inactive)
REMARK    1  A    between atoms: C_1  and  N_7
REMARK    2  A    between atoms: C_2  and  O_15
REMARK    3  A    between atoms: C_3  and  O_17
REMARK    4  A    between atoms: C_4  and  C_19
REMARK    5  A    between atoms: C_12  and  O_13
REMARK    6  A    between atoms: C_19  and  O_20
REMARK                            x       y       z     vdW  Elec       q    Type
REMARK                         _______ _______ _______ _____ _____    ______ ____
ROOT
ATOM      1  C   UNL     1     -36.259  21.529   3.334  0.00  0.00    +0.109 C 
ATOM      2  C   UNL     1     -37.004  21.377   2.001  0.00  0.00    +0.156 C 
ATOM      3  C   UNL     1     -36.309  20.218   1.269  0.00  0.00    +0.141 C 
ATOM      4  C   UNL     1     -34.949  20.210   1.899  0.00  0.00    +0.060 C 
ATOM      5  C   UNL     1     -34.925  20.928   3.029  0.00  0.00    +0.028 C 
ENDROOT
BRANCH   1   7
ATOM      6  O   UNL     1     -35.968  22.436   6.005  0.00  0.00    -0.269 OA
ATOM      7  N   UNL     1     -36.100  22.907   3.714  0.00  0.00    -0.253 N 
ATOM      8  C   UNL     1     -35.963  23.245   5.078  0.00  0.00    +0.256 C 
ATOM      9  C   UNL     1     -36.082  23.898   2.733  0.00  0.00    +0.071 C 
ATOM     10  C   UNL     1     -35.802  24.698   5.391  0.00  0.00    +0.095 C 
ATOM     11  C   UNL     1     -35.938  25.195   3.027  0.00  0.00    +0.053 C 
ATOM     12  C   UNL     1     -35.794  25.599   4.402  0.00  0.00    +0.140 C 
BRANCH  12  13
ATOM     13  O   UNL     1     -35.652  26.951   4.603  0.00  0.00    -0.505 OA
ATOM     14  H   UNL     1     -36.203  27.553   4.144  0.00  0.00    +0.292 HD
ENDBRANCH  12  13
ENDBRANCH   1   7
BRANCH   2  15
ATOM     15  O   UNL     1     -38.380  21.121   2.228  0.00  0.00    -0.380 OA
ATOM     16  H   UNL     1     -38.867  21.212   1.395  0.00  0.00    +0.211 HD
ENDBRANCH   2  15
BRANCH   3  17
ATOM     17  O   UNL     1     -36.930  18.967   1.519  0.00  0.00    -0.382 OA
ATOM     18  H   UNL     1     -36.251  18.280   1.602  0.00  0.00    +0.210 HD
ENDBRANCH   3  17
BRANCH   4  19
ATOM     19  C   UNL     1     -33.823  19.441   1.308  0.00  0.00    +0.140 C 
BRANCH  19  20
ATOM     20  O   UNL     1     -34.275  18.169   0.866  0.00  0.00    -0.382 OA
ATOM     21  H   UNL     1     -34.015  17.493   1.511  0.00  0.00    +0.210 HD
ENDBRANCH  19  20
ENDBRANCH   4  19
TORSDOF 6
ENDMDL
MODEL 2
REMARK VINA RESULT:      -5.6      2.820      4.427
REMARK  Name = 54697253
REMARK  6 active torsions:
REMARK  status: ('A' for Active; 'I' for Inactive)
REMARK    1  A    between atoms: C_1  and  N_7
REMARK    2  A    between atoms: C_2  and  O_15
REMARK    3  A    between atoms: C_3  and  O_17
REMARK    4  A    between atoms: C_4  and  C_19
REMARK    5  A    between atoms: C_12  and  O_13
REMARK    6  A    between atoms: C_19  and  O_20
REMARK                            x       y       z     vdW  Elec       q    Type
REMARK                         _______ _______ _______ _____ _____    ______ ____
ROOT
ATOM      1  C   UNL     1     -35.810  25.157   4.138  0.00  0.00    +0.109 C 
ATOM      2  C   UNL     1     -35.518  24.060   3.105  0.00  0.00    +0.156 C 
ATOM      3  C   UNL     1     -35.692  22.730   3.856  0.00  0.00    +0.141 C 
ATOM      4  C   UNL     1     -35.471  23.135   5.282  0.00  0.00    +0.060 C 
ATOM      5  C   UNL     1     -35.536  24.464   5.433  0.00  0.00    +0.028 C 
ENDROOT
BRANCH   1   7
ATOM      6  O   UNL     1     -36.189  27.256   2.270  0.00  0.00    -0.269 OA
ATOM      7  N   UNL     1     -34.934  26.288   3.993  0.00  0.00    -0.253 N 
ATOM      8  C   UNL     1     -35.220  27.277   3.027  0.00  0.00    +0.256 C 
ATOM      9  C   UNL     1     -33.808  26.400   4.808  0.00  0.00    +0.071 C 
ATOM     10  C   UNL     1     -34.261  28.420   2.939  0.00  0.00    +0.095 C 
ATOM     11  C   UNL     1     -32.956  27.428   4.719  0.00  0.00    +0.053 C 
ATOM     12  C   UNL     1     -33.199  28.467   3.751  0.00  0.00    +0.140 C 
BRANCH  12  13
ATOM     13  O   UNL     1     -32.270  29.480   3.734  0.00  0.00    -0.505 OA
ATOM     14  H   UNL     1     -31.720  29.623   4.479  0.00  0.00    +0.292 HD
ENDBRANCH  12  13
ENDBRANCH   1   7
BRANCH   2  15
ATOM     15  O   UNL     1     -36.399  24.172   2.000  0.00  0.00    -0.380 OA
ATOM     16  H   UNL     1     -37.294  23.921   2.273  0.00  0.00    +0.211 HD
ENDBRANCH   2  15
BRANCH   3  17
ATOM     17  O   UNL     1     -37.004  22.205   3.733  0.00  0.00    -0.382 OA
ATOM     18  H   UNL     1     -37.476  22.675   3.029  0.00  0.00    +0.210 HD
ENDBRANCH   3  17
BRANCH   4  19
ATOM     19  C   UNL     1     -35.254  22.126   6.351  0.00  0.00    +0.140 C 
BRANCH  19  20
ATOM     20  O   UNL     1     -35.427  20.815   5.832  0.00  0.00    -0.382 OA
ATOM     21  H   UNL     1     -34.761  20.648   5.147  0.00  0.00    +0.210 HD
ENDBRANCH  19  20
ENDBRANCH   4  19
TORSDOF 6
ENDMDL
MODEL 3
REMARK VINA RESULT:      -5.4      2.019      5.955
REMARK  Name = 54697253
REMARK  6 active torsions:
REMARK  status: ('A' for Active; 'I' for Inactive)
REMARK    1  A    between atoms: C_1  and  N_7
REMARK    2  A    between atoms: C_2  and  O_15
REMARK    3  A    between atoms: C_3  and  O_17
REMARK    4  A    between atoms: C_4  and  C_19
REMARK    5  A    between atoms: C_12  and  O_13
REMARK    6  A    between atoms: C_19  and  O_20
REMARK                            x       y       z     vdW  Elec       q    Type
REMARK                         _______ _______ _______ _____ _____    ______ ____
ROOT
ATOM      1  C   UNL     1     -35.621  24.477   3.331  0.00  0.00    +0.109 C 
ATOM      2  C   UNL     1     -36.569  24.438   4.538  0.00  0.00    +0.156 C 
ATOM      3  C   UNL     1     -36.025  25.484   5.524  0.00  0.00    +0.141 C 
ATOM      4  C   UNL     1     -34.584  25.584   5.124  0.00  0.00    +0.060 C 
ATOM      5  C   UNL     1     -34.366  25.031   3.924  0.00  0.00    +0.028 C 
ENDROOT
BRANCH   1   7
ATOM      6  O   UNL     1     -34.624  23.972   0.725  0.00  0.00    -0.269 OA
ATOM      7  N   UNL     1     -35.371  23.167   2.794  0.00  0.00    -0.253 N 
ATOM      8  C   UNL     1     -34.872  23.032   1.480  0.00  0.00    +0.256 C 
ATOM      9  C   UNL     1     -35.622  22.039   3.575  0.00  0.00    +0.071 C 
ATOM     10  C   UNL     1     -34.639  21.638   0.995  0.00  0.00    +0.095 C 
ATOM     11  C   UNL     1     -35.410  20.795   3.129  0.00  0.00    +0.053 C 
ATOM     12  C   UNL     1     -34.901  20.598   1.795  0.00  0.00    +0.140 C 
BRANCH  12  13
ATOM     13  O   UNL     1     -34.716  19.287   1.427  0.00  0.00    -0.505 OA
ATOM     14  H   UNL     1     -33.947  19.037   0.954  0.00  0.00    +0.292 HD
ENDBRANCH  12  13
ENDBRANCH   1   7
BRANCH   2  15
ATOM     15  O   UNL     1     -37.898  24.721   4.133  0.00  0.00    -0.380 OA
ATOM     16  H   UNL     1     -38.399  23.893   4.068  0.00  0.00    +0.211 HD
ENDBRANCH   2  15
BRANCH   3  17
ATOM     17  O   UNL     1     -36.630  26.756   5.354  0.00  0.00    -0.382 OA
ATOM     18  H   UNL     1     -37.144  26.763   4.532  0.00  0.00    +0.210 HD
ENDBRANCH   3  17
BRANCH   4  19
ATOM     19  C   UNL     1     -33.584  26.264   5.987  0.00  0.00    +0.140 C 
BRANCH  19  20
ATOM     20  O   UNL     1     -33.242  27.529   5.439  0.00  0.00    -0.382 OA
ATOM     21  H   UNL     1     -33.075  27.435   4.489  0.00  0.00    +0.210 HD
ENDBRANCH  19  20
ENDBRANCH   4  19
TORSDOF 6
ENDMDL
MODEL 4
REMARK VINA RESULT:      -5.4      1.341      1.889
REMARK  Name = 54697253
REMARK  6 active torsions:
REMARK  status: ('A' for Active; 'I' for Inactive)
REMARK    1  A    between atoms: C_1  and  N_7
REMARK    2  A    between atoms: C_2  and  O_15
REMARK    3  A    between atoms: C_3  and  O_17
REMARK    4  A    between atoms: C_4  and  C_19
REMARK    5  A    between atoms: C_12  and  O_13
REMARK    6  A    between atoms: C_19  and  O_20
REMARK                            x       y       z     vdW  Elec       q    Type
REMARK                         _______ _______ _______ _____ _____    ______ ____
ROOT
ATOM      1  C   UNL     1     -36.617  22.960   3.821  0.00  0.00    +0.109 C 
ATOM      2  C   UNL     1     -37.575  23.184   2.643  0.00  0.00    +0.156 C 
ATOM      3  C   UNL     1     -37.587  21.859   1.864  0.00  0.00    +0.141 C 
ATOM      4  C   UNL     1     -36.277  21.244   2.255  0.00  0.00    +0.060 C 
ATOM      5  C   UNL     1     -35.748  21.849   3.327  0.00  0.00    +0.028 C 
ENDROOT
BRANCH   1   7
ATOM      6  O   UNL     1     -35.226  23.412   6.251  0.00  0.00    -0.269 OA
ATOM      7  N   UNL     1     -35.815  24.122   4.099  0.00  0.00    -0.253 N 
ATOM      8  C   UNL     1     -35.165  24.243   5.346  0.00  0.00    +0.256 C 
ATOM      9  C   UNL     1     -35.685  25.119   3.133  0.00  0.00    +0.071 C 
ATOM     10  C   UNL     1     -34.351  25.478   5.557  0.00  0.00    +0.095 C 
ATOM     11  C   UNL     1     -34.954  26.222   3.334  0.00  0.00    +0.053 C 
ATOM     12  C   UNL     1     -34.268  26.398   4.589  0.00  0.00    +0.140 C 
BRANCH  12  13
ATOM     13  O   UNL     1     -33.543  27.560   4.701  0.00  0.00    -0.505 OA
ATOM     14  H   UNL     1     -32.611  27.541   4.613  0.00  0.00    +0.292 HD
ENDBRANCH  12  13
ENDBRANCH   1   7
BRANCH   2  15
ATOM     15  O   UNL     1     -38.863  23.544   3.112  0.00  0.00    -0.380 OA
ATOM     16  H   UNL     1     -39.453  22.777   3.056  0.00  0.00    +0.211 HD
ENDBRANCH   2  15
BRANCH   3  17
ATOM     17  O   UNL     1     -38.633  20.995   2.280  0.00  0.00    -0.382 OA
ATOM     18  H   UNL     1     -38.971  21.287   3.141  0.00  0.00    +0.210 HD
ENDBRANCH   3  17
BRANCH   4  19
ATOM     19  C   UNL     1     -35.717  20.080   1.522  0.00  0.00    +0.140 C 
BRANCH  19  20
ATOM     20  O   UNL     1     -36.715  19.087   1.340  0.00  0.00    -0.382 OA
ATOM     21  H   UNL     1     -36.407  18.434   0.693  0.00  0.00    +0.210 HD
ENDBRANCH  19  20
ENDBRANCH   4  19
TORSDOF 6
ENDMDL
MODEL 5
REMARK VINA RESULT:      -5.3      2.808      6.006
REMARK  Name = 54697253
REMARK  6 active torsions:
REMARK  status: ('A' for Active; 'I' for Inactive)
REMARK    1  A    between atoms: C_1  and  N_7
REMARK    2  A    between atoms: C_2  and  O_15
REMARK    3  A    between atoms: C_3  and  O_17
REMARK    4  A    between atoms: C_4  and  C_19
REMARK    5  A    between atoms: C_12  and  O_13
REMARK    6  A    between atoms: C_19  and  O_20
REMARK                            x       y       z     vdW  Elec       q    Type
REMARK                         _______ _______ _______ _____ _____    ______ ____
ROOT
ATOM      1  C   UNL     1     -36.739  26.030   3.622  0.00  0.00    +0.109 C 
ATOM      2  C   UNL     1     -35.608  26.740   2.865  0.00  0.00    +0.156 C 
ATOM      3  C   UNL     1     -36.286  27.452   1.685  0.00  0.00    +0.141 C 
ATOM      4  C   UNL     1     -37.544  26.656   1.507  0.00  0.00    +0.060 C 
ATOM      5  C   UNL     1     -37.788  25.878   2.569  0.00  0.00    +0.028 C 
ENDROOT
BRANCH   1   7
ATOM      6  O   UNL     1     -35.325  25.583   6.039  0.00  0.00    -0.269 OA
ATOM      7  N   UNL     1     -36.340  24.735   4.107  0.00  0.00    -0.253 N 
ATOM      8  C   UNL     1     -35.638  24.630   5.327  0.00  0.00    +0.256 C 
ATOM      9  C   UNL     1     -36.651  23.594   3.368  0.00  0.00    +0.071 C 
ATOM     10  C   UNL     1     -35.260  23.251   5.761  0.00  0.00    +0.095 C 
ATOM     11  C   UNL     1     -36.306  22.364   3.767  0.00  0.00    +0.053 C 
ATOM     12  C   UNL     1     -35.588  22.197   5.005  0.00  0.00    +0.140 C 
BRANCH  12  13
ATOM     13  O   UNL     1     -35.279  20.898   5.331  0.00  0.00    -0.505 OA
ATOM     14  H   UNL     1     -34.892  20.703   6.161  0.00  0.00    +0.292 HD
ENDBRANCH  12  13
ENDBRANCH   1   7
BRANCH   2  15
ATOM     15  O   UNL     1     -34.929  27.643   3.720  0.00  0.00    -0.380 OA
ATOM     16  H   UNL     1     -34.022  27.333   3.864  0.00  0.00    +0.211 HD
ENDBRANCH   2  15
BRANCH   3  17
ATOM     17  O   UNL     1     -36.640  28.792   1.990  0.00  0.00    -0.382 OA
ATOM     18  H   UNL     1     -36.804  28.874   2.942  0.00  0.00    +0.210 HD
ENDBRANCH   3  17
BRANCH   4  19
ATOM     19  C   UNL     1     -38.387  26.796   0.292  0.00  0.00    +0.140 C 
BRANCH  19  20
ATOM     20  O   UNL     1     -39.118  28.012   0.339  0.00  0.00    -0.382 OA
ATOM     21  H   UNL     1     -40.066  27.821   0.269  0.00  0.00    +0.210 HD
ENDBRANCH  19  20
ENDBRANCH   4  19
TORSDOF 6
ENDMDL
MODEL 6
REMARK VINA RESULT:      -5.2      2.837      5.205
REMARK  Name = 54697253
REMARK  6 active torsions:
REMARK  status: ('A' for Active; 'I' for Inactive)
REMARK    1  A    between atoms: C_1  and  N_7
REMARK    2  A    between atoms: C_2  and  O_15
REMARK    3  A    between atoms: C_3  and  O_17
REMARK    4  A    between atoms: C_4  and  C_19
REMARK    5  A    between atoms: C_12  and  O_13
REMARK    6  A    between atoms: C_19  and  O_20
REMARK                            x       y       z     vdW  Elec       q    Type
REMARK                         _______ _______ _______ _____ _____    ______ ____
ROOT
ATOM      1  C   UNL     1     -36.448  24.151   3.258  0.00  0.00    +0.109 C 
ATOM      2  C   UNL     1     -36.671  25.035   4.492  0.00  0.00    +0.156 C 
ATOM      3  C   UNL     1     -35.746  24.465   5.580  0.00  0.00    +0.141 C 
ATOM      4  C   UNL     1     -35.554  23.048   5.128  0.00  0.00    +0.060 C 
ATOM      5  C   UNL     1     -35.940  22.880   3.857  0.00  0.00    +0.028 C 
ENDROOT
BRANCH   1   7
ATOM      6  O   UNL     1     -37.777  26.053   1.627  0.00  0.00    -0.269 OA
ATOM      7  N   UNL     1     -37.670  23.900   2.542  0.00  0.00    -0.253 N 
ATOM      8  C   UNL     1     -38.245  24.923   1.757  0.00  0.00    +0.256 C 
ATOM      9  C   UNL     1     -38.277  22.647   2.627  0.00  0.00    +0.071 C 
ATOM     10  C   UNL     1     -39.514  24.584   1.044  0.00  0.00    +0.095 C 
ATOM     11  C   UNL     1     -39.414  22.355   1.984  0.00  0.00    +0.053 C 
ATOM     12  C   UNL     1     -40.045  23.362   1.169  0.00  0.00    +0.140 C 
BRANCH  12  13
ATOM     13  O   UNL     1     -41.207  22.969   0.549  0.00  0.00    -0.505 OA
ATOM     14  H   UNL     1     -41.338  23.151  -0.360  0.00  0.00    +0.292 HD
ENDBRANCH  12  13
ENDBRANCH   1   7
BRANCH   2  15
ATOM     15  O   UNL     1     -36.376  26.389   4.193  0.00  0.00    -0.380 OA
ATOM     16  H   UNL     1     -37.200  26.897   4.152  0.00  0.00    +0.211 HD
ENDBRANCH   2  15
BRANCH   3  17
ATOM     17  O   UNL     1     -34.481  25.105   5.607  0.00  0.00    -0.382 OA
ATOM     18  H   UNL     1     -33.834  24.565   5.126  0.00  0.00    +0.210 HD
ENDBRANCH   3  17
BRANCH   4  19
ATOM     19  C   UNL     1     -34.963  22.021   6.024  0.00  0.00    +0.140 C 
BRANCH  19  20
ATOM     20  O   UNL     1     -35.348  20.721   5.601  0.00  0.00    -0.382 OA
ATOM     21  H   UNL     1     -36.247  20.533   5.913  0.00  0.00    +0.210 HD
ENDBRANCH  19  20
ENDBRANCH   4  19
TORSDOF 6
ENDMDL
MODEL 7
REMARK VINA RESULT:      -5.1      2.095      2.557
REMARK  Name = 54697253
REMARK  6 active torsions:
REMARK  status: ('A' for Active; 'I' for Inactive)
REMARK    1  A    between atoms: C_1  and  N_7
REMARK    2  A    between atoms: C_2  and  O_15
REMARK    3  A    between atoms: C_3  and  O_17
REMARK    4  A    between atoms: C_4  and  C_19
REMARK    5  A    between atoms: C_12  and  O_13
REMARK    6  A    between atoms: C_19  and  O_20
REMARK                            x       y       z     vdW  Elec       q    Type
REMARK                         _______ _______ _______ _____ _____    ______ ____
ROOT
ATOM      1  C   UNL     1     -37.543  21.035   2.238  0.00  0.00    +0.109 C 
ATOM      2  C   UNL     1     -37.641  20.696   0.744  0.00  0.00    +0.156 C 
ATOM      3  C   UNL     1     -36.478  19.731   0.463  0.00  0.00    +0.141 C 
ATOM      4  C   UNL     1     -35.517  20.054   1.567  0.00  0.00    +0.060 C 
ATOM      5  C   UNL     1     -36.103  20.769   2.537  0.00  0.00    +0.028 C 
ENDROOT
BRANCH   1   7
ATOM      6  O   UNL     1     -40.152  22.143   2.164  0.00  0.00    -0.269 OA
ATOM      7  N   UNL     1     -37.851  22.414   2.504  0.00  0.00    -0.253 N 
ATOM      8  C   UNL     1     -39.189  22.858   2.439  0.00  0.00    +0.256 C 
ATOM      9  C   UNL     1     -36.825  23.303   2.826  0.00  0.00    +0.071 C 
ATOM     10  C   UNL     1     -39.427  24.305   2.729  0.00  0.00    +0.095 C 
ATOM     11  C   UNL     1     -37.050  24.597   3.083  0.00  0.00    +0.053 C 
ATOM     12  C   UNL     1     -38.398  25.105   3.031  0.00  0.00    +0.140 C 
BRANCH  12  13
ATOM     13  O   UNL     1     -38.529  26.444   3.309  0.00  0.00    -0.505 OA
ATOM     14  H   UNL     1     -38.624  27.061   2.611  0.00  0.00    +0.292 HD
ENDBRANCH  12  13
ENDBRANCH   1   7
BRANCH   2  15
ATOM     15  O   UNL     1     -38.901  20.121   0.448  0.00  0.00    -0.380 OA
ATOM     16  H   UNL     1     -39.255  20.516  -0.363  0.00  0.00    +0.211 HD
ENDBRANCH   2  15
BRANCH   3  17
ATOM     17  O   UNL     1     -36.862  18.370   0.583  0.00  0.00    -0.382 OA
ATOM     18  H   UNL     1     -37.706  18.313   1.057  0.00  0.00    +0.210 HD
ENDBRANCH   3  17
BRANCH   4  19
ATOM     19  C   UNL     1     -34.113  19.572   1.540  0.00  0.00    +0.140 C 
BRANCH  19  20
ATOM     20  O   UNL     1     -34.057  18.249   1.028  0.00  0.00    -0.382 OA
ATOM     21  H   UNL     1     -34.294  17.621   1.727  0.00  0.00    +0.210 HD
ENDBRANCH  19  20
ENDBRANCH   4  19
TORSDOF 6
ENDMDL
MODEL 8
REMARK VINA RESULT:      -5.1      1.944      3.411
REMARK  Name = 54697253
REMARK  6 active torsions:
REMARK  status: ('A' for Active; 'I' for Inactive)
REMARK    1  A    between atoms: C_1  and  N_7
REMARK    2  A    between atoms: C_2  and  O_15
REMARK    3  A    between atoms: C_3  and  O_17
REMARK    4  A    between atoms: C_4  and  C_19
REMARK    5  A    between atoms: C_12  and  O_13
REMARK    6  A    between atoms: C_19  and  O_20
REMARK                            x       y       z     vdW  Elec       q    Type
REMARK                         _______ _______ _______ _____ _____    ______ ____
ROOT
ATOM      1  C   UNL     1     -34.770  23.918   3.599  0.00  0.00    +0.109 C 
ATOM      2  C   UNL     1     -35.764  23.401   4.647  0.00  0.00    +0.156 C 
ATOM      3  C   UNL     1     -36.098  21.961   4.224  0.00  0.00    +0.141 C 
ATOM      4  C   UNL     1     -35.790  21.978   2.757  0.00  0.00    +0.060 C 
ATOM      5  C   UNL     1     -35.063  23.051   2.418  0.00  0.00    +0.028 C 
ENDROOT
BRANCH   1   7
ATOM      6  O   UNL     1     -33.068  26.063   4.338  0.00  0.00    -0.269 OA
ATOM      7  N   UNL     1     -35.002  25.297   3.263  0.00  0.00    -0.253 N 
ATOM      8  C   UNL     1     -34.086  26.285   3.684  0.00  0.00    +0.256 C 
ATOM      9  C   UNL     1     -36.131  25.648   2.523  0.00  0.00    +0.071 C 
ATOM     10  C   UNL     1     -34.398  27.694   3.295  0.00  0.00    +0.095 C 
ATOM     11  C   UNL     1     -36.401  26.914   2.181  0.00  0.00    +0.053 C 
ATOM     12  C   UNL     1     -35.499  27.963   2.584  0.00  0.00    +0.140 C 
BRANCH  12  13
ATOM     13  O   UNL     1     -35.860  29.228   2.187  0.00  0.00    -0.505 OA
ATOM     14  H   UNL     1     -35.317  29.705   1.590  0.00  0.00    +0.292 HD
ENDBRANCH  12  13
ENDBRANCH   1   7
BRANCH   2  15
ATOM     15  O   UNL     1     -35.195  23.461   5.944  0.00  0.00    -0.380 OA
ATOM     16  H   UNL     1     -35.441  24.298   6.366  0.00  0.00    +0.211 HD
ENDBRANCH   2  15
BRANCH   3  17
ATOM     17  O   UNL     1     -35.260  21.003   4.850  0.00  0.00    -0.382 OA
ATOM     18  H   UNL     1     -34.334  21.275   4.760  0.00  0.00    +0.210 HD
ENDBRANCH   3  17
BRANCH   4  19
ATOM     19  C   UNL     1     -36.234  20.882   1.858  0.00  0.00    +0.140 C 
BRANCH  19  20
ATOM     20  O   UNL     1     -36.721  19.788   2.620  0.00  0.00    -0.382 OA
ATOM     21  H   UNL     1     -37.004  19.078   2.023  0.00  0.00    +0.210 HD
ENDBRANCH  19  20
ENDBRANCH   4  19
TORSDOF 6
ENDMDL
MODEL 9
REMARK VINA RESULT:      -5.0      3.775      5.718
REMARK  Name = 54697253
REMARK  6 active torsions:
REMARK  status: ('A' for Active; 'I' for Inactive)
REMARK    1  A    between atoms: C_1  and  N_7
REMARK    2  A    between atoms: C_2  and  O_15
REMARK    3  A    between atoms: C_3  and  O_17
REMARK    4  A    between atoms: C_4  and  C_19
REMARK    5  A    between atoms: C_12  and  O_13
REMARK    6  A    between atoms: C_19  and  O_20
REMARK                            x       y       z     vdW  Elec       q    Type
REMARK                         _______ _______ _______ _____ _____    ______ ____
ROOT
ATOM      1  C   UNL     1     -34.426  26.455   4.495  0.00  0.00    +0.109 C 
ATOM      2  C   UNL     1     -35.418  25.924   3.451  0.00  0.00    +0.156 C 
ATOM      3  C   UNL     1     -36.118  24.730   4.118  0.00  0.00    +0.141 C 
ATOM      4  C   UNL     1     -35.123  24.314   5.159  0.00  0.00    +0.060 C 
ATOM      5  C   UNL     1     -34.198  25.260   5.363  0.00  0.00    +0.028 C 
ENDROOT
BRANCH   1   7
ATOM      6  O   UNL     1     -32.738  28.475   5.550  0.00  0.00    -0.269 OA
ATOM      7  N   UNL     1     -33.184  26.873   3.901  0.00  0.00    -0.253 N 
ATOM      8  C   UNL     1     -32.422  27.891   4.515  0.00  0.00    +0.256 C 
ATOM      9  C   UNL     1     -32.742  26.269   2.724  0.00  0.00    +0.071 C 
ATOM     10  C   UNL     1     -31.145  28.268   3.836  0.00  0.00    +0.095 C 
ATOM     11  C   UNL     1     -31.596  26.616   2.126  0.00  0.00    +0.053 C 
ATOM     12  C   UNL     1     -30.778  27.649   2.708  0.00  0.00    +0.140 C 
BRANCH  12  13
ATOM     13  O   UNL     1     -29.622  27.936   2.022  0.00  0.00    -0.505 OA
ATOM     14  H   UNL     1     -29.162  28.733   2.192  0.00  0.00    +0.292 HD
ENDBRANCH  12  13
ENDBRANCH   1   7
BRANCH   2  15
ATOM     15  O   UNL     1     -36.331  26.939   3.073  0.00  0.00    -0.380 OA
ATOM     16  H   UNL     1     -37.038  27.001   3.733  0.00  0.00    +0.211 HD
ENDBRANCH   2  15
BRANCH   3  17
ATOM     17  O   UNL     1     -37.323  25.101   4.769  0.00  0.00    -0.382 OA
ATOM     18  H   UNL     1     -37.133  25.770   5.445  0.00  0.00    +0.210 HD
ENDBRANCH   3  17
BRANCH   4  19
ATOM     19  C   UNL     1     -35.237  23.013   5.867  0.00  0.00    +0.140 C 
BRANCH  19  20
ATOM     20  O   UNL     1     -36.315  22.256   5.335  0.00  0.00    -0.382 OA
ATOM     21  H   UNL     1     -36.120  22.018   4.415  0.00  0.00    +0.210 HD
ENDBRANCH  19  20
ENDBRANCH   4  19
TORSDOF 6
ENDMDL
