MODEL 1
REMARK VINA RESULT:      -5.4      0.000      0.000
REMARK  Name = 54684286
REMARK  6 active torsions:
REMARK  status: ('A' for Active; 'I' for Inactive)
REMARK    1  A    between atoms: C2*_2  and  O2*_15
REMARK    2  A    between atoms: C3*_3  and  O3*_17
REMARK    3  A    between atoms: C1*_4  and  N_7
REMARK    4  A    between atoms: C4*_5  and  C5*_19
REMARK    5  A    between atoms: C_12  and  O_13
REMARK    6  A    between atoms: C5*_19  and  O5*_20
REMARK                            x       y       z     vdW  Elec       q    Type
REMARK                         _______ _______ _______ _____ _____    ______ ____
ROOT
ATOM      1  O4* UNL     1     -35.298  23.472   3.844  0.00  0.00    -0.333 OA
ATOM      2  C2* UNL     1     -36.320  25.201   5.100  0.00  0.00    +0.187 C 
ATOM      3  C3* UNL     1     -35.055  24.770   5.810  0.00  0.00    +0.171 C 
ATOM      4  C1* UNL     1     -36.097  24.658   3.699  0.00  0.00    +0.228 C 
ATOM      5  C4* UNL     1     -34.795  23.401   5.195  0.00  0.00    +0.175 C 
ENDROOT
BRANCH   4   7
ATOM      6  O   UNL     1     -37.915  26.539   2.606  0.00  0.00    -0.269 OA
ATOM      7  N   UNL     1     -37.326  24.314   3.041  0.00  0.00    -0.229 N 
ATOM      8  C   UNL     1     -38.158  25.336   2.533  0.00  0.00    +0.258 C 
ATOM      9  C   UNL     1     -37.691  22.974   2.908  0.00  0.00    +0.073 C 
ATOM     10  C   UNL     1     -39.421  24.897   1.862  0.00  0.00    +0.095 C 
ATOM     11  C   UNL     1     -38.823  22.594   2.305  0.00  0.00    +0.053 C 
ATOM     12  C   UNL     1     -39.710  23.595   1.768  0.00  0.00    +0.140 C 
BRANCH  12  13
ATOM     13  O   UNL     1     -40.847  23.107   1.168  0.00  0.00    -0.505 OA
ATOM     14  H   UNL     1     -41.250  22.327   1.492  0.00  0.00    +0.292 HD
ENDBRANCH  12  13
ENDBRANCH   4   7
BRANCH   2  15
ATOM     15  O2* UNL     1     -36.494  26.603   5.118  0.00  0.00    -0.378 OA
ATOM     16  H2* UNL     1     -37.328  26.831   4.678  0.00  0.00    +0.211 HD
ENDBRANCH   2  15
BRANCH   3  17
ATOM     17  O3* UNL     1     -33.970  25.625   5.453  0.00  0.00    -0.379 OA
ATOM     18  H3* UNL     1     -33.611  25.349   4.594  0.00  0.00    +0.211 HD
ENDBRANCH   3  17
BRANCH   5  19
ATOM     19  C5* UNL     1     -35.522  22.271   5.913  0.00  0.00    +0.169 C 
BRANCH  19  20
ATOM     20  O5* UNL     1     -34.915  21.042   5.555  0.00  0.00    -0.379 OA
ATOM     21  H5* UNL     1     -34.617  20.583   6.356  0.00  0.00    +0.211 HD
ENDBRANCH  19  20
ENDBRANCH   5  19
TORSDOF 6
ENDMDL
MODEL 2
REMARK VINA RESULT:      -5.4      2.592      5.202
REMARK  Name = 54684286
REMARK  6 active torsions:
REMARK  status: ('A' for Active; 'I' for Inactive)
REMARK    1  A    between atoms: C2*_2  and  O2*_15
REMARK    2  A    between atoms: C3*_3  and  O3*_17
REMARK    3  A    between atoms: C1*_4  and  N_7
REMARK    4  A    between atoms: C4*_5  and  C5*_19
REMARK    5  A    between atoms: C_12  and  O_13
REMARK    6  A    between atoms: C5*_19  and  O5*_20
REMARK                            x       y       z     vdW  Elec       q    Type
REMARK                         _______ _______ _______ _____ _____    ______ ____
ROOT
ATOM      1  O4* UNL     1     -35.014  21.341   2.286  0.00  0.00    -0.333 OA
ATOM      2  C2* UNL     1     -37.346  21.405   1.876  0.00  0.00    +0.187 C 
ATOM      3  C3* UNL     1     -36.706  20.461   0.882  0.00  0.00    +0.171 C 
ATOM      4  C1* UNL     1     -36.277  21.505   2.951  0.00  0.00    +0.228 C 
ATOM      5  C4* UNL     1     -35.244  20.884   0.935  0.00  0.00    +0.175 C 
ENDROOT
BRANCH   4   7
ATOM      6  O   UNL     1     -35.069  22.005   5.467  0.00  0.00    -0.269 OA
ATOM      7  N   UNL     1     -36.290  22.774   3.621  0.00  0.00    -0.229 N 
ATOM      8  C   UNL     1     -35.655  22.911   4.875  0.00  0.00    +0.258 C 
ATOM      9  C   UNL     1     -36.929  23.864   3.031  0.00  0.00    +0.073 C 
ATOM     10  C   UNL     1     -35.712  24.264   5.510  0.00  0.00    +0.095 C 
ATOM     11  C   UNL     1     -36.973  25.071   3.608  0.00  0.00    +0.053 C 
ATOM     12  C   UNL     1     -36.342  25.267   4.888  0.00  0.00    +0.140 C 
BRANCH  12  13
ATOM     13  O   UNL     1     -36.441  26.539   5.401  0.00  0.00    -0.505 OA
ATOM     14  H   UNL     1     -36.068  27.262   4.937  0.00  0.00    +0.292 HD
ENDBRANCH  12  13
ENDBRANCH   4   7
BRANCH   2  15
ATOM     15  O2* UNL     1     -38.572  20.910   2.374  0.00  0.00    -0.378 OA
ATOM     16  H2* UNL     1     -38.751  21.302   3.242  0.00  0.00    +0.211 HD
ENDBRANCH   2  15
BRANCH   3  17
ATOM     17  O3* UNL     1     -36.791  19.115   1.350  0.00  0.00    -0.379 OA
ATOM     18  H3* UNL     1     -35.926  18.838   1.691  0.00  0.00    +0.211 HD
ENDBRANCH   3  17
BRANCH   5  19
ATOM     19  C5* UNL     1     -34.913  22.028  -0.015  0.00  0.00    +0.169 C 
BRANCH  19  20
ATOM     20  O5* UNL     1     -34.170  23.005   0.692  0.00  0.00    -0.379 OA
ATOM     21  H5* UNL     1     -33.678  22.579   1.410  0.00  0.00    +0.211 HD
ENDBRANCH  19  20
ENDBRANCH   5  19
TORSDOF 6
ENDMDL
MODEL 3
REMARK VINA RESULT:      -5.2      2.246      4.623
REMARK  Name = 54684286
REMARK  6 active torsions:
REMARK  status: ('A' for Active; 'I' for Inactive)
REMARK    1  A    between atoms: C2*_2  and  O2*_15
REMARK    2  A    between atoms: C3*_3  and  O3*_17
REMARK    3  A    between atoms: C1*_4  and  N_7
REMARK    4  A    between atoms: C4*_5  and  C5*_19
REMARK    5  A    between atoms: C_12  and  O_13
REMARK    6  A    between atoms: C5*_19  and  O5*_20
REMARK                            x       y       z     vdW  Elec       q    Type
REMARK                         _______ _______ _______ _____ _____    ______ ____
ROOT
ATOM      1  O4* UNL     1     -37.028  25.328   1.797  0.00  0.00    -0.333 OA
ATOM      2  C2* UNL     1     -35.365  26.606   2.898  0.00  0.00    +0.187 C 
ATOM      3  C3* UNL     1     -35.752  27.315   1.619  0.00  0.00    +0.171 C 
ATOM      4  C1* UNL     1     -36.539  25.665   3.105  0.00  0.00    +0.228 C 
ATOM      5  C4* UNL     1     -36.413  26.198   0.822  0.00  0.00    +0.175 C 
ENDROOT
BRANCH   4   7
ATOM      6  O   UNL     1     -36.016  25.487   5.886  0.00  0.00    -0.269 OA
ATOM      7  N   UNL     1     -36.162  24.459   3.787  0.00  0.00    -0.229 N 
ATOM      8  C   UNL     1     -35.925  24.485   5.179  0.00  0.00    +0.258 C 
ATOM      9  C   UNL     1     -36.031  23.269   3.071  0.00  0.00    +0.073 C 
ATOM     10  C   UNL     1     -35.536  23.188   5.816  0.00  0.00    +0.095 C 
ATOM     11  C   UNL     1     -35.684  22.114   3.652  0.00  0.00    +0.053 C 
ATOM     12  C   UNL     1     -35.430  22.083   5.069  0.00  0.00    +0.140 C 
BRANCH  12  13
ATOM     13  O   UNL     1     -35.079  20.854   5.574  0.00  0.00    -0.505 OA
ATOM     14  H   UNL     1     -35.418  20.571   6.400  0.00  0.00    +0.292 HD
ENDBRANCH  12  13
ENDBRANCH   4   7
BRANCH   2  15
ATOM     15  O2* UNL     1     -35.189  27.501   3.976  0.00  0.00    -0.378 OA
ATOM     16  H2* UNL     1     -34.479  28.127   3.765  0.00  0.00    +0.211 HD
ENDBRANCH   2  15
BRANCH   3  17
ATOM     17  O3* UNL     1     -36.740  28.310   1.883  0.00  0.00    -0.379 OA
ATOM     18  H3* UNL     1     -36.382  29.186   1.667  0.00  0.00    +0.211 HD
ENDBRANCH   3  17
BRANCH   5  19
ATOM     19  C5* UNL     1     -35.426  25.374   0.006  0.00  0.00    +0.169 C 
BRANCH  19  20
ATOM     20  O5* UNL     1     -36.034  24.140  -0.330  0.00  0.00    -0.379 OA
ATOM     21  H5* UNL     1     -36.531  23.807   0.432  0.00  0.00    +0.211 HD
ENDBRANCH  19  20
ENDBRANCH   5  19
TORSDOF 6
ENDMDL
MODEL 4
REMARK VINA RESULT:      -5.1      2.741      4.671
REMARK  Name = 54684286
REMARK  6 active torsions:
REMARK  status: ('A' for Active; 'I' for Inactive)
REMARK    1  A    between atoms: C2*_2  and  O2*_15
REMARK    2  A    between atoms: C3*_3  and  O3*_17
REMARK    3  A    between atoms: C1*_4  and  N_7
REMARK    4  A    between atoms: C4*_5  and  C5*_19
REMARK    5  A    between atoms: C_12  and  O_13
REMARK    6  A    between atoms: C5*_19  and  O5*_20
REMARK                            x       y       z     vdW  Elec       q    Type
REMARK                         _______ _______ _______ _____ _____    ______ ____
ROOT
ATOM      1  O4* UNL     1     -33.537  25.757   3.011  0.00  0.00    -0.333 OA
ATOM      2  C2* UNL     1     -35.724  26.475   3.571  0.00  0.00    +0.187 C 
ATOM      3  C3* UNL     1     -34.890  27.689   3.223  0.00  0.00    +0.171 C 
ATOM      4  C1* UNL     1     -34.913  25.348   2.954  0.00  0.00    +0.228 C 
ATOM      5  C4* UNL     1     -33.472  27.154   3.369  0.00  0.00    +0.175 C 
ENDROOT
BRANCH   4   7
ATOM      6  O   UNL     1     -35.399  22.836   1.733  0.00  0.00    -0.269 OA
ATOM      7  N   UNL     1     -35.062  24.112   3.668  0.00  0.00    -0.229 N 
ATOM      8  C   UNL     1     -35.302  22.916   2.956  0.00  0.00    +0.258 C 
ATOM      9  C   UNL     1     -34.969  24.098   5.060  0.00  0.00    +0.073 C 
ATOM     10  C   UNL     1     -35.446  21.670   3.771  0.00  0.00    +0.095 C 
ATOM     11  C   UNL     1     -35.099  22.976   5.778  0.00  0.00    +0.053 C 
ATOM     12  C   UNL     1     -35.345  21.727   5.103  0.00  0.00    +0.140 C 
BRANCH  12  13
ATOM     13  O   UNL     1     -35.464  20.632   5.925  0.00  0.00    -0.505 OA
ATOM     14  H   UNL     1     -34.915  19.885   5.793  0.00  0.00    +0.292 HD
ENDBRANCH  12  13
ENDBRANCH   4   7
BRANCH   2  15
ATOM     15  O2* UNL     1     -37.032  26.555   3.044  0.00  0.00    -0.378 OA
ATOM     16  H2* UNL     1     -37.676  26.477   3.765  0.00  0.00    +0.211 HD
ENDBRANCH   2  15
BRANCH   3  17
ATOM     17  O3* UNL     1     -35.084  28.050   1.856  0.00  0.00    -0.379 OA
ATOM     18  H3* UNL     1     -34.848  28.982   1.732  0.00  0.00    +0.211 HD
ENDBRANCH   3  17
BRANCH   5  19
ATOM     19  C5* UNL     1     -32.933  27.255   4.791  0.00  0.00    +0.169 C 
BRANCH  19  20
ATOM     20  O5* UNL     1     -32.821  28.624   5.137  0.00  0.00    -0.379 OA
ATOM     21  H5* UNL     1     -31.905  28.915   5.010  0.00  0.00    +0.211 HD
ENDBRANCH  19  20
ENDBRANCH   5  19
TORSDOF 6
ENDMDL
MODEL 5
REMARK VINA RESULT:      -5.1      1.198      2.110
REMARK  Name = 54684286
REMARK  6 active torsions:
REMARK  status: ('A' for Active; 'I' for Inactive)
REMARK    1  A    between atoms: C2*_2  and  O2*_15
REMARK    2  A    between atoms: C3*_3  and  O3*_17
REMARK    3  A    between atoms: C1*_4  and  N_7
REMARK    4  A    between atoms: C4*_5  and  C5*_19
REMARK    5  A    between atoms: C_12  and  O_13
REMARK    6  A    between atoms: C5*_19  and  O5*_20
REMARK                            x       y       z     vdW  Elec       q    Type
REMARK                         _______ _______ _______ _____ _____    ______ ____
ROOT
ATOM      1  O4* UNL     1     -35.208  22.959   3.964  0.00  0.00    -0.333 OA
ATOM      2  C2* UNL     1     -36.666  24.675   4.700  0.00  0.00    +0.187 C 
ATOM      3  C3* UNL     1     -35.420  24.697   5.559  0.00  0.00    +0.171 C 
ATOM      4  C1* UNL     1     -36.202  23.882   3.491  0.00  0.00    +0.228 C 
ATOM      5  C4* UNL     1     -34.840  23.310   5.316  0.00  0.00    +0.175 C 
ENDROOT
BRANCH   4   7
ATOM      6  O   UNL     1     -35.947  21.260   2.442  0.00  0.00    -0.269 OA
ATOM      7  N   UNL     1     -37.269  23.144   2.876  0.00  0.00    -0.229 N 
ATOM      8  C   UNL     1     -37.030  21.840   2.387  0.00  0.00    +0.258 C 
ATOM      9  C   UNL     1     -38.536  23.717   2.766  0.00  0.00    +0.073 C 
ATOM     10  C   UNL     1     -38.191  21.137   1.760  0.00  0.00    +0.095 C 
ATOM     11  C   UNL     1     -39.568  23.077   2.203  0.00  0.00    +0.053 C 
ATOM     12  C   UNL     1     -39.380  21.746   1.687  0.00  0.00    +0.140 C 
BRANCH  12  13
ATOM     13  O   UNL     1     -40.497  21.171   1.129  0.00  0.00    -0.505 OA
ATOM     14  H   UNL     1     -40.406  20.516   0.466  0.00  0.00    +0.292 HD
ENDBRANCH  12  13
ENDBRANCH   4   7
BRANCH   2  15
ATOM     15  O2* UNL     1     -37.108  25.973   4.362  0.00  0.00    -0.378 OA
ATOM     16  H2* UNL     1     -37.144  26.062   3.398  0.00  0.00    +0.211 HD
ENDBRANCH   2  15
BRANCH   3  17
ATOM     17  O3* UNL     1     -34.490  25.656   5.057  0.00  0.00    -0.379 OA
ATOM     18  H3* UNL     1     -34.607  25.748   4.098  0.00  0.00    +0.211 HD
ENDBRANCH   3  17
BRANCH   5  19
ATOM     19  C5* UNL     1     -35.404  22.249   6.252  0.00  0.00    +0.169 C 
BRANCH  19  20
ATOM     20  O5* UNL     1     -35.364  20.995   5.594  0.00  0.00    -0.379 OA
ATOM     21  H5* UNL     1     -36.081  20.949   4.942  0.00  0.00    +0.211 HD
ENDBRANCH  19  20
ENDBRANCH   5  19
TORSDOF 6
ENDMDL
MODEL 6
REMARK VINA RESULT:      -5.0      2.566      5.238
REMARK  Name = 54684286
REMARK  6 active torsions:
REMARK  status: ('A' for Active; 'I' for Inactive)
REMARK    1  A    between atoms: C2*_2  and  O2*_15
REMARK    2  A    between atoms: C3*_3  and  O3*_17
REMARK    3  A    between atoms: C1*_4  and  N_7
REMARK    4  A    between atoms: C4*_5  and  C5*_19
REMARK    5  A    between atoms: C_12  and  O_13
REMARK    6  A    between atoms: C5*_19  and  O5*_20
REMARK                            x       y       z     vdW  Elec       q    Type
REMARK                         _______ _______ _______ _____ _____    ______ ____
ROOT
ATOM      1  O4* UNL     1     -35.708  21.197   3.432  0.00  0.00    -0.333 OA
ATOM      2  C2* UNL     1     -36.838  22.550   1.850  0.00  0.00    +0.187 C 
ATOM      3  C3* UNL     1     -37.050  21.097   1.484  0.00  0.00    +0.171 C 
ATOM      4  C1* UNL     1     -36.400  22.449   3.301  0.00  0.00    +0.228 C 
ATOM      5  C4* UNL     1     -35.922  20.409   2.241  0.00  0.00    +0.175 C 
ENDROOT
BRANCH   4   7
ATOM      6  O   UNL     1     -35.941  23.279   5.973  0.00  0.00    -0.269 OA
ATOM      7  N   UNL     1     -35.515  23.513   3.682  0.00  0.00    -0.229 N 
ATOM      8  C   UNL     1     -35.361  23.844   5.047  0.00  0.00    +0.258 C 
ATOM      9  C   UNL     1     -34.812  24.216   2.703  0.00  0.00    +0.073 C 
ATOM     10  C   UNL     1     -34.422  24.964   5.363  0.00  0.00    +0.095 C 
ATOM     11  C   UNL     1     -33.973  25.216   2.998  0.00  0.00    +0.053 C 
ATOM     12  C   UNL     1     -33.779  25.595   4.374  0.00  0.00    +0.140 C 
BRANCH  12  13
ATOM     13  O   UNL     1     -32.900  26.632   4.577  0.00  0.00    -0.505 OA
ATOM     14  H   UNL     1     -32.282  26.592   5.279  0.00  0.00    +0.292 HD
ENDBRANCH  12  13
ENDBRANCH   4   7
BRANCH   2  15
ATOM     15  O2* UNL     1     -38.011  23.321   1.689  0.00  0.00    -0.378 OA
ATOM     16  H2* UNL     1     -38.527  22.973   0.945  0.00  0.00    +0.211 HD
ENDBRANCH   2  15
BRANCH   3  17
ATOM     17  O3* UNL     1     -38.288  20.627   2.017  0.00  0.00    -0.379 OA
ATOM     18  H3* UNL     1     -38.640  19.927   1.445  0.00  0.00    +0.211 HD
ENDBRANCH   3  17
BRANCH   5  19
ATOM     19  C5* UNL     1     -34.614  20.362   1.461  0.00  0.00    +0.169 C 
BRANCH  19  20
ATOM     20  O5* UNL     1     -34.063  19.063   1.580  0.00  0.00    -0.379 OA
ATOM     21  H5* UNL     1     -34.616  18.529   2.171  0.00  0.00    +0.211 HD
ENDBRANCH  19  20
ENDBRANCH   5  19
TORSDOF 6
ENDMDL
MODEL 7
REMARK VINA RESULT:      -5.0      2.168      3.470
REMARK  Name = 54684286
REMARK  6 active torsions:
REMARK  status: ('A' for Active; 'I' for Inactive)
REMARK    1  A    between atoms: C2*_2  and  O2*_15
REMARK    2  A    between atoms: C3*_3  and  O3*_17
REMARK    3  A    between atoms: C1*_4  and  N_7
REMARK    4  A    between atoms: C4*_5  and  C5*_19
REMARK    5  A    between atoms: C_12  and  O_13
REMARK    6  A    between atoms: C5*_19  and  O5*_20
REMARK                            x       y       z     vdW  Elec       q    Type
REMARK                         _______ _______ _______ _____ _____    ______ ____
ROOT
ATOM      1  O4* UNL     1     -36.712  24.176   4.596  0.00  0.00    -0.333 OA
ATOM      2  C2* UNL     1     -35.440  22.228   4.148  0.00  0.00    +0.187 C 
ATOM      3  C3* UNL     1     -35.219  22.629   5.590  0.00  0.00    +0.171 C 
ATOM      4  C1* UNL     1     -36.716  22.977   3.804  0.00  0.00    +0.228 C 
ATOM      5  C4* UNL     1     -35.667  24.084   5.589  0.00  0.00    +0.175 C 
ENDROOT
BRANCH   4   7
ATOM      6  O   UNL     1     -39.048  22.777   2.204  0.00  0.00    -0.269 OA
ATOM      7  N   UNL     1     -36.784  23.336   2.416  0.00  0.00    -0.229 N 
ATOM      8  C   UNL     1     -38.001  23.196   1.713  0.00  0.00    +0.258 C 
ATOM      9  C   UNL     1     -35.647  23.821   1.768  0.00  0.00    +0.073 C 
ATOM     10  C   UNL     1     -37.991  23.591   0.271  0.00  0.00    +0.095 C 
ATOM     11  C   UNL     1     -35.650  24.172   0.476  0.00  0.00    +0.053 C 
ATOM     12  C   UNL     1     -36.865  24.050  -0.288  0.00  0.00    +0.140 C 
BRANCH  12  13
ATOM     13  O   UNL     1     -36.770  24.434  -1.604  0.00  0.00    -0.505 OA
ATOM     14  H   UNL     1     -37.397  25.028  -1.966  0.00  0.00    +0.292 HD
ENDBRANCH  12  13
ENDBRANCH   4   7
BRANCH   2  15
ATOM     15  O2* UNL     1     -35.572  20.830   3.994  0.00  0.00    -0.378 OA
ATOM     16  H2* UNL     1     -36.237  20.497   4.616  0.00  0.00    +0.211 HD
ENDBRANCH   2  15
BRANCH   3  17
ATOM     17  O3* UNL     1     -36.097  21.900   6.448  0.00  0.00    -0.379 OA
ATOM     18  H3* UNL     1     -36.332  21.058   6.027  0.00  0.00    +0.211 HD
ENDBRANCH   3  17
BRANCH   5  19
ATOM     19  C5* UNL     1     -34.559  25.055   5.203  0.00  0.00    +0.169 C 
BRANCH  19  20
ATOM     20  O5* UNL     1     -34.979  26.371   5.518  0.00  0.00    -0.379 OA
ATOM     21  H5* UNL     1     -35.724  26.617   4.948  0.00  0.00    +0.211 HD
ENDBRANCH  19  20
ENDBRANCH   5  19
TORSDOF 6
ENDMDL
MODEL 8
REMARK VINA RESULT:      -5.0      2.149      5.164
REMARK  Name = 54684286
REMARK  6 active torsions:
REMARK  status: ('A' for Active; 'I' for Inactive)
REMARK    1  A    between atoms: C2*_2  and  O2*_15
REMARK    2  A    between atoms: C3*_3  and  O3*_17
REMARK    3  A    between atoms: C1*_4  and  N_7
REMARK    4  A    between atoms: C4*_5  and  C5*_19
REMARK    5  A    between atoms: C_12  and  O_13
REMARK    6  A    between atoms: C5*_19  and  O5*_20
REMARK                            x       y       z     vdW  Elec       q    Type
REMARK                         _______ _______ _______ _____ _____    ______ ____
ROOT
ATOM      1  O4* UNL     1     -36.694  24.868   1.695  0.00  0.00    -0.333 OA
ATOM      2  C2* UNL     1     -38.335  25.282   3.353  0.00  0.00    +0.187 C 
ATOM      3  C3* UNL     1     -38.463  26.334   2.272  0.00  0.00    +0.171 C 
ATOM      4  C1* UNL     1     -37.538  24.199   2.646  0.00  0.00    +0.228 C 
ATOM      5  C4* UNL     1     -37.109  26.247   1.580  0.00  0.00    +0.175 C 
ENDROOT
BRANCH   4   7
ATOM      6  O   UNL     1     -36.659  21.543   2.187  0.00  0.00    -0.269 OA
ATOM      7  N   UNL     1     -36.715  23.446   3.550  0.00  0.00    -0.229 N 
ATOM      8  C   UNL     1     -36.335  22.126   3.220  0.00  0.00    +0.258 C 
ATOM      9  C   UNL     1     -36.295  24.022   4.750  0.00  0.00    +0.073 C 
ATOM     10  C   UNL     1     -35.478  21.408   4.213  0.00  0.00    +0.095 C 
ATOM     11  C   UNL     1     -35.527  23.369   5.630  0.00  0.00    +0.053 C 
ATOM     12  C   UNL     1     -35.110  22.020   5.344  0.00  0.00    +0.140 C 
BRANCH  12  13
ATOM     13  O   UNL     1     -34.325  21.433   6.308  0.00  0.00    -0.505 OA
ATOM     14  H   UNL     1     -34.720  20.921   6.986  0.00  0.00    +0.292 HD
ENDBRANCH  12  13
ENDBRANCH   4   7
BRANCH   2  15
ATOM     15  O2* UNL     1     -39.592  24.823   3.806  0.00  0.00    -0.378 OA
ATOM     16  H2* UNL     1     -39.474  24.005   4.313  0.00  0.00    +0.211 HD
ENDBRANCH   2  15
BRANCH   3  17
ATOM     17  O3* UNL     1     -39.464  25.955   1.328  0.00  0.00    -0.379 OA
ATOM     18  H3* UNL     1     -40.044  26.713   1.152  0.00  0.00    +0.211 HD
ENDBRANCH   3  17
BRANCH   5  19
ATOM     19  C5* UNL     1     -36.043  27.118   2.232  0.00  0.00    +0.169 C 
BRANCH  19  20
ATOM     20  O5* UNL     1     -36.423  28.476   2.097  0.00  0.00    -0.379 OA
ATOM     21  H5* UNL     1     -35.991  28.857   1.318  0.00  0.00    +0.211 HD
ENDBRANCH  19  20
ENDBRANCH   5  19
TORSDOF 6
ENDMDL
MODEL 9
REMARK VINA RESULT:      -5.0      1.873      5.317
REMARK  Name = 54684286
REMARK  6 active torsions:
REMARK  status: ('A' for Active; 'I' for Inactive)
REMARK    1  A    between atoms: C2*_2  and  O2*_15
REMARK    2  A    between atoms: C3*_3  and  O3*_17
REMARK    3  A    between atoms: C1*_4  and  N_7
REMARK    4  A    between atoms: C4*_5  and  C5*_19
REMARK    5  A    between atoms: C_12  and  O_13
REMARK    6  A    between atoms: C5*_19  and  O5*_20
REMARK                            x       y       z     vdW  Elec       q    Type
REMARK                         _______ _______ _______ _____ _____    ______ ____
ROOT
ATOM      1  O4* UNL     1     -37.125  23.096   2.293  0.00  0.00    -0.333 OA
ATOM      2  C2* UNL     1     -38.797  24.649   2.932  0.00  0.00    +0.187 C 
ATOM      3  C3* UNL     1     -39.332  23.800   1.800  0.00  0.00    +0.171 C 
ATOM      4  C1* UNL     1     -37.633  23.811   3.432  0.00  0.00    +0.228 C 
ATOM      5  C4* UNL     1     -38.056  23.230   1.197  0.00  0.00    +0.175 C 
ENDROOT
BRANCH   4   7
ATOM      6  O   UNL     1     -36.049  23.062   5.661  0.00  0.00    -0.269 OA
ATOM      7  N   UNL     1     -36.578  24.612   3.987  0.00  0.00    -0.229 N 
ATOM      8  C   UNL     1     -35.852  24.140   5.102  0.00  0.00    +0.258 C 
ATOM      9  C   UNL     1     -36.278  25.852   3.422  0.00  0.00    +0.073 C 
ATOM     10  C   UNL     1     -34.770  25.032   5.622  0.00  0.00    +0.095 C 
ATOM     11  C   UNL     1     -35.307  26.641   3.896  0.00  0.00    +0.053 C 
ATOM     12  C   UNL     1     -34.534  26.209   5.033  0.00  0.00    +0.140 C 
BRANCH  12  13
ATOM     13  O   UNL     1     -33.561  27.087   5.447  0.00  0.00    -0.505 OA
ATOM     14  H   UNL     1     -33.194  27.700   4.841  0.00  0.00    +0.292 HD
ENDBRANCH  12  13
ENDBRANCH   4   7
BRANCH   2  15
ATOM     15  O2* UNL     1     -39.767  24.883   3.932  0.00  0.00    -0.378 OA
ATOM     16  H2* UNL     1     -40.595  25.169   3.519  0.00  0.00    +0.211 HD
ENDBRANCH   2  15
BRANCH   3  17
ATOM     17  O3* UNL     1     -40.098  22.711   2.316  0.00  0.00    -0.379 OA
ATOM     18  H3* UNL     1     -39.759  22.465   3.191  0.00  0.00    +0.211 HD
ENDBRANCH   3  17
BRANCH   5  19
ATOM     19  C5* UNL     1     -37.427  24.139   0.149  0.00  0.00    +0.169 C 
BRANCH  19  20
ATOM     20  O5* UNL     1     -36.019  24.104   0.304  0.00  0.00    -0.379 OA
ATOM     21  H5* UNL     1     -35.596  24.412  -0.513  0.00  0.00    +0.211 HD
ENDBRANCH  19  20
ENDBRANCH   5  19
TORSDOF 6
ENDMDL
