MODEL 1
REMARK VINA RESULT:      -6.7      0.000      0.000
REMARK  Name = 56947077
REMARK  11 active torsions:
REMARK  status: ('A' for Active; 'I' for Inactive)
REMARK    1  A    between atoms: O_1  and  C_2
REMARK    2  A    between atoms: O_1  and  C_18
REMARK    3  A    between atoms: C_7  and  C_9
REMARK    4  A    between atoms: N_8  and  C_9
REMARK    5  A    between atoms: N_8  and  N_10
REMARK    6  A    between atoms: N_10  and  C_13
REMARK    7  A    between atoms: C_18  and  C_20
REMARK    8  A    between atoms: C_19  and  C_30
REMARK    9  A    between atoms: C_21  and  O_28
REMARK   10  A    between atoms: C_22  and  C_26
REMARK   11  A    between atoms: C_30  and  C_31
REMARK                            x       y       z     vdW  Elec       q    Type
REMARK                         _______ _______ _______ _____ _____    ______ ____
ROOT
ATOM      1  O   UNL     1     -35.436  20.463   3.244  0.00  0.00    -0.471 OA
ENDROOT
BRANCH   1   2
ATOM      2  C   UNL     1     -35.447  21.687   3.837  0.00  0.00    +0.139 C 
ATOM      3  C   UNL     1     -35.186  21.803   5.203  0.00  0.00    +0.037 C 
ATOM      4  C   UNL     1     -35.721  22.827   3.081  0.00  0.00    +0.037 C 
ATOM      5  C   UNL     1     -35.197  23.058   5.811  0.00  0.00    +0.000 C 
ATOM      6  C   UNL     1     -35.733  24.081   3.689  0.00  0.00    +0.000 C 
ATOM      7  C   UNL     1     -35.470  24.197   5.055  0.00  0.00    -0.002 C 
BRANCH   7   8
ATOM      8  C   UNL     1     -35.482  25.506   5.689  0.00  0.00    +0.142 C 
BRANCH   8   9
ATOM      9  N   UNL     1     -34.782  26.511   5.245  0.00  0.00    -0.092 NA
BRANCH   9  10
ATOM     10  N   UNL     1     -33.419  26.291   5.406  0.00  0.00    -0.145 NA
BRANCH  10  13
ATOM     11  N   UNL     1     -32.495  28.433   5.490  0.00  0.00    -0.369 N 
ATOM     12  N   UNL     1     -32.505  27.211   7.423  0.00  0.00    -0.369 N 
ATOM     13  C   UNL     1     -32.839  27.244   6.087  0.00  0.00    +0.207 C 
ATOM     14  H   UNL     1     -32.684  28.576   4.536  0.00  0.00    +0.159 HD
ATOM     15  H   UNL     1     -32.060  29.140   6.019  0.00  0.00    +0.159 HD
ATOM     16  H   UNL     1     -32.702  26.410   7.960  0.00  0.00    +0.159 HD
ATOM     17  H   UNL     1     -32.069  27.988   7.840  0.00  0.00    +0.159 HD
ENDBRANCH  10  13
ENDBRANCH   9  10
ENDBRANCH   8   9
ENDBRANCH   7   8
ENDBRANCH   1   2
BRANCH   1  18
ATOM     18  C   UNL     1     -35.475  20.431   1.818  0.00  0.00    +0.232 C 
BRANCH  18  20
ATOM     19  C   UNL     1     -33.389  20.927   0.491  0.00  0.00    +0.011 C 
ATOM     20  C   UNL     1     -34.119  20.053   1.298  0.00  0.00    +0.020 C 
ATOM     21  C   UNL     1     -32.131  20.553   0.020  0.00  0.00    +0.132 C 
ATOM     22  C   UNL     1     -31.602  19.307   0.355  0.00  0.00    +0.068 C 
ATOM     23  C   UNL     1     -33.590  18.808   1.634  0.00  0.00    -0.001 C 
ATOM     24  C   UNL     1     -32.332  18.434   1.162  0.00  0.00    +0.006 C 
BRANCH  22  26
ATOM     25  O   UNL     1     -29.884  19.215  -1.259  0.00  0.00    -0.291 OA
ATOM     26  C   UNL     1     -30.290  18.895  -0.125  0.00  0.00    +0.176 C 
ATOM     27  C   UNL     1     -29.378  18.054   0.761  0.00  0.00    +0.077 C 
ENDBRANCH  22  26
BRANCH  21  28
ATOM     28  O   UNL     1     -31.418  21.408  -0.770  0.00  0.00    -0.506 OA
ATOM     29  H   UNL     1     -30.563  21.168  -1.068  0.00  0.00    +0.292 HD
ENDBRANCH  21  28
BRANCH  19  30
ATOM     30  C   UNL     1     -33.954  22.264   0.129  0.00  0.00    +0.029 C 
BRANCH  30  31
ATOM     31  C   UNL     1     -34.799  22.206  -1.149  0.00  0.00    +0.005 C 
ATOM     32  C   UNL     1     -36.140  22.901  -0.972  0.00  0.00    +0.000 C 
ENDBRANCH  30  31
ENDBRANCH  19  30
ENDBRANCH  18  20
ENDBRANCH   1  18
TORSDOF 11
ENDMDL
MODEL 2
REMARK VINA RESULT:      -6.6      1.659      2.719
REMARK  Name = 56947077
REMARK  11 active torsions:
REMARK  status: ('A' for Active; 'I' for Inactive)
REMARK    1  A    between atoms: O_1  and  C_2
REMARK    2  A    between atoms: O_1  and  C_18
REMARK    3  A    between atoms: C_7  and  C_9
REMARK    4  A    between atoms: N_8  and  C_9
REMARK    5  A    between atoms: N_8  and  N_10
REMARK    6  A    between atoms: N_10  and  C_13
REMARK    7  A    between atoms: C_18  and  C_20
REMARK    8  A    between atoms: C_19  and  C_30
REMARK    9  A    between atoms: C_21  and  O_28
REMARK   10  A    between atoms: C_22  and  C_26
REMARK   11  A    between atoms: C_30  and  C_31
REMARK                            x       y       z     vdW  Elec       q    Type
REMARK                         _______ _______ _______ _____ _____    ______ ____
ROOT
ATOM      1  O   UNL     1     -37.108  22.829   3.724  0.00  0.00    -0.471 OA
ENDROOT
BRANCH   1   2
ATOM      2  C   UNL     1     -36.272  23.709   4.339  0.00  0.00    +0.139 C 
ATOM      3  C   UNL     1     -36.687  25.021   4.567  0.00  0.00    +0.037 C 
ATOM      4  C   UNL     1     -35.000  23.301   4.741  0.00  0.00    +0.037 C 
ATOM      5  C   UNL     1     -35.832  25.924   5.198  0.00  0.00    +0.000 C 
ATOM      6  C   UNL     1     -34.145  24.203   5.371  0.00  0.00    +0.000 C 
ATOM      7  C   UNL     1     -34.560  25.515   5.600  0.00  0.00    -0.002 C 
BRANCH   7   8
ATOM      8  C   UNL     1     -33.668  26.456   6.258  0.00  0.00    +0.142 C 
BRANCH   8   9
ATOM      9  N   UNL     1     -32.925  27.301   5.601  0.00  0.00    -0.092 NA
BRANCH   9  10
ATOM     10  N   UNL     1     -31.763  27.606   6.302  0.00  0.00    -0.145 NA
BRANCH  10  13
ATOM     11  N   UNL     1     -30.734  29.382   7.414  0.00  0.00    -0.369 N 
ATOM     12  N   UNL     1     -32.258  29.895   5.789  0.00  0.00    -0.369 N 
ATOM     13  C   UNL     1     -31.610  28.892   6.475  0.00  0.00    +0.207 C 
ATOM     14  H   UNL     1     -30.210  28.760   7.968  0.00  0.00    +0.159 HD
ATOM     15  H   UNL     1     -30.630  30.353   7.530  0.00  0.00    +0.159 HD
ATOM     16  H   UNL     1     -32.912  29.669   5.089  0.00  0.00    +0.159 HD
ATOM     17  H   UNL     1     -32.067  30.838   5.999  0.00  0.00    +0.159 HD
ENDBRANCH  10  13
ENDBRANCH   9  10
ENDBRANCH   8   9
ENDBRANCH   7   8
ENDBRANCH   1   2
BRANCH   1  18
ATOM     18  C   UNL     1     -37.112  22.826   2.297  0.00  0.00    +0.232 C 
BRANCH  18  20
ATOM     19  C   UNL     1     -34.956  22.524   1.026  0.00  0.00    +0.011 C 
ATOM     20  C   UNL     1     -35.977  21.977   1.804  0.00  0.00    +0.020 C 
ATOM     21  C   UNL     1     -33.911  21.715   0.580  0.00  0.00    +0.132 C 
ATOM     22  C   UNL     1     -33.886  20.361   0.911  0.00  0.00    +0.068 C 
ATOM     23  C   UNL     1     -35.952  20.623   2.136  0.00  0.00    -0.001 C 
ATOM     24  C   UNL     1     -34.907  19.815   1.689  0.00  0.00    +0.006 C 
BRANCH  22  26
ATOM     25  O   UNL     1     -32.246  19.681  -0.642  0.00  0.00    -0.291 OA
ATOM     26  C   UNL     1     -32.806  19.497   0.457  0.00  0.00    +0.176 C 
ATOM     27  C   UNL     1     -32.333  18.338   1.326  0.00  0.00    +0.077 C 
ENDBRANCH  22  26
BRANCH  21  28
ATOM     28  O   UNL     1     -32.912  22.251  -0.181  0.00  0.00    -0.506 OA
ATOM     29  H   UNL     1     -32.057  22.366   0.183  0.00  0.00    +0.292 HD
ENDBRANCH  21  28
BRANCH  19  30
ATOM     30  C   UNL     1     -34.979  23.976   0.669  0.00  0.00    +0.029 C 
BRANCH  30  31
ATOM     31  C   UNL     1     -34.054  24.806   1.568  0.00  0.00    +0.005 C 
ATOM     32  C   UNL     1     -34.556  26.231   1.735  0.00  0.00    +0.000 C 
ENDBRANCH  30  31
ENDBRANCH  19  30
ENDBRANCH  18  20
ENDBRANCH   1  18
TORSDOF 11
ENDMDL
MODEL 3
REMARK VINA RESULT:      -6.4      5.156      8.524
REMARK  Name = 56947077
REMARK  11 active torsions:
REMARK  status: ('A' for Active; 'I' for Inactive)
REMARK    1  A    between atoms: O_1  and  C_2
REMARK    2  A    between atoms: O_1  and  C_18
REMARK    3  A    between atoms: C_7  and  C_9
REMARK    4  A    between atoms: N_8  and  C_9
REMARK    5  A    between atoms: N_8  and  N_10
REMARK    6  A    between atoms: N_10  and  C_13
REMARK    7  A    between atoms: C_18  and  C_20
REMARK    8  A    between atoms: C_19  and  C_30
REMARK    9  A    between atoms: C_21  and  O_28
REMARK   10  A    between atoms: C_22  and  C_26
REMARK   11  A    between atoms: C_30  and  C_31
REMARK                            x       y       z     vdW  Elec       q    Type
REMARK                         _______ _______ _______ _____ _____    ______ ____
ROOT
ATOM      1  O   UNL     1     -35.521  23.667   1.284  0.00  0.00    -0.471 OA
ENDROOT
BRANCH   1   2
ATOM      2  C   UNL     1     -34.995  22.412   1.303  0.00  0.00    +0.139 C 
ATOM      3  C   UNL     1     -34.041  22.041   0.356  0.00  0.00    +0.037 C 
ATOM      4  C   UNL     1     -35.409  21.496   2.270  0.00  0.00    +0.037 C 
ATOM      5  C   UNL     1     -33.501  20.756   0.375  0.00  0.00    +0.000 C 
ATOM      6  C   UNL     1     -34.870  20.210   2.289  0.00  0.00    +0.000 C 
ATOM      7  C   UNL     1     -33.916  19.840   1.342  0.00  0.00    -0.002 C 
BRANCH   7   8
ATOM      8  C   UNL     1     -33.352  18.499   1.362  0.00  0.00    +0.142 C 
BRANCH   8   9
ATOM      9  N   UNL     1     -33.153  17.801   0.280  0.00  0.00    -0.092 NA
BRANCH   9  10
ATOM     10  N   UNL     1     -34.338  17.248  -0.192  0.00  0.00    -0.145 NA
BRANCH  10  13
ATOM     11  N   UNL     1     -35.487  15.297   0.376  0.00  0.00    -0.369 N 
ATOM     12  N   UNL     1     -33.332  15.078  -0.355  0.00  0.00    -0.369 N 
ATOM     13  C   UNL     1     -34.362  15.947  -0.071  0.00  0.00    +0.207 C 
ATOM     14  H   UNL     1     -36.292  15.812   0.610  0.00  0.00    +0.159 HD
ATOM     15  H   UNL     1     -35.488  14.317   0.460  0.00  0.00    +0.159 HD
ATOM     16  H   UNL     1     -32.472  15.425  -0.683  0.00  0.00    +0.159 HD
ATOM     17  H   UNL     1     -33.456  14.110  -0.229  0.00  0.00    +0.159 HD
ENDBRANCH  10  13
ENDBRANCH   9  10
ENDBRANCH   8   9
ENDBRANCH   7   8
ENDBRANCH   1   2
BRANCH   1  18
ATOM     18  C   UNL     1     -36.053  24.167   2.510  0.00  0.00    +0.232 C 
BRANCH  18  20
ATOM     19  C   UNL     1     -34.877  25.252   4.457  0.00  0.00    +0.011 C 
ATOM     20  C   UNL     1     -35.102  25.177   3.082  0.00  0.00    +0.020 C 
ATOM     21  C   UNL     1     -33.988  26.199   4.966  0.00  0.00    +0.132 C 
ATOM     22  C   UNL     1     -33.325  27.070   4.101  0.00  0.00    +0.068 C 
ATOM     23  C   UNL     1     -34.439  26.046   2.217  0.00  0.00    -0.001 C 
ATOM     24  C   UNL     1     -33.551  26.993   2.727  0.00  0.00    +0.006 C 
BRANCH  22  26
ATOM     25  O   UNL     1     -31.496  27.762   5.421  0.00  0.00    -0.291 OA
ATOM     26  C   UNL     1     -32.392  28.066   4.609  0.00  0.00    +0.176 C 
ATOM     27  C   UNL     1     -32.495  29.516   4.152  0.00  0.00    +0.077 C 
ENDBRANCH  22  26
BRANCH  21  28
ATOM     28  O   UNL     1     -33.768  26.273   6.311  0.00  0.00    -0.506 OA
ATOM     29  H   UNL     1     -33.563  27.096   6.707  0.00  0.00    +0.292 HD
ENDBRANCH  21  28
BRANCH  19  30
ATOM     30  C   UNL     1     -35.586  24.321   5.387  0.00  0.00    +0.029 C 
BRANCH  30  31
ATOM     31  C   UNL     1     -34.779  23.045   5.652  0.00  0.00    +0.005 C 
ATOM     32  C   UNL     1     -35.605  21.992   6.374  0.00  0.00    +0.000 C 
ENDBRANCH  30  31
ENDBRANCH  19  30
ENDBRANCH  18  20
ENDBRANCH   1  18
TORSDOF 11
ENDMDL
MODEL 4
REMARK VINA RESULT:      -6.3      5.466      9.043
REMARK  Name = 56947077
REMARK  11 active torsions:
REMARK  status: ('A' for Active; 'I' for Inactive)
REMARK    1  A    between atoms: O_1  and  C_2
REMARK    2  A    between atoms: O_1  and  C_18
REMARK    3  A    between atoms: C_7  and  C_9
REMARK    4  A    between atoms: N_8  and  C_9
REMARK    5  A    between atoms: N_8  and  N_10
REMARK    6  A    between atoms: N_10  and  C_13
REMARK    7  A    between atoms: C_18  and  C_20
REMARK    8  A    between atoms: C_19  and  C_30
REMARK    9  A    between atoms: C_21  and  O_28
REMARK   10  A    between atoms: C_22  and  C_26
REMARK   11  A    between atoms: C_30  and  C_31
REMARK                            x       y       z     vdW  Elec       q    Type
REMARK                         _______ _______ _______ _____ _____    ______ ____
ROOT
ATOM      1  O   UNL     1     -34.860  21.227   1.266  0.00  0.00    -0.471 OA
ENDROOT
BRANCH   1   2
ATOM      2  C   UNL     1     -33.794  20.419   1.015  0.00  0.00    +0.139 C 
ATOM      3  C   UNL     1     -33.733  19.148   1.587  0.00  0.00    +0.037 C 
ATOM      4  C   UNL     1     -32.763  20.860   0.186  0.00  0.00    +0.037 C 
ATOM      5  C   UNL     1     -32.641  18.319   1.330  0.00  0.00    +0.000 C 
ATOM      6  C   UNL     1     -31.672  20.032  -0.071  0.00  0.00    +0.000 C 
ATOM      7  C   UNL     1     -31.610  18.761   0.500  0.00  0.00    -0.002 C 
BRANCH   7   8
ATOM      8  C   UNL     1     -30.473  17.896   0.232  0.00  0.00    +0.142 C 
BRANCH   8   9
ATOM      9  N   UNL     1     -30.370  16.693   0.721  0.00  0.00    -0.092 NA
BRANCH   9  10
ATOM     10  N   UNL     1     -30.464  15.730  -0.278  0.00  0.00    -0.145 NA
BRANCH  10  13
ATOM     11  N   UNL     1     -31.107  13.614   0.468  0.00  0.00    -0.369 N 
ATOM     12  N   UNL     1     -32.757  15.030  -0.238  0.00  0.00    -0.369 N 
ATOM     13  C   UNL     1     -31.406  14.856  -0.037  0.00  0.00    +0.207 C 
ATOM     14  H   UNL     1     -30.172  13.371   0.655  0.00  0.00    +0.159 HD
ATOM     15  H   UNL     1     -31.829  12.968   0.644  0.00  0.00    +0.159 HD
ATOM     16  H   UNL     1     -33.095  15.882  -0.597  0.00  0.00    +0.159 HD
ATOM     17  H   UNL     1     -33.384  14.303  -0.021  0.00  0.00    +0.159 HD
ENDBRANCH  10  13
ENDBRANCH   9  10
ENDBRANCH   8   9
ENDBRANCH   7   8
ENDBRANCH   1   2
BRANCH   1  18
ATOM     18  C   UNL     1     -35.505  21.077   2.530  0.00  0.00    +0.232 C 
BRANCH  18  20
ATOM     19  C   UNL     1     -36.519  23.213   3.404  0.00  0.00    +0.011 C 
ATOM     20  C   UNL     1     -36.634  22.061   2.625  0.00  0.00    +0.020 C 
ATOM     21  C   UNL     1     -37.581  24.113   3.477  0.00  0.00    +0.132 C 
ATOM     22  C   UNL     1     -38.758  23.863   2.771  0.00  0.00    +0.068 C 
ATOM     23  C   UNL     1     -37.810  21.811   1.919  0.00  0.00    -0.001 C 
ATOM     24  C   UNL     1     -38.872  22.712   1.992  0.00  0.00    +0.006 C 
BRANCH  22  26
ATOM     25  O   UNL     1     -40.379  25.133   3.921  0.00  0.00    -0.291 OA
ATOM     26  C   UNL     1     -39.880  24.789   2.832  0.00  0.00    +0.176 C 
ATOM     27  C   UNL     1     -40.473  25.361   1.549  0.00  0.00    +0.077 C 
ENDBRANCH  22  26
BRANCH  21  28
ATOM     28  O   UNL     1     -37.468  25.240   4.239  0.00  0.00    -0.506 OA
ATOM     29  H   UNL     1     -38.221  25.591   4.671  0.00  0.00    +0.292 HD
ENDBRANCH  21  28
BRANCH  19  30
ATOM     30  C   UNL     1     -35.259  23.484   4.163  0.00  0.00    +0.029 C 
BRANCH  30  31
ATOM     31  C   UNL     1     -35.439  23.280   5.672  0.00  0.00    +0.005 C 
ATOM     32  C   UNL     1     -35.122  21.854   6.092  0.00  0.00    +0.000 C 
ENDBRANCH  30  31
ENDBRANCH  19  30
ENDBRANCH  18  20
ENDBRANCH   1  18
TORSDOF 11
ENDMDL
MODEL 5
REMARK VINA RESULT:      -6.2      5.407      8.625
REMARK  Name = 56947077
REMARK  11 active torsions:
REMARK  status: ('A' for Active; 'I' for Inactive)
REMARK    1  A    between atoms: O_1  and  C_2
REMARK    2  A    between atoms: O_1  and  C_18
REMARK    3  A    between atoms: C_7  and  C_9
REMARK    4  A    between atoms: N_8  and  C_9
REMARK    5  A    between atoms: N_8  and  N_10
REMARK    6  A    between atoms: N_10  and  C_13
REMARK    7  A    between atoms: C_18  and  C_20
REMARK    8  A    between atoms: C_19  and  C_30
REMARK    9  A    between atoms: C_21  and  O_28
REMARK   10  A    between atoms: C_22  and  C_26
REMARK   11  A    between atoms: C_30  and  C_31
REMARK                            x       y       z     vdW  Elec       q    Type
REMARK                         _______ _______ _______ _____ _____    ______ ____
ROOT
ATOM      1  O   UNL     1     -35.086  22.509   1.021  0.00  0.00    -0.471 OA
ENDROOT
BRANCH   1   2
ATOM      2  C   UNL     1     -34.246  21.442   0.929  0.00  0.00    +0.139 C 
ATOM      3  C   UNL     1     -34.536  20.265   1.619  0.00  0.00    +0.037 C 
ATOM      4  C   UNL     1     -33.095  21.525   0.145  0.00  0.00    +0.037 C 
ATOM      5  C   UNL     1     -33.676  19.172   1.525  0.00  0.00    +0.000 C 
ATOM      6  C   UNL     1     -32.235  20.432   0.051  0.00  0.00    +0.000 C 
ATOM      7  C   UNL     1     -32.525  19.255   0.741  0.00  0.00    -0.002 C 
BRANCH   7   8
ATOM      8  C   UNL     1     -31.628  18.114   0.642  0.00  0.00    +0.142 C 
BRANCH   8   9
ATOM      9  N   UNL     1     -32.041  16.882   0.738  0.00  0.00    -0.092 NA
BRANCH   9  10
ATOM     10  N   UNL     1     -31.081  15.988   0.277  0.00  0.00    -0.145 NA
BRANCH  10  13
ATOM     11  N   UNL     1     -32.748  14.657  -0.670  0.00  0.00    -0.369 N 
ATOM     12  N   UNL     1     -31.046  13.595   0.428  0.00  0.00    -0.369 N 
ATOM     13  C   UNL     1     -31.579  14.804   0.037  0.00  0.00    +0.207 C 
ATOM     14  H   UNL     1     -33.223  15.450  -1.005  0.00  0.00    +0.159 HD
ATOM     15  H   UNL     1     -33.108  13.757  -0.842  0.00  0.00    +0.159 HD
ATOM     16  H   UNL     1     -30.207  13.571   0.943  0.00  0.00    +0.159 HD
ATOM     17  H   UNL     1     -31.504  12.757   0.193  0.00  0.00    +0.159 HD
ENDBRANCH  10  13
ENDBRANCH   9  10
ENDBRANCH   8   9
ENDBRANCH   7   8
ENDBRANCH   1   2
BRANCH   1  18
ATOM     18  C   UNL     1     -35.586  22.832   2.318  0.00  0.00    +0.232 C 
BRANCH  18  20
ATOM     19  C   UNL     1     -35.014  24.462   4.154  0.00  0.00    +0.011 C 
ATOM     20  C   UNL     1     -34.878  24.053   2.827  0.00  0.00    +0.020 C 
ATOM     21  C   UNL     1     -34.346  25.600   4.604  0.00  0.00    +0.132 C 
ATOM     22  C   UNL     1     -33.542  26.330   3.729  0.00  0.00    +0.068 C 
ATOM     23  C   UNL     1     -34.074  24.782   1.952  0.00  0.00    -0.001 C 
ATOM     24  C   UNL     1     -33.407  25.921   2.402  0.00  0.00    +0.006 C 
BRANCH  22  26
ATOM     25  O   UNL     1     -32.099  27.500   5.182  0.00  0.00    -0.291 OA
ATOM     26  C   UNL     1     -32.835  27.522   4.176  0.00  0.00    +0.176 C 
ATOM     27  C   UNL     1     -32.984  28.833   3.414  0.00  0.00    +0.077 C 
ENDBRANCH  22  26
BRANCH  21  28
ATOM     28  O   UNL     1     -34.480  25.999   5.903  0.00  0.00    -0.506 OA
ATOM     29  H   UNL     1     -34.601  25.362   6.578  0.00  0.00    +0.292 HD
ENDBRANCH  21  28
BRANCH  19  30
ATOM     30  C   UNL     1     -35.876  23.682   5.096  0.00  0.00    +0.029 C 
BRANCH  30  31
ATOM     31  C   UNL     1     -35.048  22.796   6.035  0.00  0.00    +0.005 C 
ATOM     32  C   UNL     1     -35.122  21.330   5.642  0.00  0.00    +0.000 C 
ENDBRANCH  30  31
ENDBRANCH  19  30
ENDBRANCH  18  20
ENDBRANCH   1  18
TORSDOF 11
ENDMDL
MODEL 6
REMARK VINA RESULT:      -6.1      4.452      6.656
REMARK  Name = 56947077
REMARK  11 active torsions:
REMARK  status: ('A' for Active; 'I' for Inactive)
REMARK    1  A    between atoms: O_1  and  C_2
REMARK    2  A    between atoms: O_1  and  C_18
REMARK    3  A    between atoms: C_7  and  C_9
REMARK    4  A    between atoms: N_8  and  C_9
REMARK    5  A    between atoms: N_8  and  N_10
REMARK    6  A    between atoms: N_10  and  C_13
REMARK    7  A    between atoms: C_18  and  C_20
REMARK    8  A    between atoms: C_19  and  C_30
REMARK    9  A    between atoms: C_21  and  O_28
REMARK   10  A    between atoms: C_22  and  C_26
REMARK   11  A    between atoms: C_30  and  C_31
REMARK                            x       y       z     vdW  Elec       q    Type
REMARK                         _______ _______ _______ _____ _____    ______ ____
ROOT
ATOM      1  O   UNL     1     -35.464  26.007   3.855  0.00  0.00    -0.471 OA
ENDROOT
BRANCH   1   2
ATOM      2  C   UNL     1     -34.395  26.589   4.464  0.00  0.00    +0.139 C 
ATOM      3  C   UNL     1     -34.108  26.298   5.797  0.00  0.00    +0.037 C 
ATOM      4  C   UNL     1     -33.585  27.476   3.754  0.00  0.00    +0.037 C 
ATOM      5  C   UNL     1     -33.012  26.893   6.421  0.00  0.00    +0.000 C 
ATOM      6  C   UNL     1     -32.490  28.072   4.378  0.00  0.00    +0.000 C 
ATOM      7  C   UNL     1     -32.203  27.781   5.712  0.00  0.00    -0.002 C 
BRANCH   7   8
ATOM      8  C   UNL     1     -31.060  28.401   6.362  0.00  0.00    +0.142 C 
BRANCH   8   9
ATOM      9  N   UNL     1     -29.831  28.042   6.122  0.00  0.00    -0.092 NA
BRANCH   9  10
ATOM     10  N   UNL     1     -28.935  29.059   6.436  0.00  0.00    -0.145 NA
BRANCH  10  13
ATOM     11  N   UNL     1     -27.293  27.912   7.634  0.00  0.00    -0.369 N 
ATOM     12  N   UNL     1     -28.543  29.456   8.767  0.00  0.00    -0.369 N 
ATOM     13  C   UNL     1     -28.307  28.838   7.560  0.00  0.00    +0.207 C 
ATOM     14  H   UNL     1     -27.031  27.405   6.833  0.00  0.00    +0.159 HD
ATOM     15  H   UNL     1     -26.830  27.759   8.489  0.00  0.00    +0.159 HD
ATOM     16  H   UNL     1     -29.247  30.140   8.840  0.00  0.00    +0.159 HD
ATOM     17  H   UNL     1     -28.008  29.214   9.557  0.00  0.00    +0.159 HD
ENDBRANCH  10  13
ENDBRANCH   9  10
ENDBRANCH   8   9
ENDBRANCH   7   8
ENDBRANCH   1   2
BRANCH   1  18
ATOM     18  C   UNL     1     -36.373  25.288   4.687  0.00  0.00    +0.232 C 
BRANCH  18  20
ATOM     19  C   UNL     1     -36.804  23.140   3.440  0.00  0.00    +0.011 C 
ATOM     20  C   UNL     1     -37.234  24.409   3.829  0.00  0.00    +0.020 C 
ATOM     21  C   UNL     1     -37.623  22.341   2.643  0.00  0.00    +0.132 C 
ATOM     22  C   UNL     1     -38.871  22.809   2.234  0.00  0.00    +0.068 C 
ATOM     23  C   UNL     1     -38.483  24.877   3.421  0.00  0.00    -0.001 C 
ATOM     24  C   UNL     1     -39.301  24.078   2.623  0.00  0.00    +0.006 C 
BRANCH  22  26
ATOM     25  O   UNL     1     -40.380  21.033   1.875  0.00  0.00    -0.291 OA
ATOM     26  C   UNL     1     -39.743  21.993   1.401  0.00  0.00    +0.176 C 
ATOM     27  C   UNL     1     -39.894  22.301  -0.084  0.00  0.00    +0.077 C 
ENDBRANCH  22  26
BRANCH  21  28
ATOM     28  O   UNL     1     -37.201  21.100   2.263  0.00  0.00    -0.506 OA
ATOM     29  H   UNL     1     -37.742  20.569   1.713  0.00  0.00    +0.292 HD
ENDBRANCH  21  28
BRANCH  19  30
ATOM     30  C   UNL     1     -35.466  22.634   3.877  0.00  0.00    +0.029 C 
BRANCH  30  31
ATOM     31  C   UNL     1     -35.574  21.658   5.054  0.00  0.00    +0.005 C 
ATOM     32  C   UNL     1     -35.176  22.310   6.368  0.00  0.00    +0.000 C 
ENDBRANCH  30  31
ENDBRANCH  19  30
ENDBRANCH  18  20
ENDBRANCH   1  18
TORSDOF 11
ENDMDL
MODEL 7
REMARK VINA RESULT:      -6.0      4.670      7.952
REMARK  Name = 56947077
REMARK  11 active torsions:
REMARK  status: ('A' for Active; 'I' for Inactive)
REMARK    1  A    between atoms: O_1  and  C_2
REMARK    2  A    between atoms: O_1  and  C_18
REMARK    3  A    between atoms: C_7  and  C_9
REMARK    4  A    between atoms: N_8  and  C_9
REMARK    5  A    between atoms: N_8  and  N_10
REMARK    6  A    between atoms: N_10  and  C_13
REMARK    7  A    between atoms: C_18  and  C_20
REMARK    8  A    between atoms: C_19  and  C_30
REMARK    9  A    between atoms: C_21  and  O_28
REMARK   10  A    between atoms: C_22  and  C_26
REMARK   11  A    between atoms: C_30  and  C_31
REMARK                            x       y       z     vdW  Elec       q    Type
REMARK                         _______ _______ _______ _____ _____    ______ ____
ROOT
ATOM      1  O   UNL     1     -35.978  23.840   1.369  0.00  0.00    -0.471 OA
ENDROOT
BRANCH   1   2
ATOM      2  C   UNL     1     -35.380  22.618   1.415  0.00  0.00    +0.139 C 
ATOM      3  C   UNL     1     -35.818  21.661   2.330  0.00  0.00    +0.037 C 
ATOM      4  C   UNL     1     -34.328  22.322   0.548  0.00  0.00    +0.037 C 
ATOM      5  C   UNL     1     -35.207  20.409   2.377  0.00  0.00    +0.000 C 
ATOM      6  C   UNL     1     -33.716  21.071   0.595  0.00  0.00    +0.000 C 
ATOM      7  C   UNL     1     -34.155  20.113   1.510  0.00  0.00    -0.002 C 
BRANCH   7   8
ATOM      8  C   UNL     1     -33.517  18.807   1.559  0.00  0.00    +0.142 C 
BRANCH   8   9
ATOM      9  N   UNL     1     -32.635  18.420   0.682  0.00  0.00    -0.092 NA
BRANCH   9  10
ATOM     10  N   UNL     1     -31.691  17.573   1.253  0.00  0.00    -0.145 NA
BRANCH  10  13
ATOM     11  N   UNL     1     -30.216  18.953   0.084  0.00  0.00    -0.369 N 
ATOM     12  N   UNL     1     -29.329  17.163   1.195  0.00  0.00    -0.369 N 
ATOM     13  C   UNL     1     -30.473  17.861   0.877  0.00  0.00    +0.207 C 
ATOM     14  H   UNL     1     -30.955  19.533  -0.209  0.00  0.00    +0.159 HD
ATOM     15  H   UNL     1     -29.293  19.156  -0.189  0.00  0.00    +0.159 HD
ATOM     16  H   UNL     1     -29.385  16.358   1.759  0.00  0.00    +0.159 HD
ATOM     17  H   UNL     1     -28.457  17.468   0.857  0.00  0.00    +0.159 HD
ENDBRANCH  10  13
ENDBRANCH   9  10
ENDBRANCH   8   9
ENDBRANCH   7   8
ENDBRANCH   1   2
BRANCH   1  18
ATOM     18  C   UNL     1     -36.426  24.390   2.607  0.00  0.00    +0.232 C 
BRANCH  18  20
ATOM     19  C   UNL     1     -35.010  25.332   4.468  0.00  0.00    +0.011 C 
ATOM     20  C   UNL     1     -35.388  25.343   3.125  0.00  0.00    +0.020 C 
ATOM     21  C   UNL     1     -34.042  26.226   4.926  0.00  0.00    +0.132 C 
ATOM     22  C   UNL     1     -33.454  27.131   4.043  0.00  0.00    +0.068 C 
ATOM     23  C   UNL     1     -34.799  26.246   2.242  0.00  0.00    -0.001 C 
ATOM     24  C   UNL     1     -33.833  27.141   2.701  0.00  0.00    +0.006 C 
BRANCH  22  26
ATOM     25  O   UNL     1     -32.618  28.772   5.516  0.00  0.00    -0.291 OA
ATOM     26  C   UNL     1     -32.442  28.074   4.498  0.00  0.00    +0.176 C 
ATOM     27  C   UNL     1     -31.135  28.227   3.731  0.00  0.00    +0.077 C 
ENDBRANCH  22  26
BRANCH  21  28
ATOM     28  O   UNL     1     -33.673  26.215   6.240  0.00  0.00    -0.506 OA
ATOM     29  H   UNL     1     -32.779  26.059   6.474  0.00  0.00    +0.292 HD
ENDBRANCH  21  28
BRANCH  19  30
ATOM     30  C   UNL     1     -35.639  24.363   5.418  0.00  0.00    +0.029 C 
BRANCH  30  31
ATOM     31  C   UNL     1     -34.826  23.069   5.544  0.00  0.00    +0.005 C 
ATOM     32  C   UNL     1     -35.538  22.035   6.402  0.00  0.00    +0.000 C 
ENDBRANCH  30  31
ENDBRANCH  19  30
ENDBRANCH  18  20
ENDBRANCH   1  18
TORSDOF 11
ENDMDL
MODEL 8
REMARK VINA RESULT:      -6.0      2.577      3.905
REMARK  Name = 56947077
REMARK  11 active torsions:
REMARK  status: ('A' for Active; 'I' for Inactive)
REMARK    1  A    between atoms: O_1  and  C_2
REMARK    2  A    between atoms: O_1  and  C_18
REMARK    3  A    between atoms: C_7  and  C_9
REMARK    4  A    between atoms: N_8  and  C_9
REMARK    5  A    between atoms: N_8  and  N_10
REMARK    6  A    between atoms: N_10  and  C_13
REMARK    7  A    between atoms: C_18  and  C_20
REMARK    8  A    between atoms: C_19  and  C_30
REMARK    9  A    between atoms: C_21  and  O_28
REMARK   10  A    between atoms: C_22  and  C_26
REMARK   11  A    between atoms: C_30  and  C_31
REMARK                            x       y       z     vdW  Elec       q    Type
REMARK                         _______ _______ _______ _____ _____    ______ ____
ROOT
ATOM      1  O   UNL     1     -35.215  20.424   2.911  0.00  0.00    -0.471 OA
ENDROOT
BRANCH   1   2
ATOM      2  C   UNL     1     -35.380  21.596   3.582  0.00  0.00    +0.139 C 
ATOM      3  C   UNL     1     -35.647  22.770   2.879  0.00  0.00    +0.037 C 
ATOM      4  C   UNL     1     -35.281  21.624   4.973  0.00  0.00    +0.037 C 
ATOM      5  C   UNL     1     -35.817  23.972   3.566  0.00  0.00    +0.000 C 
ATOM      6  C   UNL     1     -35.450  22.825   5.660  0.00  0.00    +0.000 C 
ATOM      7  C   UNL     1     -35.718  24.000   4.957  0.00  0.00    -0.002 C 
BRANCH   7   8
ATOM      8  C   UNL     1     -35.896  25.253   5.673  0.00  0.00    +0.142 C 
BRANCH   8   9
ATOM      9  N   UNL     1     -35.455  26.392   5.221  0.00  0.00    -0.092 NA
BRANCH   9  10
ATOM     10  N   UNL     1     -34.120  26.589   5.560  0.00  0.00    -0.145 NA
BRANCH  10  13
ATOM     11  N   UNL     1     -32.869  28.312   4.604  0.00  0.00    -0.369 N 
ATOM     12  N   UNL     1     -33.133  26.398   3.383  0.00  0.00    -0.369 N 
ATOM     13  C   UNL     1     -33.418  27.053   4.560  0.00  0.00    +0.207 C 
ATOM     14  H   UNL     1     -33.002  28.879   5.397  0.00  0.00    +0.159 HD
ATOM     15  H   UNL     1     -32.341  28.646   3.843  0.00  0.00    +0.159 HD
ATOM     16  H   UNL     1     -33.472  25.486   3.233  0.00  0.00    +0.159 HD
ATOM     17  H   UNL     1     -32.591  26.841   2.691  0.00  0.00    +0.159 HD
ENDBRANCH  10  13
ENDBRANCH   9  10
ENDBRANCH   8   9
ENDBRANCH   7   8
ENDBRANCH   1   2
BRANCH   1  18
ATOM     18  C   UNL     1     -34.611  20.494   1.620  0.00  0.00    +0.232 C 
BRANCH  18  20
ATOM     19  C   UNL     1     -33.890  18.230   0.777  0.00  0.00    +0.011 C 
ATOM     20  C   UNL     1     -34.875  19.213   0.884  0.00  0.00    +0.020 C 
ATOM     21  C   UNL     1     -34.160  17.047   0.088  0.00  0.00    +0.132 C 
ATOM     22  C   UNL     1     -35.412  16.847  -0.493  0.00  0.00    +0.068 C 
ATOM     23  C   UNL     1     -36.127  19.012   0.305  0.00  0.00    -0.001 C 
ATOM     24  C   UNL     1     -36.395  17.830  -0.384  0.00  0.00    +0.006 C 
BRANCH  22  26
ATOM     25  O   UNL     1     -35.588  14.502  -0.681  0.00  0.00    -0.291 OA
ATOM     26  C   UNL     1     -35.716  15.620  -1.216  0.00  0.00    +0.176 C 
ATOM     27  C   UNL     1     -36.201  15.682  -2.660  0.00  0.00    +0.077 C 
ENDBRANCH  22  26
BRANCH  21  28
ATOM     28  O   UNL     1     -33.196  16.086  -0.017  0.00  0.00    -0.506 OA
ATOM     29  H   UNL     1     -33.157  15.544  -0.780  0.00  0.00    +0.292 HD
ENDBRANCH  21  28
BRANCH  19  30
ATOM     30  C   UNL     1     -32.546  18.441   1.398  0.00  0.00    +0.029 C 
BRANCH  30  31
ATOM     31  C   UNL     1     -31.561  19.103   0.427  0.00  0.00    +0.005 C 
ATOM     32  C   UNL     1     -30.245  18.345   0.352  0.00  0.00    +0.000 C 
ENDBRANCH  30  31
ENDBRANCH  19  30
ENDBRANCH  18  20
ENDBRANCH   1  18
TORSDOF 11
ENDMDL
MODEL 9
REMARK VINA RESULT:      -6.0      5.480      9.028
REMARK  Name = 56947077
REMARK  11 active torsions:
REMARK  status: ('A' for Active; 'I' for Inactive)
REMARK    1  A    between atoms: O_1  and  C_2
REMARK    2  A    between atoms: O_1  and  C_18
REMARK    3  A    between atoms: C_7  and  C_9
REMARK    4  A    between atoms: N_8  and  C_9
REMARK    5  A    between atoms: N_8  and  N_10
REMARK    6  A    between atoms: N_10  and  C_13
REMARK    7  A    between atoms: C_18  and  C_20
REMARK    8  A    between atoms: C_19  and  C_30
REMARK    9  A    between atoms: C_21  and  O_28
REMARK   10  A    between atoms: C_22  and  C_26
REMARK   11  A    between atoms: C_30  and  C_31
REMARK                            x       y       z     vdW  Elec       q    Type
REMARK                         _______ _______ _______ _____ _____    ______ ____
ROOT
ATOM      1  O   UNL     1     -34.907  21.242   1.056  0.00  0.00    -0.471 OA
ENDROOT
BRANCH   1   2
ATOM      2  C   UNL     1     -33.817  20.443   0.898  0.00  0.00    +0.139 C 
ATOM      3  C   UNL     1     -32.743  20.873   0.119  0.00  0.00    +0.037 C 
ATOM      4  C   UNL     1     -33.773  19.192   1.515  0.00  0.00    +0.037 C 
ATOM      5  C   UNL     1     -31.626  20.054  -0.043  0.00  0.00    +0.000 C 
ATOM      6  C   UNL     1     -32.657  18.373   1.353  0.00  0.00    +0.000 C 
ATOM      7  C   UNL     1     -31.583  18.804   0.574  0.00  0.00    -0.002 C 
BRANCH   7   8
ATOM      8  C   UNL     1     -30.418  17.950   0.406  0.00  0.00    +0.142 C 
BRANCH   8   9
ATOM      9  N   UNL     1     -30.331  16.762   0.934  0.00  0.00    -0.092 NA
BRANCH   9  10
ATOM     10  N   UNL     1     -30.295  15.774  -0.043  0.00  0.00    -0.145 NA
BRANCH  10  13
ATOM     11  N   UNL     1     -32.521  15.074   0.028  0.00  0.00    -0.369 N 
ATOM     12  N   UNL     1     -30.913  13.532   0.544  0.00  0.00    -0.369 N 
ATOM     13  C   UNL     1     -31.175  14.832   0.170  0.00  0.00    +0.207 C 
ATOM     14  H   UNL     1     -32.833  15.968  -0.238  0.00  0.00    +0.159 HD
ATOM     15  H   UNL     1     -33.170  14.353   0.191  0.00  0.00    +0.159 HD
ATOM     16  H   UNL     1     -29.983  13.237   0.677  0.00  0.00    +0.159 HD
ATOM     17  H   UNL     1     -31.655  12.899   0.678  0.00  0.00    +0.159 HD
ENDBRANCH  10  13
ENDBRANCH   9  10
ENDBRANCH   8   9
ENDBRANCH   7   8
ENDBRANCH   1   2
BRANCH   1  18
ATOM     18  C   UNL     1     -35.391  21.425   2.386  0.00  0.00    +0.232 C 
BRANCH  18  20
ATOM     19  C   UNL     1     -36.644  23.338   3.447  0.00  0.00    +0.011 C 
ATOM     20  C   UNL     1     -36.477  22.461   2.375  0.00  0.00    +0.020 C 
ATOM     21  C   UNL     1     -37.660  24.293   3.413  0.00  0.00    +0.132 C 
ATOM     22  C   UNL     1     -38.509  24.370   2.309  0.00  0.00    +0.068 C 
ATOM     23  C   UNL     1     -37.325  22.539   1.271  0.00  0.00    -0.001 C 
ATOM     24  C   UNL     1     -38.341  23.493   1.238  0.00  0.00    +0.006 C 
BRANCH  22  26
ATOM     25  O   UNL     1     -39.401  26.528   2.646  0.00  0.00    -0.291 OA
ATOM     26  C   UNL     1     -39.578  25.358   2.252  0.00  0.00    +0.176 C 
ATOM     27  C   UNL     1     -40.947  24.977   1.703  0.00  0.00    +0.077 C 
ENDBRANCH  22  26
BRANCH  21  28
ATOM     28  O   UNL     1     -37.823  25.151   4.462  0.00  0.00    -0.506 OA
ATOM     29  H   UNL     1     -37.281  25.910   4.534  0.00  0.00    +0.292 HD
ENDBRANCH  21  28
BRANCH  19  30
ATOM     30  C   UNL     1     -35.736  23.258   4.632  0.00  0.00    +0.029 C 
BRANCH  30  31
ATOM     31  C   UNL     1     -34.517  24.177   4.488  0.00  0.00    +0.005 C 
ATOM     32  C   UNL     1     -34.487  25.250   5.565  0.00  0.00    +0.000 C 
ENDBRANCH  30  31
ENDBRANCH  19  30
ENDBRANCH  18  20
ENDBRANCH   1  18
TORSDOF 11
ENDMDL
