MODEL 1
REMARK VINA RESULT:      -6.0      0.000      0.000
REMARK  Name = 54756939
REMARK  11 active torsions:
REMARK  status: ('A' for Active; 'I' for Inactive)
REMARK    1  A    between atoms: C_1  and  C_4
REMARK    2  A    between atoms: C_1  and  N_8
REMARK    3  A    between atoms: C_1  and  C_21
REMARK    4  A    between atoms: C_9  and  C_11
REMARK    5  A    between atoms: C_12  and  C_18
REMARK    6  A    between atoms: C_18  and  O_19
REMARK    7  A    between atoms: C_21  and  C_22
REMARK    8  A    between atoms: C_22  and  C_23
REMARK    9  A    between atoms: C_23  and  N_24
REMARK   10  A    between atoms: N_24  and  C_26
REMARK   11  A    between atoms: C_26  and  C_30
REMARK                            x       y       z     vdW  Elec       q    Type
REMARK                         _______ _______ _______ _____ _____    ______ ____
ROOT
ATOM      1  C   UNL     1     -35.536  21.769   3.572  0.00  0.00    +0.149 C 
ENDROOT
BRANCH   1   4
ATOM      2  O   UNL     1     -34.518  20.099   2.130  0.00  0.00    -0.274 OA
ATOM      3  N   UNL     1     -36.773  19.960   2.549  0.00  0.00    -0.327 N 
ATOM      4  C   UNL     1     -35.530  20.546   2.666  0.00  0.00    +0.237 C 
ATOM      5  H   UNL     1     -36.888  19.159   1.987  0.00  0.00    +0.145 HD
ATOM      6  H   UNL     1     -37.543  20.341   3.028  0.00  0.00    +0.145 HD
ENDBRANCH   1   4
BRANCH   1   8
ATOM      7  O   UNL     1     -36.035  23.972   1.800  0.00  0.00    -0.270 OA
ATOM      8  N   UNL     1     -36.793  22.443   3.369  0.00  0.00    -0.295 N 
ATOM      9  C   UNL     1     -36.939  23.504   2.487  0.00  0.00    +0.246 C 
ATOM     10  H   UNL     1     -37.579  22.137   3.877  0.00  0.00    +0.150 HD
BRANCH   9  11
ATOM     11  C   UNL     1     -38.294  24.108   2.413  0.00  0.00    +0.060 C 
ATOM     12  C   UNL     1     -39.363  23.424   1.835  0.00  0.00    +0.080 C 
ATOM     13  C   UNL     1     -38.485  25.388   2.936  0.00  0.00    +0.005 C 
ATOM     14  C   UNL     1     -40.624  24.019   1.780  0.00  0.00    +0.007 C 
ATOM     15  C   UNL     1     -39.747  25.981   2.881  0.00  0.00    +0.000 C 
ATOM     16  C   UNL     1     -40.815  25.297   2.303  0.00  0.00    +0.000 C 
BRANCH  12  18
ATOM     17  O   UNL     1     -38.929  21.832   0.103  0.00  0.00    -0.245 OA
ATOM     18  C   UNL     1     -39.195  22.087   1.280  0.00  0.00    +0.338 C 
BRANCH  18  19
ATOM     19  O   UNL     1     -39.360  21.114   2.216  0.00  0.00    -0.477 OA
ATOM     20  H   UNL     1     -38.644  20.864   2.764  0.00  0.00    +0.295 HD
ENDBRANCH  18  19
ENDBRANCH  12  18
ENDBRANCH   9  11
ENDBRANCH   1   8
BRANCH   1  21
ATOM     21  C   UNL     1     -35.328  21.355   5.032  0.00  0.00    +0.031 C 
BRANCH  21  22
ATOM     22  C   UNL     1     -35.508  22.530   6.001  0.00  0.00    +0.026 C 
BRANCH  22  23
ATOM     23  C   UNL     1     -34.756  23.778   5.549  0.00  0.00    +0.114 C 
BRANCH  23  24
ATOM     24  N   UNL     1     -35.681  24.908   5.454  0.00  0.00    -0.224 NA
BRANCH  24  26
ATOM     25  N   UNL     1     -35.747  27.056   4.372  0.00  0.00    -0.386 N 
ATOM     26  C   UNL     1     -35.174  26.040   5.099  0.00  0.00    +0.131 C 
ATOM     27  H   UNL     1     -36.674  26.972   4.053  0.00  0.00    +0.157 HD
ATOM     28  H   UNL     1     -35.229  27.869   4.168  0.00  0.00    +0.157 HD
BRANCH  26  30
ATOM     29  F   UNL     1     -33.690  26.577   6.859  0.00  0.00    -0.226 F 
ATOM     30  C   UNL     1     -33.745  26.287   5.532  0.00  0.00    +0.253 C 
ENDBRANCH  26  30
ENDBRANCH  24  26
ENDBRANCH  23  24
ENDBRANCH  22  23
ENDBRANCH  21  22
ENDBRANCH   1  21
TORSDOF 11
ENDMDL
MODEL 2
REMARK VINA RESULT:      -5.9      3.738      7.441
REMARK  Name = 54756939
REMARK  11 active torsions:
REMARK  status: ('A' for Active; 'I' for Inactive)
REMARK    1  A    between atoms: C_1  and  C_4
REMARK    2  A    between atoms: C_1  and  N_8
REMARK    3  A    between atoms: C_1  and  C_21
REMARK    4  A    between atoms: C_9  and  C_11
REMARK    5  A    between atoms: C_12  and  C_18
REMARK    6  A    between atoms: C_18  and  O_19
REMARK    7  A    between atoms: C_21  and  C_22
REMARK    8  A    between atoms: C_22  and  C_23
REMARK    9  A    between atoms: C_23  and  N_24
REMARK   10  A    between atoms: N_24  and  C_26
REMARK   11  A    between atoms: C_26  and  C_30
REMARK                            x       y       z     vdW  Elec       q    Type
REMARK                         _______ _______ _______ _____ _____    ______ ____
ROOT
ATOM      1  C   UNL     1     -35.208  26.171   3.989  0.00  0.00    +0.149 C 
ENDROOT
BRANCH   1   4
ATOM      2  O   UNL     1     -36.364  27.221   2.128  0.00  0.00    -0.274 OA
ATOM      3  N   UNL     1     -37.603  26.061   3.675  0.00  0.00    -0.327 N 
ATOM      4  C   UNL     1     -36.425  26.564   3.164  0.00  0.00    +0.237 C 
ATOM      5  H   UNL     1     -38.456  26.250   3.222  0.00  0.00    +0.145 HD
ATOM      6  H   UNL     1     -37.590  25.510   4.490  0.00  0.00    +0.145 HD
ENDBRANCH   1   4
BRANCH   1   8
ATOM      7  O   UNL     1     -32.444  26.682   3.402  0.00  0.00    -0.270 OA
ATOM      8  N   UNL     1     -34.477  27.379   4.273  0.00  0.00    -0.295 N 
ATOM      9  C   UNL     1     -33.136  27.536   3.951  0.00  0.00    +0.246 C 
ATOM     10  H   UNL     1     -34.949  28.123   4.713  0.00  0.00    +0.150 HD
BRANCH   9  11
ATOM     11  C   UNL     1     -32.521  28.832   4.335  0.00  0.00    +0.060 C 
ATOM     12  C   UNL     1     -31.927  29.011   5.584  0.00  0.00    +0.080 C 
ATOM     13  C   UNL     1     -32.544  29.882   3.416  0.00  0.00    +0.005 C 
ATOM     14  C   UNL     1     -31.357  30.241   5.915  0.00  0.00    +0.007 C 
ATOM     15  C   UNL     1     -31.973  31.111   3.748  0.00  0.00    +0.000 C 
ATOM     16  C   UNL     1     -31.380  31.290   4.998  0.00  0.00    +0.000 C 
BRANCH  12  18
ATOM     17  O   UNL     1     -32.869  27.444   7.127  0.00  0.00    -0.245 OA
ATOM     18  C   UNL     1     -31.887  27.934   6.564  0.00  0.00    +0.338 C 
BRANCH  18  19
ATOM     19  O   UNL     1     -30.620  27.502   6.807  0.00  0.00    -0.477 OA
ATOM     20  H   UNL     1     -30.243  26.831   6.273  0.00  0.00    +0.295 HD
ENDBRANCH  18  19
ENDBRANCH  12  18
ENDBRANCH   9  11
ENDBRANCH   1   8
BRANCH   1  21
ATOM     21  C   UNL     1     -35.638  25.439   5.265  0.00  0.00    +0.031 C 
BRANCH  21  22
ATOM     22  C   UNL     1     -34.802  24.180   5.524  0.00  0.00    +0.026 C 
BRANCH  22  23
ATOM     23  C   UNL     1     -35.620  22.900   5.385  0.00  0.00    +0.114 C 
BRANCH  23  24
ATOM     24  N   UNL     1     -36.549  23.024   4.262  0.00  0.00    -0.224 NA
BRANCH  24  26
ATOM     25  N   UNL     1     -36.400  20.956   3.040  0.00  0.00    -0.386 N 
ATOM     26  C   UNL     1     -36.289  22.315   3.216  0.00  0.00    +0.131 C 
ATOM     27  H   UNL     1     -36.724  20.389   3.777  0.00  0.00    +0.157 HD
ATOM     28  H   UNL     1     -36.153  20.549   2.178  0.00  0.00    +0.157 HD
BRANCH  26  30
ATOM     29  F   UNL     1     -34.501  23.493   2.215  0.00  0.00    -0.226 F 
ATOM     30  C   UNL     1     -35.779  23.078   2.013  0.00  0.00    +0.253 C 
ENDBRANCH  26  30
ENDBRANCH  24  26
ENDBRANCH  23  24
ENDBRANCH  22  23
ENDBRANCH  21  22
ENDBRANCH   1  21
TORSDOF 11
ENDMDL
MODEL 3
REMARK VINA RESULT:      -5.7      3.066      6.373
REMARK  Name = 54756939
REMARK  11 active torsions:
REMARK  status: ('A' for Active; 'I' for Inactive)
REMARK    1  A    between atoms: C_1  and  C_4
REMARK    2  A    between atoms: C_1  and  N_8
REMARK    3  A    between atoms: C_1  and  C_21
REMARK    4  A    between atoms: C_9  and  C_11
REMARK    5  A    between atoms: C_12  and  C_18
REMARK    6  A    between atoms: C_18  and  O_19
REMARK    7  A    between atoms: C_21  and  C_22
REMARK    8  A    between atoms: C_22  and  C_23
REMARK    9  A    between atoms: C_23  and  N_24
REMARK   10  A    between atoms: N_24  and  C_26
REMARK   11  A    between atoms: C_26  and  C_30
REMARK                            x       y       z     vdW  Elec       q    Type
REMARK                         _______ _______ _______ _____ _____    ______ ____
ROOT
ATOM      1  C   UNL     1     -36.461  26.199   1.044  0.00  0.00    +0.149 C 
ENDROOT
BRANCH   1   4
ATOM      2  O   UNL     1     -37.561  28.363   1.163  0.00  0.00    -0.274 OA
ATOM      3  N   UNL     1     -35.816  27.938   2.595  0.00  0.00    -0.327 N 
ATOM      4  C   UNL     1     -36.680  27.610   1.572  0.00  0.00    +0.237 C 
ATOM      5  H   UNL     1     -35.866  28.828   3.015  0.00  0.00    +0.145 HD
ATOM      6  H   UNL     1     -35.151  27.284   2.906  0.00  0.00    +0.145 HD
ENDBRANCH   1   4
BRANCH   1   8
ATOM      7  O   UNL     1     -34.066  25.121   2.204  0.00  0.00    -0.270 OA
ATOM      8  N   UNL     1     -36.376  25.326   2.186  0.00  0.00    -0.295 N 
ATOM      9  C   UNL     1     -35.167  24.853   2.678  0.00  0.00    +0.246 C 
ATOM     10  H   UNL     1     -37.209  25.054   2.635  0.00  0.00    +0.150 HD
BRANCH   9  11
ATOM     11  C   UNL     1     -35.251  23.939   3.846  0.00  0.00    +0.060 C 
ATOM     12  C   UNL     1     -35.277  24.430   5.151  0.00  0.00    +0.080 C 
ATOM     13  C   UNL     1     -35.304  22.564   3.616  0.00  0.00    +0.005 C 
ATOM     14  C   UNL     1     -35.356  23.546   6.227  0.00  0.00    +0.007 C 
ATOM     15  C   UNL     1     -35.383  21.681   4.693  0.00  0.00    +0.000 C 
ATOM     16  C   UNL     1     -35.408  22.172   5.998  0.00  0.00    +0.000 C 
BRANCH  12  18
ATOM     17  O   UNL     1     -34.212  26.488   5.745  0.00  0.00    -0.245 OA
ATOM     18  C   UNL     1     -35.223  25.861   5.422  0.00  0.00    +0.338 C 
BRANCH  18  19
ATOM     19  O   UNL     1     -36.435  26.461   5.278  0.00  0.00    -0.477 OA
ATOM     20  H   UNL     1     -37.092  26.355   5.937  0.00  0.00    +0.295 HD
ENDBRANCH  18  19
ENDBRANCH  12  18
ENDBRANCH   9  11
ENDBRANCH   1   8
BRANCH   1  21
ATOM     21  C   UNL     1     -37.594  25.801   0.092  0.00  0.00    +0.031 C 
BRANCH  21  22
ATOM     22  C   UNL     1     -37.258  24.544  -0.718  0.00  0.00    +0.026 C 
BRANCH  22  23
ATOM     23  C   UNL     1     -38.132  23.353  -0.335  0.00  0.00    +0.114 C 
BRANCH  23  24
ATOM     24  N   UNL     1     -37.630  22.745   0.897  0.00  0.00    -0.224 NA
BRANCH  24  26
ATOM     25  N   UNL     1     -38.696  21.051   2.232  0.00  0.00    -0.386 N 
ATOM     26  C   UNL     1     -38.515  22.319   1.733  0.00  0.00    +0.131 C 
ATOM     27  H   UNL     1     -38.095  20.322   1.957  0.00  0.00    +0.157 HD
ATOM     28  H   UNL     1     -39.430  20.871   2.865  0.00  0.00    +0.157 HD
BRANCH  26  30
ATOM     29  F   UNL     1     -39.001  24.018   3.304  0.00  0.00    -0.226 F 
ATOM     30  C   UNL     1     -39.503  23.352   2.230  0.00  0.00    +0.253 C 
ENDBRANCH  26  30
ENDBRANCH  24  26
ENDBRANCH  23  24
ENDBRANCH  22  23
ENDBRANCH  21  22
ENDBRANCH   1  21
TORSDOF 11
ENDMDL
MODEL 4
REMARK VINA RESULT:      -5.7      2.417      4.895
REMARK  Name = 54756939
REMARK  11 active torsions:
REMARK  status: ('A' for Active; 'I' for Inactive)
REMARK    1  A    between atoms: C_1  and  C_4
REMARK    2  A    between atoms: C_1  and  N_8
REMARK    3  A    between atoms: C_1  and  C_21
REMARK    4  A    between atoms: C_9  and  C_11
REMARK    5  A    between atoms: C_12  and  C_18
REMARK    6  A    between atoms: C_18  and  O_19
REMARK    7  A    between atoms: C_21  and  C_22
REMARK    8  A    between atoms: C_22  and  C_23
REMARK    9  A    between atoms: C_23  and  N_24
REMARK   10  A    between atoms: N_24  and  C_26
REMARK   11  A    between atoms: C_26  and  C_30
REMARK                            x       y       z     vdW  Elec       q    Type
REMARK                         _______ _______ _______ _____ _____    ______ ____
ROOT
ATOM      1  C   UNL     1     -35.728  22.568   3.517  0.00  0.00    +0.149 C 
ENDROOT
BRANCH   1   4
ATOM      2  O   UNL     1     -35.969  23.183   5.855  0.00  0.00    -0.274 OA
ATOM      3  N   UNL     1     -35.141  21.102   5.348  0.00  0.00    -0.327 N 
ATOM      4  C   UNL     1     -35.621  22.351   5.020  0.00  0.00    +0.237 C 
ATOM      5  H   UNL     1     -35.031  20.849   6.293  0.00  0.00    +0.145 HD
ATOM      6  H   UNL     1     -34.910  20.461   4.637  0.00  0.00    +0.145 HD
ENDBRANCH   1   4
BRANCH   1   8
ATOM      7  O   UNL     1     -34.355  22.187   1.024  0.00  0.00    -0.270 OA
ATOM      8  N   UNL     1     -35.428  21.310   2.883  0.00  0.00    -0.295 N 
ATOM      9  C   UNL     1     -34.756  21.223   1.672  0.00  0.00    +0.246 C 
ATOM     10  H   UNL     1     -35.710  20.478   3.328  0.00  0.00    +0.150 HD
BRANCH   9  11
ATOM     11  C   UNL     1     -34.548  19.853   1.137  0.00  0.00    +0.060 C 
ATOM     12  C   UNL     1     -35.508  19.232   0.341  0.00  0.00    +0.080 C 
ATOM     13  C   UNL     1     -33.361  19.188   1.447  0.00  0.00    +0.005 C 
ATOM     14  C   UNL     1     -35.284  17.943  -0.146  0.00  0.00    +0.007 C 
ATOM     15  C   UNL     1     -33.137  17.900   0.959  0.00  0.00    +0.000 C 
ATOM     16  C   UNL     1     -34.098  17.278   0.163  0.00  0.00    +0.000 C 
BRANCH  12  18
ATOM     17  O   UNL     1     -36.998  20.459  -1.073  0.00  0.00    -0.245 OA
ATOM     18  C   UNL     1     -36.757  19.901   0.000  0.00  0.00    +0.338 C 
BRANCH  18  19
ATOM     19  O   UNL     1     -37.665  19.848   1.012  0.00  0.00    -0.477 OA
ATOM     20  H   UNL     1     -37.936  20.635   1.440  0.00  0.00    +0.295 HD
ENDBRANCH  18  19
ENDBRANCH  12  18
ENDBRANCH   9  11
ENDBRANCH   1   8
BRANCH   1  21
ATOM     21  C   UNL     1     -37.121  23.086   3.147  0.00  0.00    +0.031 C 
BRANCH  21  22
ATOM     22  C   UNL     1     -37.073  24.477   2.504  0.00  0.00    +0.026 C 
BRANCH  22  23
ATOM     23  C   UNL     1     -35.669  25.074   2.512  0.00  0.00    +0.114 C 
BRANCH  23  24
ATOM     24  N   UNL     1     -35.678  26.354   3.220  0.00  0.00    -0.224 NA
BRANCH  24  26
ATOM     25  N   UNL     1     -36.466  26.379   5.493  0.00  0.00    -0.386 N 
ATOM     26  C   UNL     1     -35.519  26.307   4.499  0.00  0.00    +0.131 C 
ATOM     27  H   UNL     1     -37.418  26.473   5.261  0.00  0.00    +0.157 HD
ATOM     28  H   UNL     1     -36.192  26.338   6.439  0.00  0.00    +0.157 HD
BRANCH  26  30
ATOM     29  F   UNL     1     -34.062  25.875   6.309  0.00  0.00    -0.226 F 
ATOM     30  C   UNL     1     -34.092  26.165   4.982  0.00  0.00    +0.253 C 
ENDBRANCH  26  30
ENDBRANCH  24  26
ENDBRANCH  23  24
ENDBRANCH  22  23
ENDBRANCH  21  22
ENDBRANCH   1  21
TORSDOF 11
ENDMDL
MODEL 5
REMARK VINA RESULT:      -5.7      2.879      6.340
REMARK  Name = 54756939
REMARK  11 active torsions:
REMARK  status: ('A' for Active; 'I' for Inactive)
REMARK    1  A    between atoms: C_1  and  C_4
REMARK    2  A    between atoms: C_1  and  N_8
REMARK    3  A    between atoms: C_1  and  C_21
REMARK    4  A    between atoms: C_9  and  C_11
REMARK    5  A    between atoms: C_12  and  C_18
REMARK    6  A    between atoms: C_18  and  O_19
REMARK    7  A    between atoms: C_21  and  C_22
REMARK    8  A    between atoms: C_22  and  C_23
REMARK    9  A    between atoms: C_23  and  N_24
REMARK   10  A    between atoms: N_24  and  C_26
REMARK   11  A    between atoms: C_26  and  C_30
REMARK                            x       y       z     vdW  Elec       q    Type
REMARK                         _______ _______ _______ _____ _____    ______ ____
ROOT
ATOM      1  C   UNL     1     -38.727  24.424   1.669  0.00  0.00    +0.149 C 
ENDROOT
BRANCH   1   4
ATOM      2  O   UNL     1     -39.551  26.700   1.457  0.00  0.00    -0.274 OA
ATOM      3  N   UNL     1     -39.900  25.586   3.435  0.00  0.00    -0.327 N 
ATOM      4  C   UNL     1     -39.410  25.696   2.151  0.00  0.00    +0.237 C 
ATOM      5  H   UNL     1     -40.364  26.348   3.852  0.00  0.00    +0.145 HD
ATOM      6  H   UNL     1     -39.789  24.745   3.934  0.00  0.00    +0.145 HD
ENDBRANCH   1   4
BRANCH   1   8
ATOM      7  O   UNL     1     -35.893  24.589   2.093  0.00  0.00    -0.270 OA
ATOM      8  N   UNL     1     -37.992  23.886   2.784  0.00  0.00    -0.295 N 
ATOM      9  C   UNL     1     -36.615  24.016   2.905  0.00  0.00    +0.246 C 
ATOM     10  H   UNL     1     -38.486  23.408   3.488  0.00  0.00    +0.150 HD
BRANCH   9  11
ATOM     11  C   UNL     1     -36.003  23.382   4.100  0.00  0.00    +0.060 C 
ATOM     12  C   UNL     1     -35.660  24.132   5.224  0.00  0.00    +0.080 C 
ATOM     13  C   UNL     1     -35.772  22.005   4.083  0.00  0.00    +0.005 C 
ATOM     14  C   UNL     1     -35.086  23.507   6.332  0.00  0.00    +0.007 C 
ATOM     15  C   UNL     1     -35.199  21.381   5.191  0.00  0.00    +0.000 C 
ATOM     16  C   UNL     1     -34.855  22.132   6.315  0.00  0.00    +0.000 C 
BRANCH  12  18
ATOM     17  O   UNL     1     -35.055  26.414   5.611  0.00  0.00    -0.245 OA
ATOM     18  C   UNL     1     -35.888  25.570   5.272  0.00  0.00    +0.338 C 
BRANCH  18  19
ATOM     19  O   UNL     1     -37.150  25.907   4.892  0.00  0.00    -0.477 OA
ATOM     20  H   UNL     1     -37.658  25.313   4.377  0.00  0.00    +0.295 HD
ENDBRANCH  18  19
ENDBRANCH  12  18
ENDBRANCH   9  11
ENDBRANCH   1   8
BRANCH   1  21
ATOM     21  C   UNL     1     -39.761  23.434   1.124  0.00  0.00    +0.031 C 
BRANCH  21  22
ATOM     22  C   UNL     1     -39.568  22.022   1.687  0.00  0.00    +0.026 C 
BRANCH  22  23
ATOM     23  C   UNL     1     -38.741  21.134   0.762  0.00  0.00    +0.114 C 
BRANCH  23  24
ATOM     24  N   UNL     1     -37.353  21.092   1.224  0.00  0.00    -0.224 NA
BRANCH  24  26
ATOM     25  N   UNL     1     -37.176  18.722   0.843  0.00  0.00    -0.386 N 
ATOM     26  C   UNL     1     -36.700  20.004   0.992  0.00  0.00    +0.131 C 
ATOM     27  H   UNL     1     -38.142  18.545   0.903  0.00  0.00    +0.157 HD
ATOM     28  H   UNL     1     -36.548  17.981   0.677  0.00  0.00    +0.157 HD
BRANCH  26  30
ATOM     29  F   UNL     1     -34.581  19.599   1.959  0.00  0.00    -0.226 F 
ATOM     30  C   UNL     1     -35.198  20.148   0.879  0.00  0.00    +0.253 C 
ENDBRANCH  26  30
ENDBRANCH  24  26
ENDBRANCH  23  24
ENDBRANCH  22  23
ENDBRANCH  21  22
ENDBRANCH   1  21
TORSDOF 11
ENDMDL
MODEL 6
REMARK VINA RESULT:      -5.6      3.344      6.961
REMARK  Name = 54756939
REMARK  11 active torsions:
REMARK  status: ('A' for Active; 'I' for Inactive)
REMARK    1  A    between atoms: C_1  and  C_4
REMARK    2  A    between atoms: C_1  and  N_8
REMARK    3  A    between atoms: C_1  and  C_21
REMARK    4  A    between atoms: C_9  and  C_11
REMARK    5  A    between atoms: C_12  and  C_18
REMARK    6  A    between atoms: C_18  and  O_19
REMARK    7  A    between atoms: C_21  and  C_22
REMARK    8  A    between atoms: C_22  and  C_23
REMARK    9  A    between atoms: C_23  and  N_24
REMARK   10  A    between atoms: N_24  and  C_26
REMARK   11  A    between atoms: C_26  and  C_30
REMARK                            x       y       z     vdW  Elec       q    Type
REMARK                         _______ _______ _______ _____ _____    ______ ____
ROOT
ATOM      1  C   UNL     1     -35.246  25.524   4.367  0.00  0.00    +0.149 C 
ENDROOT
BRANCH   1   4
ATOM      2  O   UNL     1     -37.614  25.287   3.877  0.00  0.00    -0.274 OA
ATOM      3  N   UNL     1     -36.453  27.000   2.880  0.00  0.00    -0.327 N 
ATOM      4  C   UNL     1     -36.559  25.889   3.690  0.00  0.00    +0.237 C 
ATOM      5  H   UNL     1     -37.242  27.329   2.391  0.00  0.00    +0.145 HD
ATOM      6  H   UNL     1     -35.590  27.464   2.793  0.00  0.00    +0.145 HD
ENDBRANCH   1   4
BRANCH   1   8
ATOM      7  O   UNL     1     -32.527  26.231   3.778  0.00  0.00    -0.270 OA
ATOM      8  N   UNL     1     -34.585  26.757   4.707  0.00  0.00    -0.295 N 
ATOM      9  C   UNL     1     -33.261  27.012   4.379  0.00  0.00    +0.246 C 
ATOM     10  H   UNL     1     -35.094  27.447   5.191  0.00  0.00    +0.150 HD
BRANCH   9  11
ATOM     11  C   UNL     1     -32.718  28.321   4.825  0.00  0.00    +0.060 C 
ATOM     12  C   UNL     1     -32.988  29.495   4.123  0.00  0.00    +0.080 C 
ATOM     13  C   UNL     1     -31.924  28.360   5.971  0.00  0.00    +0.005 C 
ATOM     14  C   UNL     1     -32.464  30.709   4.566  0.00  0.00    +0.007 C 
ATOM     15  C   UNL     1     -31.401  29.575   6.414  0.00  0.00    +0.000 C 
ATOM     16  C   UNL     1     -31.670  30.749   5.711  0.00  0.00    +0.000 C 
BRANCH  12  18
ATOM     17  O   UNL     1     -33.391  29.404   1.766  0.00  0.00    -0.245 OA
ATOM     18  C   UNL     1     -33.814  29.486   2.922  0.00  0.00    +0.338 C 
BRANCH  18  19
ATOM     19  O   UNL     1     -35.141  29.575   3.206  0.00  0.00    -0.477 OA
ATOM     20  H   UNL     1     -35.648  30.281   2.858  0.00  0.00    +0.295 HD
ENDBRANCH  18  19
ENDBRANCH  12  18
ENDBRANCH   9  11
ENDBRANCH   1   8
BRANCH   1  21
ATOM     21  C   UNL     1     -35.503  24.646   5.596  0.00  0.00    +0.031 C 
BRANCH  21  22
ATOM     22  C   UNL     1     -34.654  23.369   5.586  0.00  0.00    +0.026 C 
BRANCH  22  23
ATOM     23  C   UNL     1     -35.506  22.105   5.511  0.00  0.00    +0.114 C 
BRANCH  23  24
ATOM     24  N   UNL     1     -35.379  21.498   4.186  0.00  0.00    -0.224 NA
BRANCH  24  26
ATOM     25  N   UNL     1     -37.398  22.357   3.198  0.00  0.00    -0.386 N 
ATOM     26  C   UNL     1     -36.061  22.041   3.235  0.00  0.00    +0.131 C 
ATOM     27  H   UNL     1     -37.969  22.174   3.978  0.00  0.00    +0.157 HD
ATOM     28  H   UNL     1     -37.785  22.765   2.389  0.00  0.00    +0.157 HD
BRANCH  26  30
ATOM     29  F   UNL     1     -35.591  23.622   1.541  0.00  0.00    -0.226 F 
ATOM     30  C   UNL     1     -35.289  22.370   1.975  0.00  0.00    +0.253 C 
ENDBRANCH  26  30
ENDBRANCH  24  26
ENDBRANCH  23  24
ENDBRANCH  22  23
ENDBRANCH  21  22
ENDBRANCH   1  21
TORSDOF 11
ENDMDL
MODEL 7
REMARK VINA RESULT:      -5.6      3.325      6.508
REMARK  Name = 54756939
REMARK  11 active torsions:
REMARK  status: ('A' for Active; 'I' for Inactive)
REMARK    1  A    between atoms: C_1  and  C_4
REMARK    2  A    between atoms: C_1  and  N_8
REMARK    3  A    between atoms: C_1  and  C_21
REMARK    4  A    between atoms: C_9  and  C_11
REMARK    5  A    between atoms: C_12  and  C_18
REMARK    6  A    between atoms: C_18  and  O_19
REMARK    7  A    between atoms: C_21  and  C_22
REMARK    8  A    between atoms: C_22  and  C_23
REMARK    9  A    between atoms: C_23  and  N_24
REMARK   10  A    between atoms: N_24  and  C_26
REMARK   11  A    between atoms: C_26  and  C_30
REMARK                            x       y       z     vdW  Elec       q    Type
REMARK                         _______ _______ _______ _____ _____    ______ ____
ROOT
ATOM      1  C   UNL     1     -35.254  27.661   2.061  0.00  0.00    +0.149 C 
ENDROOT
BRANCH   1   4
ATOM      2  O   UNL     1     -33.388  28.699   3.220  0.00  0.00    -0.274 OA
ATOM      3  N   UNL     1     -35.376  29.843   3.097  0.00  0.00    -0.327 N 
ATOM      4  C   UNL     1     -34.561  28.755   2.861  0.00  0.00    +0.237 C 
ATOM      5  H   UNL     1     -35.032  30.613   3.605  0.00  0.00    +0.145 HD
ATOM      6  H   UNL     1     -36.299  29.849   2.756  0.00  0.00    +0.145 HD
ENDBRANCH   1   4
BRANCH   1   8
ATOM      7  O   UNL     1     -33.960  25.111   1.805  0.00  0.00    -0.270 OA
ATOM      8  N   UNL     1     -35.408  26.527   2.935  0.00  0.00    -0.295 N 
ATOM      9  C   UNL     1     -34.738  25.329   2.731  0.00  0.00    +0.246 C 
ATOM     10  H   UNL     1     -36.013  26.606   3.708  0.00  0.00    +0.150 HD
BRANCH   9  11
ATOM     11  C   UNL     1     -35.025  24.247   3.707  0.00  0.00    +0.060 C 
ATOM     12  C   UNL     1     -35.212  24.521   5.061  0.00  0.00    +0.080 C 
ATOM     13  C   UNL     1     -35.109  22.933   3.243  0.00  0.00    +0.005 C 
ATOM     14  C   UNL     1     -35.480  23.483   5.953  0.00  0.00    +0.007 C 
ATOM     15  C   UNL     1     -35.378  21.895   4.136  0.00  0.00    +0.000 C 
ATOM     16  C   UNL     1     -35.563  22.170   5.490  0.00  0.00    +0.000 C 
BRANCH  12  18
ATOM     17  O   UNL     1     -34.093  26.457   5.913  0.00  0.00    -0.245 OA
ATOM     18  C   UNL     1     -35.130  25.882   5.575  0.00  0.00    +0.338 C 
BRANCH  18  19
ATOM     19  O   UNL     1     -36.350  26.482   5.647  0.00  0.00    -0.477 OA
ATOM     20  H   UNL     1     -36.417  27.378   5.911  0.00  0.00    +0.295 HD
ENDBRANCH  18  19
ENDBRANCH  12  18
ENDBRANCH   9  11
ENDBRANCH   1   8
BRANCH   1  21
ATOM     21  C   UNL     1     -36.596  28.162   1.518  0.00  0.00    +0.031 C 
BRANCH  21  22
ATOM     22  C   UNL     1     -37.112  27.302   0.358  0.00  0.00    +0.026 C 
BRANCH  22  23
ATOM     23  C   UNL     1     -38.324  26.462   0.751  0.00  0.00    +0.114 C 
BRANCH  23  24
ATOM     24  N   UNL     1     -38.581  26.601   2.184  0.00  0.00    -0.224 NA
BRANCH  24  26
ATOM     25  N   UNL     1     -38.524  25.022   4.001  0.00  0.00    -0.386 N 
ATOM     26  C   UNL     1     -38.969  25.539   2.807  0.00  0.00    +0.131 C 
ATOM     27  H   UNL     1     -37.816  25.484   4.504  0.00  0.00    +0.157 HD
ATOM     28  H   UNL     1     -38.914  24.188   4.352  0.00  0.00    +0.157 HD
BRANCH  26  30
ATOM     29  F   UNL     1     -40.105  23.474   2.624  0.00  0.00    -0.226 F 
ATOM     30  C   UNL     1     -40.059  24.739   2.128  0.00  0.00    +0.253 C 
ENDBRANCH  26  30
ENDBRANCH  24  26
ENDBRANCH  23  24
ENDBRANCH  22  23
ENDBRANCH  21  22
ENDBRANCH   1  21
TORSDOF 11
ENDMDL
MODEL 8
REMARK VINA RESULT:      -5.6      1.509      2.272
REMARK  Name = 54756939
REMARK  11 active torsions:
REMARK  status: ('A' for Active; 'I' for Inactive)
REMARK    1  A    between atoms: C_1  and  C_4
REMARK    2  A    between atoms: C_1  and  N_8
REMARK    3  A    between atoms: C_1  and  C_21
REMARK    4  A    between atoms: C_9  and  C_11
REMARK    5  A    between atoms: C_12  and  C_18
REMARK    6  A    between atoms: C_18  and  O_19
REMARK    7  A    between atoms: C_21  and  C_22
REMARK    8  A    between atoms: C_22  and  C_23
REMARK    9  A    between atoms: C_23  and  N_24
REMARK   10  A    between atoms: N_24  and  C_26
REMARK   11  A    between atoms: C_26  and  C_30
REMARK                            x       y       z     vdW  Elec       q    Type
REMARK                         _______ _______ _______ _____ _____    ______ ____
ROOT
ATOM      1  C   UNL     1     -35.908  22.142   2.032  0.00  0.00    +0.149 C 
ENDROOT
BRANCH   1   4
ATOM      2  O   UNL     1     -34.939  19.968   2.520  0.00  0.00    -0.274 OA
ATOM      3  N   UNL     1     -37.207  20.108   2.181  0.00  0.00    -0.327 N 
ATOM      4  C   UNL     1     -35.936  20.637   2.256  0.00  0.00    +0.237 C 
ATOM      5  H   UNL     1     -37.346  19.142   2.311  0.00  0.00    +0.145 HD
ATOM      6  H   UNL     1     -37.974  20.697   2.000  0.00  0.00    +0.145 HD
ENDBRANCH   1   4
BRANCH   1   8
ATOM      7  O   UNL     1     -36.884  24.104   0.178  0.00  0.00    -0.270 OA
ATOM      8  N   UNL     1     -37.272  22.575   1.877  0.00  0.00    -0.295 N 
ATOM      9  C   UNL     1     -37.652  23.534   0.948  0.00  0.00    +0.246 C 
ATOM     10  H   UNL     1     -37.963  22.173   2.452  0.00  0.00    +0.150 HD
BRANCH   9  11
ATOM     11  C   UNL     1     -39.094  23.891   0.931  0.00  0.00    +0.060 C 
ATOM     12  C   UNL     1     -39.621  24.823   1.824  0.00  0.00    +0.080 C 
ATOM     13  C   UNL     1     -39.925  23.273  -0.004  0.00  0.00    +0.005 C 
ATOM     14  C   UNL     1     -40.980  25.136   1.784  0.00  0.00    +0.007 C 
ATOM     15  C   UNL     1     -41.283  23.588  -0.045  0.00  0.00    +0.000 C 
ATOM     16  C   UNL     1     -41.811  24.519   0.850  0.00  0.00    +0.000 C 
BRANCH  12  18
ATOM     17  O   UNL     1     -38.214  26.569   2.657  0.00  0.00    -0.245 OA
ATOM     18  C   UNL     1     -38.779  25.484   2.813  0.00  0.00    +0.338 C 
BRANCH  18  19
ATOM     19  O   UNL     1     -38.674  24.769   3.965  0.00  0.00    -0.477 OA
ATOM     20  H   UNL     1     -37.912  24.249   4.126  0.00  0.00    +0.295 HD
ENDBRANCH  18  19
ENDBRANCH  12  18
ENDBRANCH   9  11
ENDBRANCH   1   8
BRANCH   1  21
ATOM     21  C   UNL     1     -35.206  22.844   3.199  0.00  0.00    +0.031 C 
BRANCH  21  22
ATOM     22  C   UNL     1     -35.886  22.561   4.543  0.00  0.00    +0.026 C 
BRANCH  22  23
ATOM     23  C   UNL     1     -35.451  23.537   5.633  0.00  0.00    +0.114 C 
BRANCH  23  24
ATOM     24  N   UNL     1     -36.185  24.795   5.494  0.00  0.00    -0.224 NA
BRANCH  24  26
ATOM     25  N   UNL     1     -35.886  26.990   4.553  0.00  0.00    -0.386 N 
ATOM     26  C   UNL     1     -35.490  25.839   5.192  0.00  0.00    +0.131 C 
ATOM     27  H   UNL     1     -36.822  27.096   4.266  0.00  0.00    +0.157 HD
ATOM     28  H   UNL     1     -35.233  27.707   4.381  0.00  0.00    +0.157 HD
BRANCH  26  30
ATOM     29  F   UNL     1     -33.815  26.506   6.721  0.00  0.00    -0.226 F 
ATOM     30  C   UNL     1     -34.029  25.793   5.583  0.00  0.00    +0.253 C 
ENDBRANCH  26  30
ENDBRANCH  24  26
ENDBRANCH  23  24
ENDBRANCH  22  23
ENDBRANCH  21  22
ENDBRANCH   1  21
TORSDOF 11
ENDMDL
MODEL 9
REMARK VINA RESULT:      -5.6      2.896      6.335
REMARK  Name = 54756939
REMARK  11 active torsions:
REMARK  status: ('A' for Active; 'I' for Inactive)
REMARK    1  A    between atoms: C_1  and  C_4
REMARK    2  A    between atoms: C_1  and  N_8
REMARK    3  A    between atoms: C_1  and  C_21
REMARK    4  A    between atoms: C_9  and  C_11
REMARK    5  A    between atoms: C_12  and  C_18
REMARK    6  A    between atoms: C_18  and  O_19
REMARK    7  A    between atoms: C_21  and  C_22
REMARK    8  A    between atoms: C_22  and  C_23
REMARK    9  A    between atoms: C_23  and  N_24
REMARK   10  A    between atoms: N_24  and  C_26
REMARK   11  A    between atoms: C_26  and  C_30
REMARK                            x       y       z     vdW  Elec       q    Type
REMARK                         _______ _______ _______ _____ _____    ______ ____
ROOT
ATOM      1  C   UNL     1     -36.635  26.338   1.505  0.00  0.00    +0.149 C 
ENDROOT
BRANCH   1   4
ATOM      2  O   UNL     1     -36.804  28.762   1.450  0.00  0.00    -0.274 OA
ATOM      3  N   UNL     1     -35.643  27.781   3.173  0.00  0.00    -0.327 N 
ATOM      4  C   UNL     1     -36.373  27.753   2.004  0.00  0.00    +0.237 C 
ATOM      5  H   UNL     1     -35.415  28.643   3.589  0.00  0.00    +0.145 HD
ATOM      6  H   UNL     1     -35.353  26.939   3.592  0.00  0.00    +0.145 HD
ENDBRANCH   1   4
BRANCH   1   8
ATOM      7  O   UNL     1     -34.447  24.531   1.936  0.00  0.00    -0.270 OA
ATOM      8  N   UNL     1     -36.460  25.452   2.626  0.00  0.00    -0.295 N 
ATOM      9  C   UNL     1     -35.364  24.610   2.750  0.00  0.00    +0.246 C 
ATOM     10  H   UNL     1     -37.146  25.444   3.332  0.00  0.00    +0.150 HD
BRANCH   9  11
ATOM     11  C   UNL     1     -35.344  23.737   3.952  0.00  0.00    +0.060 C 
ATOM     12  C   UNL     1     -35.316  24.275   5.238  0.00  0.00    +0.080 C 
ATOM     13  C   UNL     1     -35.356  22.353   3.774  0.00  0.00    +0.005 C 
ATOM     14  C   UNL     1     -35.298  23.429   6.348  0.00  0.00    +0.007 C 
ATOM     15  C   UNL     1     -35.338  21.508   4.884  0.00  0.00    +0.000 C 
ATOM     16  C   UNL     1     -35.309  22.046   6.170  0.00  0.00    +0.000 C 
BRANCH  12  18
ATOM     17  O   UNL     1     -34.292  26.408   5.591  0.00  0.00    -0.245 OA
ATOM     18  C   UNL     1     -35.304  25.716   5.456  0.00  0.00    +0.338 C 
BRANCH  18  19
ATOM     19  O   UNL     1     -36.557  26.244   5.495  0.00  0.00    -0.477 OA
ATOM     20  H   UNL     1     -37.180  25.926   6.117  0.00  0.00    +0.295 HD
ENDBRANCH  18  19
ENDBRANCH  12  18
ENDBRANCH   9  11
ENDBRANCH   1   8
BRANCH   1  21
ATOM     21  C   UNL     1     -38.037  26.235   0.897  0.00  0.00    +0.031 C 
BRANCH  21  22
ATOM     22  C   UNL     1     -39.107  25.924   1.951  0.00  0.00    +0.026 C 
BRANCH  22  23
ATOM     23  C   UNL     1     -39.676  24.516   1.804  0.00  0.00    +0.114 C 
BRANCH  23  24
ATOM     24  N   UNL     1     -38.810  23.557   2.492  0.00  0.00    -0.224 NA
BRANCH  24  26
ATOM     25  N   UNL     1     -38.898  21.169   2.206  0.00  0.00    -0.386 N 
ATOM     26  C   UNL     1     -38.556  22.457   1.868  0.00  0.00    +0.131 C 
ATOM     27  H   UNL     1     -39.416  20.996   3.025  0.00  0.00    +0.157 HD
ATOM     28  H   UNL     1     -38.624  20.420   1.629  0.00  0.00    +0.157 HD
BRANCH  26  30
ATOM     29  F   UNL     1     -36.510  22.088   0.744  0.00  0.00    -0.226 F 
ATOM     30  C   UNL     1     -37.761  22.595   0.587  0.00  0.00    +0.253 C 
ENDBRANCH  26  30
ENDBRANCH  24  26
ENDBRANCH  23  24
ENDBRANCH  22  23
ENDBRANCH  21  22
ENDBRANCH   1  21
TORSDOF 11
ENDMDL
