MODEL 1
REMARK VINA RESULT:      -4.9      0.000      0.000
REMARK  Name = 20834256
REMARK  11 active torsions:
REMARK  status: ('A' for Active; 'I' for Inactive)
REMARK    1  A    between atoms: C_1  and  O_2
REMARK    2  A    between atoms: C_1  and  C_4
REMARK    3  A    between atoms: C_1  and  C_15
REMARK    4  A    between atoms: C_4  and  O_5
REMARK    5  A    between atoms: C_4  and  C_7
REMARK    6  A    between atoms: C_7  and  C_8
REMARK    7  A    between atoms: C_7  and  C_12
REMARK    8  A    between atoms: C_12  and  O_13
REMARK    9  A    between atoms: C_15  and  N_16
REMARK   10  A    between atoms: C_15  and  C_20
REMARK   11  A    between atoms: C_20  and  C_21
REMARK                            x       y       z     vdW  Elec       q    Type
REMARK                         _______ _______ _______ _____ _____    ______ ____
ROOT
ATOM      1  C   UNL     1     -36.104  25.636   4.749  0.00  0.00    +0.118 C 
ENDROOT
BRANCH   1   2
ATOM      2  O   UNL     1     -36.655  26.722   5.506  0.00  0.00    -0.384 OA
ATOM      3  H   UNL     1     -36.889  26.410   6.394  0.00  0.00    +0.210 HD
ENDBRANCH   1   2
BRANCH   1   4
ATOM      4  C   UNL     1     -36.047  26.084   3.269  0.00  0.00    +0.146 C 
BRANCH   4   5
ATOM      5  O   UNL     1     -36.053  27.516   3.231  0.00  0.00    -0.382 OA
ATOM      6  H   UNL     1     -35.395  27.825   2.588  0.00  0.00    +0.210 HD
ENDBRANCH   4   5
BRANCH   4   7
ATOM      7  C   UNL     1     -37.159  25.528   2.345  0.00  0.00    +0.128 C 
BRANCH   7   8
ATOM      8  C   UNL     1     -36.753  24.260   1.535  0.00  0.00    +0.013 C 
ATOM      9  C   UNL     1     -35.249  24.219   1.240  0.00  0.00    +0.001 C 
ATOM     10  C   UNL     1     -37.515  24.188   0.203  0.00  0.00    +0.001 C 
ENDBRANCH   7   8
BRANCH   7  12
ATOM     11  O   UNL     1     -38.880  24.179   3.397  0.00  0.00    -0.250 OA
ATOM     12  C   UNL     1     -38.454  25.294   3.120  0.00  0.00    +0.316 C 
BRANCH  12  13
ATOM     13  O   UNL     1     -39.103  26.430   3.475  0.00  0.00    -0.480 OA
ATOM     14  H   UNL     1     -39.877  26.690   3.015  0.00  0.00    +0.295 HD
ENDBRANCH  12  13
ENDBRANCH   7  12
ENDBRANCH   4   7
ENDBRANCH   1   4
BRANCH   1  15
ATOM     15  C   UNL     1     -34.751  25.199   5.368  0.00  0.00    -0.036 C 
BRANCH  15  16
ATOM     16  N   UNL     1     -33.718  26.121   4.878  0.00  0.00    +0.383 N 
ATOM     17  H   UNL     1     -32.816  25.643   4.862  0.00  0.00    -0.089 HD
ATOM     18  H   UNL     1     -33.664  26.930   5.496  0.00  0.00    -0.089 HD
ATOM     19  H   UNL     1     -33.956  26.428   3.935  0.00  0.00    -0.089 HD
ENDBRANCH  15  16
BRANCH  15  20
ATOM     20  C   UNL     1     -34.374  23.732   5.062  0.00  0.00    -0.019 C 
BRANCH  20  21
ATOM     21  C   UNL     1     -35.525  22.706   5.156  0.00  0.00    -0.002 C 
ATOM     22  C   UNL     1     -35.481  21.895   6.451  0.00  0.00    -0.000 C 
ATOM     23  C   UNL     1     -35.466  21.758   3.953  0.00  0.00    -0.000 C 
ENDBRANCH  20  21
ENDBRANCH  15  20
ENDBRANCH   1  15
TORSDOF 11
ENDMDL
MODEL 2
REMARK VINA RESULT:      -4.9      2.794      4.248
REMARK  Name = 20834256
REMARK  11 active torsions:
REMARK  status: ('A' for Active; 'I' for Inactive)
REMARK    1  A    between atoms: C_1  and  O_2
REMARK    2  A    between atoms: C_1  and  C_4
REMARK    3  A    between atoms: C_1  and  C_15
REMARK    4  A    between atoms: C_4  and  O_5
REMARK    5  A    between atoms: C_4  and  C_7
REMARK    6  A    between atoms: C_7  and  C_8
REMARK    7  A    between atoms: C_7  and  C_12
REMARK    8  A    between atoms: C_12  and  O_13
REMARK    9  A    between atoms: C_15  and  N_16
REMARK   10  A    between atoms: C_15  and  C_20
REMARK   11  A    between atoms: C_20  and  C_21
REMARK                            x       y       z     vdW  Elec       q    Type
REMARK                         _______ _______ _______ _____ _____    ______ ____
ROOT
ATOM      1  C   UNL     1     -36.173  23.476   4.126  0.00  0.00    +0.118 C 
ENDROOT
BRANCH   1   2
ATOM      2  O   UNL     1     -36.401  22.480   5.133  0.00  0.00    -0.384 OA
ATOM      3  H   UNL     1     -37.321  22.176   5.084  0.00  0.00    +0.210 HD
ENDBRANCH   1   2
BRANCH   1   4
ATOM      4  C   UNL     1     -36.845  22.983   2.823  0.00  0.00    +0.146 C 
BRANCH   4   5
ATOM      5  O   UNL     1     -38.105  22.392   3.161  0.00  0.00    -0.382 OA
ATOM      6  H   UNL     1     -38.104  22.146   4.100  0.00  0.00    +0.210 HD
ENDBRANCH   4   5
BRANCH   4   7
ATOM      7  C   UNL     1     -36.016  21.997   1.960  0.00  0.00    +0.128 C 
BRANCH   7   8
ATOM      8  C   UNL     1     -34.639  22.553   1.488  0.00  0.00    +0.013 C 
ATOM      9  C   UNL     1     -34.751  23.975   0.926  0.00  0.00    +0.001 C 
ATOM     10  C   UNL     1     -34.018  21.649   0.412  0.00  0.00    +0.001 C 
ENDBRANCH   7   8
BRANCH   7  12
ATOM     11  O   UNL     1     -34.928  20.395   3.422  0.00  0.00    -0.250 OA
ATOM     12  C   UNL     1     -35.855  20.650   2.662  0.00  0.00    +0.316 C 
BRANCH  12  13
ATOM     13  O   UNL     1     -36.825  19.751   2.368  0.00  0.00    -0.480 OA
ATOM     14  H   UNL     1     -36.596  18.912   2.019  0.00  0.00    +0.295 HD
ENDBRANCH  12  13
ENDBRANCH   7  12
ENDBRANCH   4   7
ENDBRANCH   1   4
BRANCH   1  15
ATOM     15  C   UNL     1     -36.648  24.859   4.641  0.00  0.00    -0.036 C 
BRANCH  15  16
ATOM     16  N   UNL     1     -37.993  25.098   4.101  0.00  0.00    +0.383 N 
ATOM     17  H   UNL     1     -38.043  26.042   3.717  0.00  0.00    -0.089 HD
ATOM     18  H   UNL     1     -38.681  24.997   4.846  0.00  0.00    -0.089 HD
ATOM     19  H   UNL     1     -38.188  24.421   3.364  0.00  0.00    -0.089 HD
ENDBRANCH  15  16
BRANCH  15  20
ATOM     20  C   UNL     1     -35.693  26.018   4.278  0.00  0.00    -0.019 C 
BRANCH  20  21
ATOM     21  C   UNL     1     -34.198  25.783   4.590  0.00  0.00    -0.002 C 
ATOM     22  C   UNL     1     -33.796  26.317   5.965  0.00  0.00    -0.000 C 
ATOM     23  C   UNL     1     -33.338  26.446   3.509  0.00  0.00    -0.000 C 
ENDBRANCH  20  21
ENDBRANCH  15  20
ENDBRANCH   1  15
TORSDOF 11
ENDMDL
MODEL 3
REMARK VINA RESULT:      -4.8      3.034      4.477
REMARK  Name = 20834256
REMARK  11 active torsions:
REMARK  status: ('A' for Active; 'I' for Inactive)
REMARK    1  A    between atoms: C_1  and  O_2
REMARK    2  A    between atoms: C_1  and  C_4
REMARK    3  A    between atoms: C_1  and  C_15
REMARK    4  A    between atoms: C_4  and  O_5
REMARK    5  A    between atoms: C_4  and  C_7
REMARK    6  A    between atoms: C_7  and  C_8
REMARK    7  A    between atoms: C_7  and  C_12
REMARK    8  A    between atoms: C_12  and  O_13
REMARK    9  A    between atoms: C_15  and  N_16
REMARK   10  A    between atoms: C_15  and  C_20
REMARK   11  A    between atoms: C_20  and  C_21
REMARK                            x       y       z     vdW  Elec       q    Type
REMARK                         _______ _______ _______ _____ _____    ______ ____
ROOT
ATOM      1  C   UNL     1     -36.529  22.269   2.560  0.00  0.00    +0.118 C 
ENDROOT
BRANCH   1   2
ATOM      2  O   UNL     1     -37.876  22.175   3.046  0.00  0.00    -0.384 OA
ATOM      3  H   UNL     1     -37.928  22.568   3.930  0.00  0.00    +0.210 HD
ENDBRANCH   1   2
BRANCH   1   4
ATOM      4  C   UNL     1     -35.642  22.735   3.738  0.00  0.00    +0.146 C 
BRANCH   4   5
ATOM      5  O   UNL     1     -36.249  22.298   4.960  0.00  0.00    -0.382 OA
ATOM      6  H   UNL     1     -36.361  21.334   4.938  0.00  0.00    +0.210 HD
ENDBRANCH   4   5
BRANCH   4   7
ATOM      7  C   UNL     1     -35.348  24.255   3.810  0.00  0.00    +0.128 C 
BRANCH   7   8
ATOM      8  C   UNL     1     -35.320  24.974   2.428  0.00  0.00    +0.013 C 
ATOM      9  C   UNL     1     -34.127  24.536   1.572  0.00  0.00    +0.001 C 
ATOM     10  C   UNL     1     -35.265  26.500   2.600  0.00  0.00    +0.001 C 
ENDBRANCH   7   8
BRANCH   7  12
ATOM     11  O   UNL     1     -35.924  25.530   5.792  0.00  0.00    -0.250 OA
ATOM     12  C   UNL     1     -36.300  24.956   4.777  0.00  0.00    +0.316 C 
BRANCH  12  13
ATOM     13  O   UNL     1     -37.605  24.887   4.420  0.00  0.00    -0.480 OA
ATOM     14  H   UNL     1     -38.273  25.091   5.046  0.00  0.00    +0.295 HD
ENDBRANCH  12  13
ENDBRANCH   7  12
ENDBRANCH   4   7
ENDBRANCH   1   4
BRANCH   1  15
ATOM     15  C   UNL     1     -36.115  20.928   1.900  0.00  0.00    -0.036 C 
BRANCH  15  16
ATOM     16  N   UNL     1     -37.018  19.886   2.406  0.00  0.00    +0.383 N 
ATOM     17  H   UNL     1     -37.963  20.059   2.062  0.00  0.00    -0.089 HD
ATOM     18  H   UNL     1     -37.019  19.903   3.425  0.00  0.00    -0.089 HD
ATOM     19  H   UNL     1     -36.700  18.974   2.081  0.00  0.00    -0.089 HD
ENDBRANCH  15  16
BRANCH  15  20
ATOM     20  C   UNL     1     -34.638  20.547   2.145  0.00  0.00    -0.019 C 
BRANCH  20  21
ATOM     21  C   UNL     1     -33.930  19.815   0.983  0.00  0.00    -0.002 C 
ATOM     22  C   UNL     1     -33.112  18.614   1.460  0.00  0.00    -0.000 C 
ATOM     23  C   UNL     1     -33.016  20.796   0.240  0.00  0.00    -0.000 C 
ENDBRANCH  20  21
ENDBRANCH  15  20
ENDBRANCH   1  15
TORSDOF 11
ENDMDL
MODEL 4
REMARK VINA RESULT:      -4.8      4.089      5.534
REMARK  Name = 20834256
REMARK  11 active torsions:
REMARK  status: ('A' for Active; 'I' for Inactive)
REMARK    1  A    between atoms: C_1  and  O_2
REMARK    2  A    between atoms: C_1  and  C_4
REMARK    3  A    between atoms: C_1  and  C_15
REMARK    4  A    between atoms: C_4  and  O_5
REMARK    5  A    between atoms: C_4  and  C_7
REMARK    6  A    between atoms: C_7  and  C_8
REMARK    7  A    between atoms: C_7  and  C_12
REMARK    8  A    between atoms: C_12  and  O_13
REMARK    9  A    between atoms: C_15  and  N_16
REMARK   10  A    between atoms: C_15  and  C_20
REMARK   11  A    between atoms: C_20  and  C_21
REMARK                            x       y       z     vdW  Elec       q    Type
REMARK                         _______ _______ _______ _____ _____    ______ ____
ROOT
ATOM      1  C   UNL     1     -35.959  20.455   1.831  0.00  0.00    +0.118 C 
ENDROOT
BRANCH   1   2
ATOM      2  O   UNL     1     -36.915  19.635   2.518  0.00  0.00    -0.384 OA
ATOM      3  H   UNL     1     -37.734  20.135   2.649  0.00  0.00    +0.210 HD
ENDBRANCH   1   2
BRANCH   1   4
ATOM      4  C   UNL     1     -35.181  21.257   2.902  0.00  0.00    +0.146 C 
BRANCH   4   5
ATOM      5  O   UNL     1     -35.496  20.714   4.189  0.00  0.00    -0.382 OA
ATOM      6  H   UNL     1     -35.721  19.774   4.097  0.00  0.00    +0.210 HD
ENDBRANCH   4   5
BRANCH   4   7
ATOM      7  C   UNL     1     -35.413  22.789   2.905  0.00  0.00    +0.128 C 
BRANCH   7   8
ATOM      8  C   UNL     1     -35.504  23.433   1.489  0.00  0.00    +0.013 C 
ATOM      9  C   UNL     1     -34.190  23.303   0.710  0.00  0.00    +0.001 C 
ATOM     10  C   UNL     1     -35.873  24.921   1.582  0.00  0.00    +0.001 C 
ENDBRANCH   7   8
BRANCH   7  12
ATOM     11  O   UNL     1     -36.546  23.853   4.769  0.00  0.00    -0.250 OA
ATOM     12  C   UNL     1     -36.623  23.163   3.759  0.00  0.00    +0.316 C 
BRANCH  12  13
ATOM     13  O   UNL     1     -37.798  22.661   3.308  0.00  0.00    -0.480 OA
ATOM     14  H   UNL     1     -38.274  22.044   3.828  0.00  0.00    +0.295 HD
ENDBRANCH  12  13
ENDBRANCH   7  12
ENDBRANCH   4   7
ENDBRANCH   1   4
BRANCH   1  15
ATOM     15  C   UNL     1     -35.091  19.575   0.894  0.00  0.00    -0.036 C 
BRANCH  15  16
ATOM     16  N   UNL     1     -35.886  18.394   0.530  0.00  0.00    +0.383 N 
ATOM     17  H   UNL     1     -36.699  18.329   1.144  0.00  0.00    -0.089 HD
ATOM     18  H   UNL     1     -35.314  17.556   0.633  0.00  0.00    -0.089 HD
ATOM     19  H   UNL     1     -36.196  18.478  -0.437  0.00  0.00    -0.089 HD
ENDBRANCH  15  16
BRANCH  15  20
ATOM     20  C   UNL     1     -33.736  19.161   1.511  0.00  0.00    -0.019 C 
BRANCH  20  21
ATOM     21  C   UNL     1     -32.579  18.944   0.510  0.00  0.00    -0.002 C 
ATOM     22  C   UNL     1     -31.477  18.047   1.075  0.00  0.00    -0.000 C 
ATOM     23  C   UNL     1     -31.985  20.300   0.112  0.00  0.00    -0.000 C 
ENDBRANCH  20  21
ENDBRANCH  15  20
ENDBRANCH   1  15
TORSDOF 11
ENDMDL
MODEL 5
REMARK VINA RESULT:      -4.8      3.155      4.816
REMARK  Name = 20834256
REMARK  11 active torsions:
REMARK  status: ('A' for Active; 'I' for Inactive)
REMARK    1  A    between atoms: C_1  and  O_2
REMARK    2  A    between atoms: C_1  and  C_4
REMARK    3  A    between atoms: C_1  and  C_15
REMARK    4  A    between atoms: C_4  and  O_5
REMARK    5  A    between atoms: C_4  and  C_7
REMARK    6  A    between atoms: C_7  and  C_8
REMARK    7  A    between atoms: C_7  and  C_12
REMARK    8  A    between atoms: C_12  and  O_13
REMARK    9  A    between atoms: C_15  and  N_16
REMARK   10  A    between atoms: C_15  and  C_20
REMARK   11  A    between atoms: C_20  and  C_21
REMARK                            x       y       z     vdW  Elec       q    Type
REMARK                         _______ _______ _______ _____ _____    ______ ____
ROOT
ATOM      1  C   UNL     1     -35.559  22.231   2.366  0.00  0.00    +0.118 C 
ENDROOT
BRANCH   1   2
ATOM      2  O   UNL     1     -35.330  23.140   1.280  0.00  0.00    -0.384 OA
ATOM      3  H   UNL     1     -35.030  22.645   0.502  0.00  0.00    +0.210 HD
ENDBRANCH   1   2
BRANCH   1   4
ATOM      4  C   UNL     1     -36.776  22.758   3.163  0.00  0.00    +0.146 C 
BRANCH   4   5
ATOM      5  O   UNL     1     -37.752  23.238   2.230  0.00  0.00    -0.382 OA
ATOM      6  H   UNL     1     -37.342  23.894   1.644  0.00  0.00    +0.210 HD
ENDBRANCH   4   5
BRANCH   4   7
ATOM      7  C   UNL     1     -36.476  23.850   4.221  0.00  0.00    +0.128 C 
BRANCH   7   8
ATOM      8  C   UNL     1     -35.099  23.698   4.934  0.00  0.00    +0.013 C 
ATOM      9  C   UNL     1     -35.114  22.586   5.989  0.00  0.00    +0.001 C 
ATOM     10  C   UNL     1     -34.681  25.012   5.613  0.00  0.00    +0.001 C 
ENDBRANCH   7   8
BRANCH   7  12
ATOM     11  O   UNL     1     -35.904  25.702   2.762  0.00  0.00    -0.250 OA
ATOM     12  C   UNL     1     -36.640  25.249   3.631  0.00  0.00    +0.316 C 
BRANCH  12  13
ATOM     13  O   UNL     1     -37.670  25.957   4.155  0.00  0.00    -0.480 OA
ATOM     14  H   UNL     1     -38.514  25.560   4.241  0.00  0.00    +0.295 HD
ENDBRANCH  12  13
ENDBRANCH   7  12
ENDBRANCH   4   7
ENDBRANCH   1   4
BRANCH   1  15
ATOM     15  C   UNL     1     -35.693  20.786   1.820  0.00  0.00    -0.036 C 
BRANCH  15  16
ATOM     16  N   UNL     1     -36.949  20.228   2.338  0.00  0.00    +0.383 N 
ATOM     17  H   UNL     1     -37.584  20.044   1.560  0.00  0.00    -0.089 HD
ATOM     18  H   UNL     1     -37.379  20.897   2.977  0.00  0.00    -0.089 HD
ATOM     19  H   UNL     1     -36.757  19.359   2.833  0.00  0.00    -0.089 HD
ENDBRANCH  15  16
BRANCH  15  20
ATOM     20  C   UNL     1     -34.496  19.875   2.176  0.00  0.00    -0.019 C 
BRANCH  20  21
ATOM     21  C   UNL     1     -33.683  19.331   0.980  0.00  0.00    -0.002 C 
ATOM     22  C   UNL     1     -32.682  18.253   1.395  0.00  0.00    -0.000 C 
ATOM     23  C   UNL     1     -32.943  20.486   0.296  0.00  0.00    -0.000 C 
ENDBRANCH  20  21
ENDBRANCH  15  20
ENDBRANCH   1  15
TORSDOF 11
ENDMDL
MODEL 6
REMARK VINA RESULT:      -4.6      4.018      5.498
REMARK  Name = 20834256
REMARK  11 active torsions:
REMARK  status: ('A' for Active; 'I' for Inactive)
REMARK    1  A    between atoms: C_1  and  O_2
REMARK    2  A    between atoms: C_1  and  C_4
REMARK    3  A    between atoms: C_1  and  C_15
REMARK    4  A    between atoms: C_4  and  O_5
REMARK    5  A    between atoms: C_4  and  C_7
REMARK    6  A    between atoms: C_7  and  C_8
REMARK    7  A    between atoms: C_7  and  C_12
REMARK    8  A    between atoms: C_12  and  O_13
REMARK    9  A    between atoms: C_15  and  N_16
REMARK   10  A    between atoms: C_15  and  C_20
REMARK   11  A    between atoms: C_20  and  C_21
REMARK                            x       y       z     vdW  Elec       q    Type
REMARK                         _______ _______ _______ _____ _____    ______ ____
ROOT
ATOM      1  C   UNL     1     -35.601  21.584   3.162  0.00  0.00    +0.118 C 
ENDROOT
BRANCH   1   2
ATOM      2  O   UNL     1     -35.322  20.585   4.153  0.00  0.00    -0.384 OA
ATOM      3  H   UNL     1     -36.079  19.984   4.228  0.00  0.00    +0.210 HD
ENDBRANCH   1   2
BRANCH   1   4
ATOM      4  C   UNL     1     -36.159  20.858   1.915  0.00  0.00    +0.146 C 
BRANCH   4   5
ATOM      5  O   UNL     1     -36.757  19.628   2.340  0.00  0.00    -0.382 OA
ATOM      6  H   UNL     1     -36.100  18.916   2.292  0.00  0.00    +0.210 HD
ENDBRANCH   4   5
BRANCH   4   7
ATOM      7  C   UNL     1     -35.145  20.585   0.776  0.00  0.00    +0.128 C 
BRANCH   7   8
ATOM      8  C   UNL     1     -34.009  21.644   0.654  0.00  0.00    +0.013 C 
ATOM      9  C   UNL     1     -34.532  23.001   0.171  0.00  0.00    +0.001 C 
ATOM     10  C   UNL     1     -32.913  21.170  -0.313  0.00  0.00    +0.001 C 
ENDBRANCH   7   8
BRANCH   7  12
ATOM     11  O   UNL     1     -34.807  18.294   0.050  0.00  0.00    -0.250 OA
ATOM     12  C   UNL     1     -34.573  19.172   0.873  0.00  0.00    +0.316 C 
BRANCH  12  13
ATOM     13  O   UNL     1     -33.784  18.964   1.954  0.00  0.00    -0.480 OA
ATOM     14  H   UNL     1     -33.032  18.410   1.885  0.00  0.00    +0.295 HD
ENDBRANCH  12  13
ENDBRANCH   7  12
ENDBRANCH   4   7
ENDBRANCH   1   4
BRANCH   1  15
ATOM     15  C   UNL     1     -36.520  22.678   3.765  0.00  0.00    -0.036 C 
BRANCH  15  16
ATOM     16  N   UNL     1     -37.803  22.626   3.052  0.00  0.00    +0.383 N 
ATOM     17  H   UNL     1     -38.565  22.781   3.712  0.00  0.00    -0.089 HD
ATOM     18  H   UNL     1     -37.911  21.711   2.616  0.00  0.00    -0.089 HD
ATOM     19  H   UNL     1     -37.823  23.350   2.334  0.00  0.00    -0.089 HD
ENDBRANCH  15  16
BRANCH  15  20
ATOM     20  C   UNL     1     -35.913  24.098   3.708  0.00  0.00    -0.019 C 
BRANCH  20  21
ATOM     21  C   UNL     1     -35.221  24.587   5.000  0.00  0.00    -0.002 C 
ATOM     22  C   UNL     1     -35.214  23.525   6.100  0.00  0.00    -0.000 C 
ATOM     23  C   UNL     1     -35.922  25.851   5.511  0.00  0.00    -0.000 C 
ENDBRANCH  20  21
ENDBRANCH  15  20
ENDBRANCH   1  15
TORSDOF 11
ENDMDL
MODEL 7
REMARK VINA RESULT:      -4.6      3.108      4.532
REMARK  Name = 20834256
REMARK  11 active torsions:
REMARK  status: ('A' for Active; 'I' for Inactive)
REMARK    1  A    between atoms: C_1  and  O_2
REMARK    2  A    between atoms: C_1  and  C_4
REMARK    3  A    between atoms: C_1  and  C_15
REMARK    4  A    between atoms: C_4  and  O_5
REMARK    5  A    between atoms: C_4  and  C_7
REMARK    6  A    between atoms: C_7  and  C_8
REMARK    7  A    between atoms: C_7  and  C_12
REMARK    8  A    between atoms: C_12  and  O_13
REMARK    9  A    between atoms: C_15  and  N_16
REMARK   10  A    between atoms: C_15  and  C_20
REMARK   11  A    between atoms: C_20  and  C_21
REMARK                            x       y       z     vdW  Elec       q    Type
REMARK                         _______ _______ _______ _____ _____    ______ ____
ROOT
ATOM      1  C   UNL     1     -35.051  21.963   4.148  0.00  0.00    +0.118 C 
ENDROOT
BRANCH   1   2
ATOM      2  O   UNL     1     -35.339  20.593   4.459  0.00  0.00    -0.384 OA
ATOM      3  H   UNL     1     -35.915  20.552   5.237  0.00  0.00    +0.210 HD
ENDBRANCH   1   2
BRANCH   1   4
ATOM      4  C   UNL     1     -36.037  22.406   3.042  0.00  0.00    +0.146 C 
BRANCH   4   5
ATOM      5  O   UNL     1     -37.372  22.186   3.514  0.00  0.00    -0.382 OA
ATOM      6  H   UNL     1     -37.656  22.947   4.044  0.00  0.00    +0.210 HD
ENDBRANCH   4   5
BRANCH   4   7
ATOM      7  C   UNL     1     -35.851  21.737   1.656  0.00  0.00    +0.128 C 
BRANCH   7   8
ATOM      8  C   UNL     1     -34.402  21.242   1.367  0.00  0.00    +0.013 C 
ATOM      9  C   UNL     1     -33.772  21.966   0.171  0.00  0.00    +0.001 C 
ATOM     10  C   UNL     1     -34.380  19.731   1.091  0.00  0.00    +0.001 C 
ENDBRANCH   7   8
BRANCH   7  12
ATOM     11  O   UNL     1     -37.565  20.526   0.438  0.00  0.00    -0.250 OA
ATOM     12  C   UNL     1     -36.868  20.618   1.443  0.00  0.00    +0.316 C 
BRANCH  12  13
ATOM     13  O   UNL     1     -36.943  19.731   2.464  0.00  0.00    -0.480 OA
ATOM     14  H   UNL     1     -37.345  19.981   3.273  0.00  0.00    +0.295 HD
ENDBRANCH  12  13
ENDBRANCH   7  12
ENDBRANCH   4   7
ENDBRANCH   1   4
BRANCH   1  15
ATOM     15  C   UNL     1     -35.077  22.811   5.446  0.00  0.00    -0.036 C 
BRANCH  15  16
ATOM     16  N   UNL     1     -36.101  22.240   6.331  0.00  0.00    +0.383 N 
ATOM     17  H   UNL     1     -35.744  22.204   7.286  0.00  0.00    -0.089 HD
ATOM     18  H   UNL     1     -36.332  21.298   6.018  0.00  0.00    -0.089 HD
ATOM     19  H   UNL     1     -36.938  22.822   6.303  0.00  0.00    -0.089 HD
ENDBRANCH  15  16
BRANCH  15  20
ATOM     20  C   UNL     1     -35.336  24.314   5.199  0.00  0.00    -0.019 C 
BRANCH  20  21
ATOM     21  C   UNL     1     -34.086  25.174   4.903  0.00  0.00    -0.002 C 
ATOM     22  C   UNL     1     -33.901  26.306   5.914  0.00  0.00    -0.000 C 
ATOM     23  C   UNL     1     -34.188  25.757   3.490  0.00  0.00    -0.000 C 
ENDBRANCH  20  21
ENDBRANCH  15  20
ENDBRANCH   1  15
TORSDOF 11
ENDMDL
MODEL 8
REMARK VINA RESULT:      -4.4      2.207      4.709
REMARK  Name = 20834256
REMARK  11 active torsions:
REMARK  status: ('A' for Active; 'I' for Inactive)
REMARK    1  A    between atoms: C_1  and  O_2
REMARK    2  A    between atoms: C_1  and  C_4
REMARK    3  A    between atoms: C_1  and  C_15
REMARK    4  A    between atoms: C_4  and  O_5
REMARK    5  A    between atoms: C_4  and  C_7
REMARK    6  A    between atoms: C_7  and  C_8
REMARK    7  A    between atoms: C_7  and  C_12
REMARK    8  A    between atoms: C_12  and  O_13
REMARK    9  A    between atoms: C_15  and  N_16
REMARK   10  A    between atoms: C_15  and  C_20
REMARK   11  A    between atoms: C_20  and  C_21
REMARK                            x       y       z     vdW  Elec       q    Type
REMARK                         _______ _______ _______ _____ _____    ______ ____
ROOT
ATOM      1  C   UNL     1     -36.457  25.771   3.309  0.00  0.00    +0.118 C 
ENDROOT
BRANCH   1   2
ATOM      2  O   UNL     1     -35.731  27.000   3.171  0.00  0.00    -0.384 OA
ATOM      3  H   UNL     1     -35.781  27.500   4.000  0.00  0.00    +0.210 HD
ENDBRANCH   1   2
BRANCH   1   4
ATOM      4  C   UNL     1     -36.537  25.446   4.819  0.00  0.00    +0.146 C 
BRANCH   4   5
ATOM      5  O   UNL     1     -36.768  26.668   5.531  0.00  0.00    -0.382 OA
ATOM      6  H   UNL     1     -35.925  27.132   5.656  0.00  0.00    +0.210 HD
ENDBRANCH   4   5
BRANCH   4   7
ATOM      7  C   UNL     1     -35.316  24.707   5.423  0.00  0.00    +0.128 C 
BRANCH   7   8
ATOM      8  C   UNL     1     -35.080  23.276   4.853  0.00  0.00    +0.013 C 
ATOM      9  C   UNL     1     -36.260  22.790   4.005  0.00  0.00    +0.001 C 
ATOM     10  C   UNL     1     -34.840  22.264   5.984  0.00  0.00    +0.001 C 
ENDBRANCH   7   8
BRANCH   7  12
ATOM     11  O   UNL     1     -33.801  26.484   6.083  0.00  0.00    -0.250 OA
ATOM     12  C   UNL     1     -34.051  25.556   5.321  0.00  0.00    +0.316 C 
BRANCH  12  13
ATOM     13  O   UNL     1     -33.223  25.202   4.309  0.00  0.00    -0.480 OA
ATOM     14  H   UNL     1     -32.349  24.921   4.496  0.00  0.00    +0.295 HD
ENDBRANCH  12  13
ENDBRANCH   7  12
ENDBRANCH   4   7
ENDBRANCH   1   4
BRANCH   1  15
ATOM     15  C   UNL     1     -37.818  25.881   2.575  0.00  0.00    -0.036 C 
BRANCH  15  16
ATOM     16  N   UNL     1     -38.855  26.105   3.591  0.00  0.00    +0.383 N 
ATOM     17  H   UNL     1     -38.727  27.027   4.009  0.00  0.00    -0.089 HD
ATOM     18  H   UNL     1     -38.782  25.390   4.314  0.00  0.00    -0.089 HD
ATOM     19  H   UNL     1     -39.775  26.055   3.155  0.00  0.00    -0.089 HD
ENDBRANCH  15  16
BRANCH  15  20
ATOM     20  C   UNL     1     -38.155  24.649   1.704  0.00  0.00    -0.019 C 
BRANCH  20  21
ATOM     21  C   UNL     1     -39.508  23.964   2.001  0.00  0.00    -0.002 C 
ATOM     22  C   UNL     1     -39.395  22.440   2.044  0.00  0.00    -0.000 C 
ATOM     23  C   UNL     1     -40.534  24.374   0.938  0.00  0.00    -0.000 C 
ENDBRANCH  20  21
ENDBRANCH  15  20
ENDBRANCH   1  15
TORSDOF 11
ENDMDL
MODEL 9
REMARK VINA RESULT:      -4.3      3.138      5.423
REMARK  Name = 20834256
REMARK  11 active torsions:
REMARK  status: ('A' for Active; 'I' for Inactive)
REMARK    1  A    between atoms: C_1  and  O_2
REMARK    2  A    between atoms: C_1  and  C_4
REMARK    3  A    between atoms: C_1  and  C_15
REMARK    4  A    between atoms: C_4  and  O_5
REMARK    5  A    between atoms: C_4  and  C_7
REMARK    6  A    between atoms: C_7  and  C_8
REMARK    7  A    between atoms: C_7  and  C_12
REMARK    8  A    between atoms: C_12  and  O_13
REMARK    9  A    between atoms: C_15  and  N_16
REMARK   10  A    between atoms: C_15  and  C_20
REMARK   11  A    between atoms: C_20  and  C_21
REMARK                            x       y       z     vdW  Elec       q    Type
REMARK                         _______ _______ _______ _____ _____    ______ ____
ROOT
ATOM      1  C   UNL     1     -37.276  22.276   2.888  0.00  0.00    +0.118 C 
ENDROOT
BRANCH   1   2
ATOM      2  O   UNL     1     -36.992  20.903   2.584  0.00  0.00    -0.384 OA
ATOM      3  H   UNL     1     -37.822  20.407   2.523  0.00  0.00    +0.210 HD
ENDBRANCH   1   2
BRANCH   1   4
ATOM      4  C   UNL     1     -35.925  23.026   2.956  0.00  0.00    +0.146 C 
BRANCH   4   5
ATOM      5  O   UNL     1     -34.991  22.349   2.107  0.00  0.00    -0.382 OA
ATOM      6  H   UNL     1     -35.439  22.067   1.294  0.00  0.00    +0.210 HD
ENDBRANCH   4   5
BRANCH   4   7
ATOM      7  C   UNL     1     -35.317  23.206   4.370  0.00  0.00    +0.128 C 
BRANCH   7   8
ATOM      8  C   UNL     1     -35.849  24.446   5.150  0.00  0.00    +0.013 C 
ATOM      9  C   UNL     1     -36.746  25.334   4.280  0.00  0.00    +0.001 C 
ATOM     10  C   UNL     1     -34.690  25.299   5.688  0.00  0.00    +0.001 C 
ENDBRANCH   7   8
BRANCH   7  12
ATOM     11  O   UNL     1     -34.996  20.850   4.854  0.00  0.00    -0.250 OA
ATOM     12  C   UNL     1     -35.459  21.932   5.199  0.00  0.00    +0.316 C 
BRANCH  12  13
ATOM     13  O   UNL     1     -36.150  22.093   6.353  0.00  0.00    -0.480 OA
ATOM     14  H   UNL     1     -36.872  22.691   6.387  0.00  0.00    +0.295 HD
ENDBRANCH  12  13
ENDBRANCH   7  12
ENDBRANCH   4   7
ENDBRANCH   1   4
BRANCH   1  15
ATOM     15  C   UNL     1     -38.301  22.836   1.869  0.00  0.00    -0.036 C 
BRANCH  15  16
ATOM     16  N   UNL     1     -37.598  23.803   1.016  0.00  0.00    +0.383 N 
ATOM     17  H   UNL     1     -38.177  24.635   0.897  0.00  0.00    -0.089 HD
ATOM     18  H   UNL     1     -37.415  23.383   0.105  0.00  0.00    -0.089 HD
ATOM     19  H   UNL     1     -36.715  24.064   1.454  0.00  0.00    -0.089 HD
ENDBRANCH  15  16
BRANCH  15  20
ATOM     20  C   UNL     1     -39.542  23.480   2.527  0.00  0.00    -0.019 C 
BRANCH  20  21
ATOM     21  C   UNL     1     -40.015  24.816   1.912  0.00  0.00    -0.002 C 
ATOM     22  C   UNL     1     -40.272  25.889   2.970  0.00  0.00    -0.000 C 
ATOM     23  C   UNL     1     -41.291  24.582   1.096  0.00  0.00    -0.000 C 
ENDBRANCH  20  21
ENDBRANCH  15  20
ENDBRANCH   1  15
TORSDOF 11
ENDMDL
