MODEL 1
REMARK VINA RESULT:      -5.6      0.000      0.000
REMARK  Name = 558754
REMARK  8 active torsions:
REMARK  status: ('A' for Active; 'I' for Inactive)
REMARK    1  A    between atoms: N_2  and  C_5
REMARK    2  A    between atoms: C_3  and  C_14
REMARK    3  A    between atoms: C_8  and  N_13
REMARK    4  A    between atoms: C_14  and  C_15
REMARK    5  A    between atoms: C_15  and  CA_16
REMARK    6  A    between atoms: CA_16  and  N_17
REMARK    7  A    between atoms: CA_16  and  C_22
REMARK    8  A    between atoms: C_22  and  O_23
REMARK                            x       y       z     vdW  Elec       q    Type
REMARK                         _______ _______ _______ _____ _____    ______ ____
ROOT
ATOM      1  O   UNL     1     -31.907  26.992   6.737  0.00  0.00    -0.275 OA
ATOM      2  N   UNL     1     -33.306  27.585   4.947  0.00  0.00    -0.284 N 
ATOM      3  C   UNL     1     -32.338  27.802   5.923  0.00  0.00    +0.226 C 
ATOM      4  H   UNL     1     -33.512  28.348   4.362  0.00  0.00    +0.155 HD
ENDROOT
BRANCH   2   5
ATOM      5  C   UNL     1     -34.027  26.392   4.698  0.00  0.00    +0.050 C 
ATOM      6  C   UNL     1     -33.763  25.670   3.547  0.00  0.00    +0.016 C 
ATOM      7  C   UNL     1     -34.981  25.974   5.612  0.00  0.00    +0.016 C 
ATOM      8  C   UNL     1     -35.438  24.059   4.211  0.00  0.00    +0.143 C 
ATOM      9  C   UNL     1     -34.474  24.495   3.302  0.00  0.00    +0.025 C 
ATOM     10  C   UNL     1     -35.691  24.799   5.366  0.00  0.00    +0.025 C 
BRANCH   8  13
ATOM     11  O   UNL     1     -37.357  22.943   3.591  0.00  0.00    -0.126 OA
ATOM     12  O   UNL     1     -35.585  21.760   4.118  0.00  0.00    -0.126 OA
ATOM     13  N   UNL     1     -36.161  22.864   3.961  0.00  0.00    +0.058 N 
ENDBRANCH   8  13
ENDBRANCH   2   5
BRANCH   3  14
ATOM     14  C   UNL     1     -31.809  29.229   5.849  0.00  0.00    +0.084 C 
BRANCH  14  15
ATOM     15  C   UNL     1     -30.838  29.588   6.976  0.00  0.00    -0.001 C 
BRANCH  15  16
ATOM     16  CA  UNL     1     -29.357  29.533   6.571  0.00  0.00    +0.036 C 
BRANCH  16  17
ATOM     17  N   UNL     1     -29.236  29.205   5.147  0.00  0.00    +0.389 N 
ATOM     18  H1  UNL     1     -30.164  29.064   4.751  0.00  0.00    -0.088 HD
ATOM     19  H2  UNL     1     -28.688  28.351   5.042  0.00  0.00    -0.088 HD
ATOM     20  H3  UNL     1     -28.770  29.970   4.661  0.00  0.00    -0.088 HD
ENDBRANCH  16  17
BRANCH  16  22
ATOM     21  OXT UNL     1     -27.745  28.652   8.173  0.00  0.00    -0.253 OA
ATOM     22  C   UNL     1     -28.610  28.450   7.329  0.00  0.00    +0.293 C 
BRANCH  22  23
ATOM     23  O   UNL     1     -29.025  27.202   6.987  0.00  0.00    -0.482 OA
ATOM     24  H   UNL     1     -28.417  26.590   6.623  0.00  0.00    +0.295 HD
ENDBRANCH  22  23
ENDBRANCH  16  22
ENDBRANCH  15  16
ENDBRANCH  14  15
ENDBRANCH   3  14
TORSDOF 8
ENDMDL
MODEL 2
REMARK VINA RESULT:      -5.4      1.266      1.723
REMARK  Name = 558754
REMARK  8 active torsions:
REMARK  status: ('A' for Active; 'I' for Inactive)
REMARK    1  A    between atoms: N_2  and  C_5
REMARK    2  A    between atoms: C_3  and  C_14
REMARK    3  A    between atoms: C_8  and  N_13
REMARK    4  A    between atoms: C_14  and  C_15
REMARK    5  A    between atoms: C_15  and  CA_16
REMARK    6  A    between atoms: CA_16  and  N_17
REMARK    7  A    between atoms: CA_16  and  C_22
REMARK    8  A    between atoms: C_22  and  O_23
REMARK                            x       y       z     vdW  Elec       q    Type
REMARK                         _______ _______ _______ _____ _____    ______ ____
ROOT
ATOM      1  O   UNL     1     -32.384  27.415   4.483  0.00  0.00    -0.275 OA
ATOM      2  N   UNL     1     -33.784  26.541   6.153  0.00  0.00    -0.284 N 
ATOM      3  C   UNL     1     -32.743  27.317   5.652  0.00  0.00    +0.226 C 
ATOM      4  H   UNL     1     -33.946  26.604   7.122  0.00  0.00    +0.155 HD
ENDROOT
BRANCH   2   5
ATOM      5  C   UNL     1     -34.637  25.672   5.431  0.00  0.00    +0.050 C 
ATOM      6  C   UNL     1     -35.968  26.012   5.268  0.00  0.00    +0.016 C 
ATOM      7  C   UNL     1     -34.120  24.500   4.904  0.00  0.00    +0.016 C 
ATOM      8  C   UNL     1     -36.305  23.972   4.019  0.00  0.00    +0.143 C 
ATOM      9  C   UNL     1     -36.809  25.156   4.556  0.00  0.00    +0.025 C 
ATOM     10  C   UNL     1     -34.961  23.644   4.192  0.00  0.00    +0.025 C 
BRANCH   8  13
ATOM     11  O   UNL     1     -38.364  23.418   3.142  0.00  0.00    -0.126 OA
ATOM     12  O   UNL     1     -36.689  22.035   2.827  0.00  0.00    -0.126 OA
ATOM     13  N   UNL     1     -37.160  23.100   3.295  0.00  0.00    +0.058 N 
ENDBRANCH   8  13
ENDBRANCH   2   5
BRANCH   3  14
ATOM     14  C   UNL     1     -32.077  28.111   6.769  0.00  0.00    +0.084 C 
BRANCH  14  15
ATOM     15  C   UNL     1     -31.650  29.522   6.356  0.00  0.00    -0.001 C 
BRANCH  15  16
ATOM     16  CA  UNL     1     -30.180  29.634   5.928  0.00  0.00    +0.036 C 
BRANCH  16  17
ATOM     17  N   UNL     1     -30.059  29.424   4.481  0.00  0.00    +0.389 N 
ATOM     18  H1  UNL     1     -30.125  28.428   4.276  0.00  0.00    -0.088 HD
ATOM     19  H2  UNL     1     -29.159  29.780   4.161  0.00  0.00    -0.088 HD
ATOM     20  H3  UNL     1     -30.810  29.921   4.003  0.00  0.00    -0.088 HD
ENDBRANCH  16  17
BRANCH  16  22
ATOM     21  OXT UNL     1     -28.981  27.517   6.070  0.00  0.00    -0.253 OA
ATOM     22  C   UNL     1     -29.321  28.572   6.591  0.00  0.00    +0.293 C 
BRANCH  22  23
ATOM     23  O   UNL     1     -28.936  28.928   7.844  0.00  0.00    -0.482 OA
ATOM     24  H   UNL     1     -29.538  29.365   8.413  0.00  0.00    +0.295 HD
ENDBRANCH  22  23
ENDBRANCH  16  22
ENDBRANCH  15  16
ENDBRANCH  14  15
ENDBRANCH   3  14
TORSDOF 8
ENDMDL
MODEL 3
REMARK VINA RESULT:      -5.3      4.004      6.593
REMARK  Name = 558754
REMARK  8 active torsions:
REMARK  status: ('A' for Active; 'I' for Inactive)
REMARK    1  A    between atoms: N_2  and  C_5
REMARK    2  A    between atoms: C_3  and  C_14
REMARK    3  A    between atoms: C_8  and  N_13
REMARK    4  A    between atoms: C_14  and  C_15
REMARK    5  A    between atoms: C_15  and  CA_16
REMARK    6  A    between atoms: CA_16  and  N_17
REMARK    7  A    between atoms: CA_16  and  C_22
REMARK    8  A    between atoms: C_22  and  O_23
REMARK                            x       y       z     vdW  Elec       q    Type
REMARK                         _______ _______ _______ _____ _____    ______ ____
ROOT
ATOM      1  O   UNL     1     -35.180  20.667   5.478  0.00  0.00    -0.275 OA
ATOM      2  N   UNL     1     -35.579  22.058   3.629  0.00  0.00    -0.284 N 
ATOM      3  C   UNL     1     -35.342  21.772   4.970  0.00  0.00    +0.226 C 
ATOM      4  H   UNL     1     -35.660  23.010   3.395  0.00  0.00    +0.155 HD
ENDROOT
BRANCH   2   5
ATOM      5  C   UNL     1     -35.715  21.138   2.562  0.00  0.00    +0.050 C 
ATOM      6  C   UNL     1     -36.935  21.024   1.918  0.00  0.00    +0.016 C 
ATOM      7  C   UNL     1     -34.625  20.371   2.185  0.00  0.00    +0.016 C 
ATOM      8  C   UNL     1     -35.982  19.338   0.474  0.00  0.00    +0.143 C 
ATOM      9  C   UNL     1     -37.069  20.117   0.866  0.00  0.00    +0.025 C 
ATOM     10  C   UNL     1     -34.760  19.464   1.133  0.00  0.00    +0.025 C 
BRANCH   8  13
ATOM     11  O   UNL     1     -37.052  17.576  -0.561  0.00  0.00    -0.126 OA
ATOM     12  O   UNL     1     -35.303  18.462  -1.549  0.00  0.00    -0.126 OA
ATOM     13  N   UNL     1     -36.119  18.415  -0.596  0.00  0.00    +0.058 N 
ENDBRANCH   8  13
ENDBRANCH   2   5
BRANCH   3  14
ATOM     14  C   UNL     1     -35.263  23.054   5.788  0.00  0.00    +0.084 C 
BRANCH  14  15
ATOM     15  C   UNL     1     -35.858  24.276   5.083  0.00  0.00    -0.001 C 
BRANCH  15  16
ATOM     16  CA  UNL     1     -35.482  25.619   5.727  0.00  0.00    +0.036 C 
BRANCH  16  17
ATOM     17  N   UNL     1     -36.317  26.692   5.178  0.00  0.00    +0.389 N 
ATOM     18  H1  UNL     1     -37.132  26.287   4.718  0.00  0.00    -0.088 HD
ATOM     19  H2  UNL     1     -35.777  27.230   4.502  0.00  0.00    -0.088 HD
ATOM     20  H3  UNL     1     -36.623  27.305   5.934  0.00  0.00    -0.088 HD
ENDBRANCH  16  17
BRANCH  16  22
ATOM     21  OXT UNL     1     -33.421  25.669   4.427  0.00  0.00    -0.253 OA
ATOM     22  C   UNL     1     -34.042  25.998   5.430  0.00  0.00    +0.293 C 
BRANCH  22  23
ATOM     23  O   UNL     1     -33.504  26.780   6.402  0.00  0.00    -0.482 OA
ATOM     24  H   UNL     1     -34.063  27.260   6.981  0.00  0.00    +0.295 HD
ENDBRANCH  22  23
ENDBRANCH  16  22
ENDBRANCH  15  16
ENDBRANCH  14  15
ENDBRANCH   3  14
TORSDOF 8
ENDMDL
MODEL 4
REMARK VINA RESULT:      -5.3      4.030      6.607
REMARK  Name = 558754
REMARK  8 active torsions:
REMARK  status: ('A' for Active; 'I' for Inactive)
REMARK    1  A    between atoms: N_2  and  C_5
REMARK    2  A    between atoms: C_3  and  C_14
REMARK    3  A    between atoms: C_8  and  N_13
REMARK    4  A    between atoms: C_14  and  C_15
REMARK    5  A    between atoms: C_15  and  CA_16
REMARK    6  A    between atoms: CA_16  and  N_17
REMARK    7  A    between atoms: CA_16  and  C_22
REMARK    8  A    between atoms: C_22  and  O_23
REMARK                            x       y       z     vdW  Elec       q    Type
REMARK                         _______ _______ _______ _____ _____    ______ ____
ROOT
ATOM      1  O   UNL     1     -35.164  20.633   5.498  0.00  0.00    -0.275 OA
ATOM      2  N   UNL     1     -35.609  22.020   3.657  0.00  0.00    -0.284 N 
ATOM      3  C   UNL     1     -35.367  21.734   4.997  0.00  0.00    +0.226 C 
ATOM      4  H   UNL     1     -35.727  22.970   3.429  0.00  0.00    +0.155 HD
ENDROOT
BRANCH   2   5
ATOM      5  C   UNL     1     -35.702  21.103   2.583  0.00  0.00    +0.050 C 
ATOM      6  C   UNL     1     -34.582  20.378   2.212  0.00  0.00    +0.016 C 
ATOM      7  C   UNL     1     -36.912  20.949   1.926  0.00  0.00    +0.016 C 
ATOM      8  C   UNL     1     -35.884  19.308   0.481  0.00  0.00    +0.143 C 
ATOM      9  C   UNL     1     -34.674  19.475   1.153  0.00  0.00    +0.025 C 
ATOM     10  C   UNL     1     -37.003  20.045   0.867  0.00  0.00    +0.025 C 
BRANCH   8  13
ATOM     11  O   UNL     1     -35.404  18.659  -1.679  0.00  0.00    -0.126 OA
ATOM     12  O   UNL     1     -36.631  17.328  -0.437  0.00  0.00    -0.126 OA
ATOM     13  N   UNL     1     -35.978  18.388  -0.596  0.00  0.00    +0.058 N 
ENDBRANCH   8  13
ENDBRANCH   2   5
BRANCH   3  14
ATOM     14  C   UNL     1     -35.345  23.013   5.825  0.00  0.00    +0.084 C 
BRANCH  14  15
ATOM     15  C   UNL     1     -35.911  24.233   5.093  0.00  0.00    -0.001 C 
BRANCH  15  16
ATOM     16  CA  UNL     1     -35.432  25.580   5.655  0.00  0.00    +0.036 C 
BRANCH  16  17
ATOM     17  N   UNL     1     -36.325  26.656   5.212  0.00  0.00    +0.389 N 
ATOM     18  H1  UNL     1     -37.201  26.255   4.879  0.00  0.00    -0.088 HD
ATOM     19  H2  UNL     1     -35.879  27.177   4.457  0.00  0.00    -0.088 HD
ATOM     20  H3  UNL     1     -36.514  27.284   5.993  0.00  0.00    -0.088 HD
ENDBRANCH  16  17
BRANCH  16  22
ATOM     21  OXT UNL     1     -33.415  25.299   4.316  0.00  0.00    -0.253 OA
ATOM     22  C   UNL     1     -34.045  25.936   5.152  0.00  0.00    +0.293 C 
BRANCH  22  23
ATOM     23  O   UNL     1     -33.568  27.076   5.717  0.00  0.00    -0.482 OA
ATOM     24  H   UNL     1     -34.160  27.693   6.099  0.00  0.00    +0.295 HD
ENDBRANCH  22  23
ENDBRANCH  16  22
ENDBRANCH  15  16
ENDBRANCH  14  15
ENDBRANCH   3  14
TORSDOF 8
ENDMDL
MODEL 5
REMARK VINA RESULT:      -5.2      3.564      8.707
REMARK  Name = 558754
REMARK  8 active torsions:
REMARK  status: ('A' for Active; 'I' for Inactive)
REMARK    1  A    between atoms: N_2  and  C_5
REMARK    2  A    between atoms: C_3  and  C_14
REMARK    3  A    between atoms: C_8  and  N_13
REMARK    4  A    between atoms: C_14  and  C_15
REMARK    5  A    between atoms: C_15  and  CA_16
REMARK    6  A    between atoms: CA_16  and  N_17
REMARK    7  A    between atoms: CA_16  and  C_22
REMARK    8  A    between atoms: C_22  and  O_23
REMARK                            x       y       z     vdW  Elec       q    Type
REMARK                         _______ _______ _______ _____ _____    ______ ____
ROOT
ATOM      1  O   UNL     1     -38.133  24.205   1.790  0.00  0.00    -0.275 OA
ATOM      2  N   UNL     1     -37.170  23.038   3.586  0.00  0.00    -0.284 N 
ATOM      3  C   UNL     1     -38.030  23.214   2.506  0.00  0.00    +0.226 C 
ATOM      4  H   UNL     1     -37.208  22.163   4.033  0.00  0.00    +0.155 HD
ENDROOT
BRANCH   2   5
ATOM      5  C   UNL     1     -36.245  23.971   4.113  0.00  0.00    +0.050 C 
ATOM      6  C   UNL     1     -36.716  25.062   4.823  0.00  0.00    +0.016 C 
ATOM      7  C   UNL     1     -34.890  23.773   3.907  0.00  0.00    +0.016 C 
ATOM      8  C   UNL     1     -34.437  25.798   5.145  0.00  0.00    +0.143 C 
ATOM      9  C   UNL     1     -35.805  25.982   5.343  0.00  0.00    +0.025 C 
ATOM     10  C   UNL     1     -33.979  24.693   4.427  0.00  0.00    +0.025 C 
BRANCH   8  13
ATOM     11  O   UNL     1     -33.218  27.749   4.996  0.00  0.00    -0.126 OA
ATOM     12  O   UNL     1     -33.007  26.521   6.804  0.00  0.00    -0.126 OA
ATOM     13  N   UNL     1     -33.510  26.734   5.673  0.00  0.00    +0.058 N 
ENDBRANCH   8  13
ENDBRANCH   2   5
BRANCH   3  14
ATOM     14  C   UNL     1     -38.859  21.958   2.268  0.00  0.00    +0.084 C 
BRANCH  14  15
ATOM     15  C   UNL     1     -38.580  21.278   0.926  0.00  0.00    -0.001 C 
BRANCH  15  16
ATOM     16  CA  UNL     1     -37.092  21.019   0.650  0.00  0.00    +0.036 C 
BRANCH  16  17
ATOM     17  N   UNL     1     -36.919  20.460  -0.695  0.00  0.00    +0.389 N 
ATOM     18  H1  UNL     1     -36.612  21.194  -1.331  0.00  0.00    -0.088 HD
ATOM     19  H2  UNL     1     -37.806  20.077  -1.020  0.00  0.00    -0.088 HD
ATOM     20  H3  UNL     1     -36.219  19.718  -0.667  0.00  0.00    -0.088 HD
ENDBRANCH  16  17
BRANCH  16  22
ATOM     21  OXT UNL     1     -35.905  20.277   2.645  0.00  0.00    -0.253 OA
ATOM     22  C   UNL     1     -36.512  20.003   1.618  0.00  0.00    +0.293 C 
BRANCH  22  23
ATOM     23  O   UNL     1     -36.762  18.724   1.233  0.00  0.00    -0.482 OA
ATOM     24  H   UNL     1     -36.762  18.499   0.324  0.00  0.00    +0.295 HD
ENDBRANCH  22  23
ENDBRANCH  16  22
ENDBRANCH  15  16
ENDBRANCH  14  15
ENDBRANCH   3  14
TORSDOF 8
ENDMDL
MODEL 6
REMARK VINA RESULT:      -5.2      5.616      7.528
REMARK  Name = 558754
REMARK  8 active torsions:
REMARK  status: ('A' for Active; 'I' for Inactive)
REMARK    1  A    between atoms: N_2  and  C_5
REMARK    2  A    between atoms: C_3  and  C_14
REMARK    3  A    between atoms: C_8  and  N_13
REMARK    4  A    between atoms: C_14  and  C_15
REMARK    5  A    between atoms: C_15  and  CA_16
REMARK    6  A    between atoms: CA_16  and  N_17
REMARK    7  A    between atoms: CA_16  and  C_22
REMARK    8  A    between atoms: C_22  and  O_23
REMARK                            x       y       z     vdW  Elec       q    Type
REMARK                         _______ _______ _______ _____ _____    ______ ____
ROOT
ATOM      1  O   UNL     1     -35.258  21.022   5.187  0.00  0.00    -0.275 OA
ATOM      2  N   UNL     1     -35.332  22.199   3.157  0.00  0.00    -0.284 N 
ATOM      3  C   UNL     1     -35.145  22.050   4.528  0.00  0.00    +0.226 C 
ATOM      4  H   UNL     1     -35.174  23.099   2.792  0.00  0.00    +0.155 HD
ENDROOT
BRANCH   2   5
ATOM      5  C   UNL     1     -35.721  21.206   2.226  0.00  0.00    +0.050 C 
ATOM      6  C   UNL     1     -37.019  21.201   1.745  0.00  0.00    +0.016 C 
ATOM      7  C   UNL     1     -34.795  20.261   1.818  0.00  0.00    +0.016 C 
ATOM      8  C   UNL     1     -36.483  19.263   0.406  0.00  0.00    +0.143 C 
ATOM      9  C   UNL     1     -37.402  20.222   0.829  0.00  0.00    +0.025 C 
ATOM     10  C   UNL     1     -35.179  19.282   0.901  0.00  0.00    +0.025 C 
BRANCH   8  13
ATOM     11  O   UNL     1     -37.451  17.235  -0.108  0.00  0.00    -0.126 OA
ATOM     12  O   UNL     1     -36.630  18.445  -1.745  0.00  0.00    -0.126 OA
ATOM     13  N   UNL     1     -36.873  18.266  -0.527  0.00  0.00    +0.058 N 
ENDBRANCH   8  13
ENDBRANCH   2   5
BRANCH   3  14
ATOM     14  C   UNL     1     -34.725  23.371   5.161  0.00  0.00    +0.084 C 
BRANCH  14  15
ATOM     15  C   UNL     1     -35.900  24.257   5.581  0.00  0.00    -0.001 C 
BRANCH  15  16
ATOM     16  CA  UNL     1     -36.245  25.365   4.575  0.00  0.00    +0.036 C 
BRANCH  16  17
ATOM     17  N   UNL     1     -36.426  26.642   5.273  0.00  0.00    +0.389 N 
ATOM     18  H1  UNL     1     -36.583  27.383   4.591  0.00  0.00    -0.088 HD
ATOM     19  H2  UNL     1     -35.590  26.852   5.817  0.00  0.00    -0.088 HD
ATOM     20  H3  UNL     1     -37.230  26.576   5.897  0.00  0.00    -0.088 HD
ENDBRANCH  16  17
BRANCH  16  22
ATOM     21  OXT UNL     1     -37.966  23.962   3.571  0.00  0.00    -0.253 OA
ATOM     22  C   UNL     1     -37.549  25.079   3.852  0.00  0.00    +0.293 C 
BRANCH  22  23
ATOM     23  O   UNL     1     -38.237  26.214   3.563  0.00  0.00    -0.482 OA
ATOM     24  H   UNL     1     -38.245  26.925   4.172  0.00  0.00    +0.295 HD
ENDBRANCH  22  23
ENDBRANCH  16  22
ENDBRANCH  15  16
ENDBRANCH  14  15
ENDBRANCH   3  14
TORSDOF 8
ENDMDL
MODEL 7
REMARK VINA RESULT:      -5.2      5.692      8.852
REMARK  Name = 558754
REMARK  8 active torsions:
REMARK  status: ('A' for Active; 'I' for Inactive)
REMARK    1  A    between atoms: N_2  and  C_5
REMARK    2  A    between atoms: C_3  and  C_14
REMARK    3  A    between atoms: C_8  and  N_13
REMARK    4  A    between atoms: C_14  and  C_15
REMARK    5  A    between atoms: C_15  and  CA_16
REMARK    6  A    between atoms: CA_16  and  N_17
REMARK    7  A    between atoms: CA_16  and  C_22
REMARK    8  A    between atoms: C_22  and  O_23
REMARK                            x       y       z     vdW  Elec       q    Type
REMARK                         _______ _______ _______ _____ _____    ______ ____
ROOT
ATOM      1  O   UNL     1     -35.534  20.324   3.172  0.00  0.00    -0.275 OA
ATOM      2  N   UNL     1     -34.613  20.613   1.031  0.00  0.00    -0.284 N 
ATOM      3  C   UNL     1     -35.288  21.007   2.183  0.00  0.00    +0.226 C 
ATOM      4  H   UNL     1     -34.485  21.305   0.344  0.00  0.00    +0.155 HD
ENDROOT
BRANCH   2   5
ATOM      5  C   UNL     1     -34.089  19.332   0.735  0.00  0.00    +0.050 C 
ATOM      6  C   UNL     1     -32.811  19.009   1.158  0.00  0.00    +0.016 C 
ATOM      7  C   UNL     1     -34.866  18.429   0.027  0.00  0.00    +0.016 C 
ATOM      8  C   UNL     1     -33.063  16.826   0.154  0.00  0.00    +0.143 C 
ATOM      9  C   UNL     1     -32.295  17.746   0.865  0.00  0.00    +0.025 C 
ATOM     10  C   UNL     1     -34.349  17.167  -0.266  0.00  0.00    +0.025 C 
BRANCH   8  13
ATOM     11  O   UNL     1     -31.457  15.188   0.387  0.00  0.00    -0.126 OA
ATOM     12  O   UNL     1     -33.168  14.793  -0.931  0.00  0.00    -0.126 OA
ATOM     13  N   UNL     1     -32.537  15.541  -0.144  0.00  0.00    +0.058 N 
ENDBRANCH   8  13
ENDBRANCH   2   5
BRANCH   3  14
ATOM     14  C   UNL     1     -35.683  22.476   2.099  0.00  0.00    +0.084 C 
BRANCH  14  15
ATOM     15  C   UNL     1     -36.606  22.934   3.232  0.00  0.00    -0.001 C 
BRANCH  15  16
ATOM     16  CA  UNL     1     -35.867  23.405   4.493  0.00  0.00    +0.036 C 
BRANCH  16  17
ATOM     17  N   UNL     1     -36.082  22.454   5.588  0.00  0.00    +0.389 N 
ATOM     18  H1  UNL     1     -35.695  21.547   5.331  0.00  0.00    -0.088 HD
ATOM     19  H2  UNL     1     -37.082  22.360   5.764  0.00  0.00    -0.088 HD
ATOM     20  H3  UNL     1     -35.619  22.795   6.430  0.00  0.00    -0.088 HD
ENDBRANCH  16  17
BRANCH  16  22
ATOM     21  OXT UNL     1     -35.775  25.516   5.708  0.00  0.00    -0.253 OA
ATOM     22  C   UNL     1     -36.387  24.747   4.978  0.00  0.00    +0.293 C 
BRANCH  22  23
ATOM     23  O   UNL     1     -37.622  25.028   4.487  0.00  0.00    -0.482 OA
ATOM     24  H   UNL     1     -38.383  24.861   5.008  0.00  0.00    +0.295 HD
ENDBRANCH  22  23
ENDBRANCH  16  22
ENDBRANCH  15  16
ENDBRANCH  14  15
ENDBRANCH   3  14
TORSDOF 8
ENDMDL
MODEL 8
REMARK VINA RESULT:      -5.2      5.549      7.506
REMARK  Name = 558754
REMARK  8 active torsions:
REMARK  status: ('A' for Active; 'I' for Inactive)
REMARK    1  A    between atoms: N_2  and  C_5
REMARK    2  A    between atoms: C_3  and  C_14
REMARK    3  A    between atoms: C_8  and  N_13
REMARK    4  A    between atoms: C_14  and  C_15
REMARK    5  A    between atoms: C_15  and  CA_16
REMARK    6  A    between atoms: CA_16  and  N_17
REMARK    7  A    between atoms: CA_16  and  C_22
REMARK    8  A    between atoms: C_22  and  O_23
REMARK                            x       y       z     vdW  Elec       q    Type
REMARK                         _______ _______ _______ _____ _____    ______ ____
ROOT
ATOM      1  O   UNL     1     -36.263  25.989   3.085  0.00  0.00    -0.275 OA
ATOM      2  N   UNL     1     -37.953  24.792   4.190  0.00  0.00    -0.284 N 
ATOM      3  C   UNL     1     -36.692  25.362   4.048  0.00  0.00    +0.226 C 
ATOM      4  H   UNL     1     -38.133  24.343   5.047  0.00  0.00    +0.155 HD
ENDROOT
BRANCH   2   5
ATOM      5  C   UNL     1     -39.006  24.782   3.244  0.00  0.00    +0.050 C 
ATOM      6  C   UNL     1     -39.794  25.911   3.097  0.00  0.00    +0.016 C 
ATOM      7  C   UNL     1     -39.227  23.643   2.487  0.00  0.00    +0.016 C 
ATOM      8  C   UNL     1     -41.067  24.764   1.395  0.00  0.00    +0.143 C 
ATOM      9  C   UNL     1     -40.832  25.901   2.165  0.00  0.00    +0.025 C 
ATOM     10  C   UNL     1     -40.265  23.634   1.555  0.00  0.00    +0.025 C 
BRANCH   8  13
ATOM     11  O   UNL     1     -42.555  25.846   0.005  0.00  0.00    -0.126 OA
ATOM     12  O   UNL     1     -42.599  23.653   0.075  0.00  0.00    -0.126 OA
ATOM     13  N   UNL     1     -42.124  24.754   0.447  0.00  0.00    +0.058 N 
ENDBRANCH   8  13
ENDBRANCH   2   5
BRANCH   3  14
ATOM     14  C   UNL     1     -35.859  25.147   5.305  0.00  0.00    +0.084 C 
BRANCH  14  15
ATOM     15  C   UNL     1     -34.891  23.964   5.211  0.00  0.00    -0.001 C 
BRANCH  15  16
ATOM     16  CA  UNL     1     -35.571  22.588   5.288  0.00  0.00    +0.036 C 
BRANCH  16  17
ATOM     17  N   UNL     1     -34.800  21.694   6.158  0.00  0.00    +0.389 N 
ATOM     18  H1  UNL     1     -34.147  22.242   6.716  0.00  0.00    -0.088 HD
ATOM     19  H2  UNL     1     -34.282  21.028   5.585  0.00  0.00    -0.088 HD
ATOM     20  H3  UNL     1     -35.436  21.189   6.775  0.00  0.00    -0.088 HD
ENDBRANCH  16  17
BRANCH  16  22
ATOM     21  OXT UNL     1     -35.903  22.487   2.876  0.00  0.00    -0.253 OA
ATOM     22  C   UNL     1     -35.635  21.919   3.927  0.00  0.00    +0.293 C 
BRANCH  22  23
ATOM     23  O   UNL     1     -35.333  20.595   3.989  0.00  0.00    -0.482 OA
ATOM     24  H   UNL     1     -34.463  20.323   4.204  0.00  0.00    +0.295 HD
ENDBRANCH  22  23
ENDBRANCH  16  22
ENDBRANCH  15  16
ENDBRANCH  14  15
ENDBRANCH   3  14
TORSDOF 8
ENDMDL
MODEL 9
REMARK VINA RESULT:      -5.2      1.468      1.969
REMARK  Name = 558754
REMARK  8 active torsions:
REMARK  status: ('A' for Active; 'I' for Inactive)
REMARK    1  A    between atoms: N_2  and  C_5
REMARK    2  A    between atoms: C_3  and  C_14
REMARK    3  A    between atoms: C_8  and  N_13
REMARK    4  A    between atoms: C_14  and  C_15
REMARK    5  A    between atoms: C_15  and  CA_16
REMARK    6  A    between atoms: CA_16  and  N_17
REMARK    7  A    between atoms: CA_16  and  C_22
REMARK    8  A    between atoms: C_22  and  O_23
REMARK                            x       y       z     vdW  Elec       q    Type
REMARK                         _______ _______ _______ _____ _____    ______ ____
ROOT
ATOM      1  O   UNL     1     -31.279  27.428   3.993  0.00  0.00    -0.275 OA
ATOM      2  N   UNL     1     -33.547  27.776   4.490  0.00  0.00    -0.284 N 
ATOM      3  C   UNL     1     -32.232  28.158   4.242  0.00  0.00    +0.226 C 
ATOM      4  H   UNL     1     -34.189  28.504   4.648  0.00  0.00    +0.155 HD
ENDROOT
BRANCH   2   5
ATOM      5  C   UNL     1     -34.068  26.461   4.540  0.00  0.00    +0.050 C 
ATOM      6  C   UNL     1     -34.524  25.959   5.747  0.00  0.00    +0.016 C 
ATOM      7  C   UNL     1     -34.110  25.704   3.380  0.00  0.00    +0.016 C 
ATOM      8  C   UNL     1     -35.087  23.887   4.637  0.00  0.00    +0.143 C 
ATOM      9  C   UNL     1     -35.037  24.662   5.795  0.00  0.00    +0.025 C 
ATOM     10  C   UNL     1     -34.623  24.408   3.430  0.00  0.00    +0.025 C 
BRANCH   8  13
ATOM     11  O   UNL     1     -35.945  22.089   5.797  0.00  0.00    -0.126 OA
ATOM     12  O   UNL     1     -35.719  21.916   3.620  0.00  0.00    -0.126 OA
ATOM     13  N   UNL     1     -35.608  22.568   4.687  0.00  0.00    +0.058 N 
ENDBRANCH   8  13
ENDBRANCH   2   5
BRANCH   3  14
ATOM     14  C   UNL     1     -32.097  29.676   4.277  0.00  0.00    +0.084 C 
BRANCH  14  15
ATOM     15  C   UNL     1     -31.600  30.222   5.618  0.00  0.00    -0.001 C 
BRANCH  15  16
ATOM     16  CA  UNL     1     -31.272  29.137   6.655  0.00  0.00    +0.036 C 
BRANCH  16  17
ATOM     17  N   UNL     1     -31.694  29.574   7.990  0.00  0.00    +0.389 N 
ATOM     18  H1  UNL     1     -31.286  30.485   8.195  0.00  0.00    -0.088 HD
ATOM     19  H2  UNL     1     -31.379  28.896   8.684  0.00  0.00    -0.088 HD
ATOM     20  H3  UNL     1     -32.711  29.643   8.019  0.00  0.00    -0.088 HD
ENDBRANCH  16  17
BRANCH  16  22
ATOM     21  OXT UNL     1     -28.923  29.735   6.902  0.00  0.00    -0.253 OA
ATOM     22  C   UNL     1     -29.779  28.875   6.739  0.00  0.00    +0.293 C 
BRANCH  22  23
ATOM     23  O   UNL     1     -29.482  27.553   6.637  0.00  0.00    -0.482 OA
ATOM     24  H   UNL     1     -29.458  27.017   7.405  0.00  0.00    +0.295 HD
ENDBRANCH  22  23
ENDBRANCH  16  22
ENDBRANCH  15  16
ENDBRANCH  14  15
ENDBRANCH   3  14
TORSDOF 8
ENDMDL
