MODEL 1
REMARK VINA RESULT:      -6.2      0.000      0.000
REMARK  Name = 194320
REMARK  13 active torsions:
REMARK  status: ('A' for Active; 'I' for Inactive)
REMARK    1  A    between atoms: N_2  and  C_5
REMARK    2  A    between atoms: C_3  and  C_22
REMARK    3  A    between atoms: C_5  and  C_7
REMARK    4  A    between atoms: C_5  and  C_11
REMARK    5  A    between atoms: C_7  and  O_8
REMARK    6  A    between atoms: O_8  and  C_9
REMARK    7  A    between atoms: C_11  and  C_12
REMARK    8  A    between atoms: C_12  and  C_13
REMARK    9  A    between atoms: C_13  and  N_14
REMARK   10  A    between atoms: N_14  and  C_17
REMARK   11  A    between atoms: C_22  and  N_24
REMARK   12  A    between atoms: C_22  and  C_28
REMARK   13  A    between atoms: C_28  and  C_29
REMARK                            x       y       z     vdW  Elec       q    Type
REMARK                         _______ _______ _______ _____ _____    ______ ____
ROOT
ATOM      1  O   UNL     1     -36.554  23.295   1.358  0.00  0.00    -0.273 OA
ATOM      2  N   UNL     1     -37.898  21.720   2.410  0.00  0.00    -0.295 N 
ATOM      3  C   UNL     1     -36.683  22.307   2.076  0.00  0.00    +0.241 C 
ATOM      4  H   UNL     1     -37.889  20.927   2.994  0.00  0.00    +0.150 HD
ENDROOT
BRANCH   2   5
ATOM      5  C   UNL     1     -39.171  22.209   1.944  0.00  0.00    +0.172 C 
BRANCH   5   7
ATOM      6  O   UNL     1     -40.688  20.717   0.798  0.00  0.00    -0.248 OA
ATOM      7  C   UNL     1     -39.688  21.425   0.745  0.00  0.00    +0.335 C 
BRANCH   7   8
ATOM      8  O   UNL     1     -38.914  21.609  -0.360  0.00  0.00    -0.447 OA
BRANCH   8   9
ATOM      9  C   UNL     1     -38.584  20.425  -1.093  0.00  0.00    +0.209 C 
ATOM     10  C   UNL     1     -37.078  20.288  -1.158  0.00  0.00    +0.051 C 
ENDBRANCH   8   9
ENDBRANCH   7   8
ENDBRANCH   5   7
BRANCH   5  11
ATOM     11  C   UNL     1     -39.127  23.714   1.658  0.00  0.00    +0.033 C 
BRANCH  11  12
ATOM     12  C   UNL     1     -39.861  24.568   2.703  0.00  0.00    +0.029 C 
BRANCH  12  13
ATOM     13  C   UNL     1     -38.958  25.633   3.319  0.00  0.00    +0.129 C 
BRANCH  13  14
ATOM     14  N   UNL     1     -37.882  24.993   4.077  0.00  0.00    -0.240 NA
BRANCH  14  17
ATOM     15  N   UNL     1     -36.292  26.329   5.286  0.00  0.00    -0.370 N 
ATOM     16  N   UNL     1     -35.911  25.745   3.116  0.00  0.00    -0.370 N 
ATOM     17  C   UNL     1     -36.772  25.655   4.185  0.00  0.00    +0.189 C 
ATOM     18  H   UNL     1     -36.814  26.342   6.120  0.00  0.00    +0.159 HD
ATOM     19  H   UNL     1     -35.428  26.797   5.238  0.00  0.00    +0.159 HD
ATOM     20  H   UNL     1     -36.137  25.306   2.264  0.00  0.00    +0.159 HD
ATOM     21  H   UNL     1     -35.071  26.248   3.202  0.00  0.00    +0.159 HD
ENDBRANCH  14  17
ENDBRANCH  13  14
ENDBRANCH  12  13
ENDBRANCH  11  12
ENDBRANCH   5  11
ENDBRANCH   2   5
BRANCH   3  22
ATOM     22  C   UNL     1     -35.498  21.548   2.663  0.00  0.00    +0.153 C 
BRANCH  22  24
ATOM     23  O   UNL     1     -34.612  23.419   4.699  0.00  0.00    -0.275 OA
ATOM     24  N   UNL     1     -35.710  21.460   4.086  0.00  0.00    -0.298 N 
ATOM     25  C   UNL     1     -35.246  22.408   4.985  0.00  0.00    +0.223 C 
ATOM     26  C   UNL     1     -35.629  22.086   6.404  0.00  0.00    +0.095 C 
ATOM     27  H   UNL     1     -36.210  20.688   4.437  0.00  0.00    +0.150 HD
ENDBRANCH  22  24
BRANCH  22  28
ATOM     28  C   UNL     1     -35.373  20.167   2.009  0.00  0.00    +0.055 C 
BRANCH  28  29
ATOM     29  C   UNL     1     -34.037  19.958   1.338  0.00  0.00    -0.020 C 
ATOM     30  C   UNL     1     -33.321  18.781   1.559  0.00  0.00    -0.004 C 
ATOM     31  C   UNL     1     -33.517  20.944   0.499  0.00  0.00    -0.004 C 
ATOM     32  C   UNL     1     -32.087  18.589   0.939  0.00  0.00    -0.000 C 
ATOM     33  C   UNL     1     -32.281  20.751  -0.121  0.00  0.00    -0.000 C 
ATOM     34  C   UNL     1     -31.567  19.574   0.099  0.00  0.00    -0.000 C 
ENDBRANCH  28  29
ENDBRANCH  22  28
ENDBRANCH   3  22
TORSDOF 13
ENDMDL
MODEL 2
REMARK VINA RESULT:      -6.0      2.285      4.235
REMARK  Name = 194320
REMARK  13 active torsions:
REMARK  status: ('A' for Active; 'I' for Inactive)
REMARK    1  A    between atoms: N_2  and  C_5
REMARK    2  A    between atoms: C_3  and  C_22
REMARK    3  A    between atoms: C_5  and  C_7
REMARK    4  A    between atoms: C_5  and  C_11
REMARK    5  A    between atoms: C_7  and  O_8
REMARK    6  A    between atoms: O_8  and  C_9
REMARK    7  A    between atoms: C_11  and  C_12
REMARK    8  A    between atoms: C_12  and  C_13
REMARK    9  A    between atoms: C_13  and  N_14
REMARK   10  A    between atoms: N_14  and  C_17
REMARK   11  A    between atoms: C_22  and  N_24
REMARK   12  A    between atoms: C_22  and  C_28
REMARK   13  A    between atoms: C_28  and  C_29
REMARK                            x       y       z     vdW  Elec       q    Type
REMARK                         _______ _______ _______ _____ _____    ______ ____
ROOT
ATOM      1  O   UNL     1     -35.210  20.621   4.016  0.00  0.00    -0.273 OA
ATOM      2  N   UNL     1     -36.030  22.326   2.668  0.00  0.00    -0.295 N 
ATOM      3  C   UNL     1     -35.538  21.048   2.912  0.00  0.00    +0.241 C 
ATOM      4  H   UNL     1     -36.263  22.566   1.742  0.00  0.00    +0.150 HD
ENDROOT
BRANCH   2   5
ATOM      5  C   UNL     1     -36.216  23.316   3.698  0.00  0.00    +0.172 C 
BRANCH   5   7
ATOM      6  O   UNL     1     -38.472  24.163   3.531  0.00  0.00    -0.248 OA
ATOM      7  C   UNL     1     -37.276  24.343   3.327  0.00  0.00    +0.335 C 
BRANCH   7   8
ATOM      8  O   UNL     1     -36.736  25.455   2.755  0.00  0.00    -0.447 OA
BRANCH   8   9
ATOM      9  C   UNL     1     -36.926  25.582   1.342  0.00  0.00    +0.209 C 
ATOM     10  C   UNL     1     -35.574  25.594   0.661  0.00  0.00    +0.051 C 
ENDBRANCH   8   9
ENDBRANCH   7   8
ENDBRANCH   5   7
BRANCH   5  11
ATOM     11  C   UNL     1     -34.891  23.985   4.082  0.00  0.00    +0.033 C 
BRANCH  11  12
ATOM     12  C   UNL     1     -34.788  24.353   5.570  0.00  0.00    +0.029 C 
BRANCH  12  13
ATOM     13  C   UNL     1     -34.417  25.818   5.781  0.00  0.00    +0.129 C 
BRANCH  13  14
ATOM     14  N   UNL     1     -33.557  26.274   4.687  0.00  0.00    -0.240 NA
BRANCH  14  17
ATOM     15  N   UNL     1     -32.969  28.517   4.057  0.00  0.00    -0.370 N 
ATOM     16  N   UNL     1     -35.078  27.723   3.706  0.00  0.00    -0.370 N 
ATOM     17  C   UNL     1     -33.820  27.441   4.187  0.00  0.00    +0.189 C 
ATOM     18  H   UNL     1     -32.037  28.446   4.363  0.00  0.00    +0.159 HD
ATOM     19  H   UNL     1     -33.295  29.356   3.657  0.00  0.00    +0.159 HD
ATOM     20  H   UNL     1     -35.783  27.037   3.741  0.00  0.00    +0.159 HD
ATOM     21  H   UNL     1     -35.273  28.610   3.329  0.00  0.00    +0.159 HD
ENDBRANCH  14  17
ENDBRANCH  13  14
ENDBRANCH  12  13
ENDBRANCH  11  12
ENDBRANCH   5  11
ENDBRANCH   2   5
BRANCH   3  22
ATOM     22  C   UNL     1     -35.394  20.234   1.631  0.00  0.00    +0.153 C 
BRANCH  22  24
ATOM     23  O   UNL     1     -36.478  18.240  -0.180  0.00  0.00    -0.275 OA
ATOM     24  N   UNL     1     -36.671  20.260   0.963  0.00  0.00    -0.298 N 
ATOM     25  C   UNL     1     -37.104  19.256   0.111  0.00  0.00    +0.223 C 
ATOM     26  C   UNL     1     -38.483  19.521  -0.431  0.00  0.00    +0.095 C 
ATOM     27  H   UNL     1     -37.264  21.029   1.119  0.00  0.00    +0.150 HD
ENDBRANCH  22  24
BRANCH  22  28
ATOM     28  C   UNL     1     -34.271  20.806   0.759  0.00  0.00    +0.055 C 
BRANCH  28  29
ATOM     29  C   UNL     1     -33.060  19.908   0.703  0.00  0.00    -0.020 C 
ATOM     30  C   UNL     1     -33.085  18.661   1.327  0.00  0.00    -0.004 C 
ATOM     31  C   UNL     1     -31.913  20.326   0.027  0.00  0.00    -0.004 C 
ATOM     32  C   UNL     1     -31.965  17.831   1.275  0.00  0.00    -0.000 C 
ATOM     33  C   UNL     1     -30.792  19.496  -0.024  0.00  0.00    -0.000 C 
ATOM     34  C   UNL     1     -30.818  18.250   0.599  0.00  0.00    -0.000 C 
ENDBRANCH  28  29
ENDBRANCH  22  28
ENDBRANCH   3  22
TORSDOF 13
ENDMDL
MODEL 3
REMARK VINA RESULT:      -6.0      2.241      3.630
REMARK  Name = 194320
REMARK  13 active torsions:
REMARK  status: ('A' for Active; 'I' for Inactive)
REMARK    1  A    between atoms: N_2  and  C_5
REMARK    2  A    between atoms: C_3  and  C_22
REMARK    3  A    between atoms: C_5  and  C_7
REMARK    4  A    between atoms: C_5  and  C_11
REMARK    5  A    between atoms: C_7  and  O_8
REMARK    6  A    between atoms: O_8  and  C_9
REMARK    7  A    between atoms: C_11  and  C_12
REMARK    8  A    between atoms: C_12  and  C_13
REMARK    9  A    between atoms: C_13  and  N_14
REMARK   10  A    between atoms: N_14  and  C_17
REMARK   11  A    between atoms: C_22  and  N_24
REMARK   12  A    between atoms: C_22  and  C_28
REMARK   13  A    between atoms: C_28  and  C_29
REMARK                            x       y       z     vdW  Elec       q    Type
REMARK                         _______ _______ _______ _____ _____    ______ ____
ROOT
ATOM      1  O   UNL     1     -38.049  24.366   3.933  0.00  0.00    -0.273 OA
ATOM      2  N   UNL     1     -37.123  25.078   1.926  0.00  0.00    -0.295 N 
ATOM      3  C   UNL     1     -37.234  24.232   3.023  0.00  0.00    +0.241 C 
ATOM      4  H   UNL     1     -36.433  24.879   1.252  0.00  0.00    +0.150 HD
ENDROOT
BRANCH   2   5
ATOM      5  C   UNL     1     -37.963  26.231   1.723  0.00  0.00    +0.172 C 
BRANCH   5   7
ATOM      6  O   UNL     1     -38.920  25.390  -0.331  0.00  0.00    -0.248 OA
ATOM      7  C   UNL     1     -39.096  25.955   0.743  0.00  0.00    +0.335 C 
BRANCH   7   8
ATOM      8  O   UNL     1     -40.295  26.409   1.204  0.00  0.00    -0.447 OA
BRANCH   8   9
ATOM      9  C   UNL     1     -40.938  25.585   2.181  0.00  0.00    +0.209 C 
ATOM     10  C   UNL     1     -41.309  26.435   3.377  0.00  0.00    +0.051 C 
ENDBRANCH   8   9
ENDBRANCH   7   8
ENDBRANCH   5   7
BRANCH   5  11
ATOM     11  C   UNL     1     -37.145  27.460   1.310  0.00  0.00    +0.033 C 
BRANCH  11  12
ATOM     12  C   UNL     1     -35.720  27.130   0.842  0.00  0.00    +0.029 C 
BRANCH  12  13
ATOM     13  C   UNL     1     -34.663  27.568   1.853  0.00  0.00    +0.129 C 
BRANCH  13  14
ATOM     14  N   UNL     1     -34.450  26.507   2.839  0.00  0.00    -0.240 NA
BRANCH  14  17
ATOM     15  N   UNL     1     -35.761  26.630   4.848  0.00  0.00    -0.370 N 
ATOM     16  N   UNL     1     -33.627  27.429   4.800  0.00  0.00    -0.370 N 
ATOM     17  C   UNL     1     -34.632  26.823   4.083  0.00  0.00    +0.189 C 
ATOM     18  H   UNL     1     -36.556  26.204   4.454  0.00  0.00    +0.159 HD
ATOM     19  H   UNL     1     -35.773  26.918   5.790  0.00  0.00    +0.159 HD
ATOM     20  H   UNL     1     -32.764  27.625   4.368  0.00  0.00    +0.159 HD
ATOM     21  H   UNL     1     -33.770  27.668   5.743  0.00  0.00    +0.159 HD
ENDBRANCH  14  17
ENDBRANCH  13  14
ENDBRANCH  12  13
ENDBRANCH  11  12
ENDBRANCH   5  11
ENDBRANCH   2   5
BRANCH   3  22
ATOM     22  C   UNL     1     -36.182  23.129   3.007  0.00  0.00    +0.153 C 
BRANCH  22  24
ATOM     23  O   UNL     1     -34.401  23.671   5.235  0.00  0.00    -0.275 OA
ATOM     24  N   UNL     1     -36.194  22.509   4.309  0.00  0.00    -0.298 N 
ATOM     25  C   UNL     1     -35.297  22.836   5.315  0.00  0.00    +0.223 C 
ATOM     26  C   UNL     1     -35.548  22.059   6.579  0.00  0.00    +0.095 C 
ATOM     27  H   UNL     1     -36.871  21.820   4.492  0.00  0.00    +0.150 HD
ENDBRANCH  22  24
BRANCH  22  28
ATOM     28  C   UNL     1     -36.477  22.126   1.886  0.00  0.00    +0.055 C 
BRANCH  28  29
ATOM     29  C   UNL     1     -35.249  21.375   1.436  0.00  0.00    -0.020 C 
ATOM     30  C   UNL     1     -35.006  20.086   1.910  0.00  0.00    -0.004 C 
ATOM     31  C   UNL     1     -34.354  21.970   0.546  0.00  0.00    -0.004 C 
ATOM     32  C   UNL     1     -33.870  19.391   1.494  0.00  0.00    -0.000 C 
ATOM     33  C   UNL     1     -33.217  21.276   0.130  0.00  0.00    -0.000 C 
ATOM     34  C   UNL     1     -32.975  19.987   0.604  0.00  0.00    -0.000 C 
ENDBRANCH  28  29
ENDBRANCH  22  28
ENDBRANCH   3  22
TORSDOF 13
ENDMDL
MODEL 4
REMARK VINA RESULT:      -6.0      1.444      2.091
REMARK  Name = 194320
REMARK  13 active torsions:
REMARK  status: ('A' for Active; 'I' for Inactive)
REMARK    1  A    between atoms: N_2  and  C_5
REMARK    2  A    between atoms: C_3  and  C_22
REMARK    3  A    between atoms: C_5  and  C_7
REMARK    4  A    between atoms: C_5  and  C_11
REMARK    5  A    between atoms: C_7  and  O_8
REMARK    6  A    between atoms: O_8  and  C_9
REMARK    7  A    between atoms: C_11  and  C_12
REMARK    8  A    between atoms: C_12  and  C_13
REMARK    9  A    between atoms: C_13  and  N_14
REMARK   10  A    between atoms: N_14  and  C_17
REMARK   11  A    between atoms: C_22  and  N_24
REMARK   12  A    between atoms: C_22  and  C_28
REMARK   13  A    between atoms: C_28  and  C_29
REMARK                            x       y       z     vdW  Elec       q    Type
REMARK                         _______ _______ _______ _____ _____    ______ ____
ROOT
ATOM      1  O   UNL     1     -37.838  23.217   3.206  0.00  0.00    -0.273 OA
ATOM      2  N   UNL     1     -37.956  21.738   1.419  0.00  0.00    -0.295 N 
ATOM      3  C   UNL     1     -37.354  22.309   2.535  0.00  0.00    +0.241 C 
ATOM      4  H   UNL     1     -37.480  21.013   0.952  0.00  0.00    +0.150 HD
ENDROOT
BRANCH   2   5
ATOM      5  C   UNL     1     -39.238  22.152   0.909  0.00  0.00    +0.172 C 
BRANCH   5   7
ATOM      6  O   UNL     1     -41.268  20.988   0.306  0.00  0.00    -0.248 OA
ATOM      7  C   UNL     1     -40.042  20.986   0.349  0.00  0.00    +0.335 C 
BRANCH   7   8
ATOM      8  O   UNL     1     -39.242  19.971  -0.081  0.00  0.00    -0.447 OA
BRANCH   8   9
ATOM      9  C   UNL     1     -39.314  19.673  -1.479  0.00  0.00    +0.209 C 
ATOM     10  C   UNL     1     -39.647  18.207  -1.655  0.00  0.00    +0.051 C 
ENDBRANCH   8   9
ENDBRANCH   7   8
ENDBRANCH   5   7
BRANCH   5  11
ATOM     11  C   UNL     1     -39.098  23.285  -0.116  0.00  0.00    +0.033 C 
BRANCH  11  12
ATOM     12  C   UNL     1     -40.000  24.496   0.168  0.00  0.00    +0.029 C 
BRANCH  12  13
ATOM     13  C   UNL     1     -39.211  25.697   0.682  0.00  0.00    +0.129 C 
BRANCH  13  14
ATOM     14  N   UNL     1     -40.006  26.426   1.672  0.00  0.00    -0.240 NA
BRANCH  14  17
ATOM     15  N   UNL     1     -38.506  26.052   3.511  0.00  0.00    -0.370 N 
ATOM     16  N   UNL     1     -40.764  26.046   3.829  0.00  0.00    -0.370 N 
ATOM     17  C   UNL     1     -39.742  26.190   2.919  0.00  0.00    +0.189 C 
ATOM     18  H   UNL     1     -37.689  26.133   2.968  0.00  0.00    +0.159 HD
ATOM     19  H   UNL     1     -38.440  25.871   4.476  0.00  0.00    +0.159 HD
ATOM     20  H   UNL     1     -41.700  26.122   3.535  0.00  0.00    +0.159 HD
ATOM     21  H   UNL     1     -40.559  25.866   4.774  0.00  0.00    +0.159 HD
ENDBRANCH  14  17
ENDBRANCH  13  14
ENDBRANCH  12  13
ENDBRANCH  11  12
ENDBRANCH   5  11
ENDBRANCH   2   5
BRANCH   3  22
ATOM     22  C   UNL     1     -35.978  21.714   2.813  0.00  0.00    +0.153 C 
BRANCH  22  24
ATOM     23  O   UNL     1     -34.737  23.522   4.716  0.00  0.00    -0.275 OA
ATOM     24  N   UNL     1     -35.868  21.543   4.241  0.00  0.00    -0.298 N 
ATOM     25  C   UNL     1     -35.254  22.467   5.072  0.00  0.00    +0.223 C 
ATOM     26  C   UNL     1     -35.301  22.055   6.519  0.00  0.00    +0.095 C 
ATOM     27  H   UNL     1     -36.248  20.731   4.645  0.00  0.00    +0.150 HD
ENDBRANCH  22  24
BRANCH  22  28
ATOM     28  C   UNL     1     -35.806  20.392   2.057  0.00  0.00    +0.055 C 
BRANCH  28  29
ATOM     29  C   UNL     1     -34.458  20.272   1.389  0.00  0.00    -0.020 C 
ATOM     30  C   UNL     1     -33.991  21.300   0.570  0.00  0.00    -0.004 C 
ATOM     31  C   UNL     1     -33.679  19.132   1.591  0.00  0.00    -0.004 C 
ATOM     32  C   UNL     1     -32.745  21.189  -0.047  0.00  0.00    -0.000 C 
ATOM     33  C   UNL     1     -32.433  19.021   0.973  0.00  0.00    -0.000 C 
ATOM     34  C   UNL     1     -31.966  20.049   0.155  0.00  0.00    -0.000 C 
ENDBRANCH  28  29
ENDBRANCH  22  28
ENDBRANCH   3  22
TORSDOF 13
ENDMDL
MODEL 5
REMARK VINA RESULT:      -5.9      2.140      4.450
REMARK  Name = 194320
REMARK  13 active torsions:
REMARK  status: ('A' for Active; 'I' for Inactive)
REMARK    1  A    between atoms: N_2  and  C_5
REMARK    2  A    between atoms: C_3  and  C_22
REMARK    3  A    between atoms: C_5  and  C_7
REMARK    4  A    between atoms: C_5  and  C_11
REMARK    5  A    between atoms: C_7  and  O_8
REMARK    6  A    between atoms: O_8  and  C_9
REMARK    7  A    between atoms: C_11  and  C_12
REMARK    8  A    between atoms: C_12  and  C_13
REMARK    9  A    between atoms: C_13  and  N_14
REMARK   10  A    between atoms: N_14  and  C_17
REMARK   11  A    between atoms: C_22  and  N_24
REMARK   12  A    between atoms: C_22  and  C_28
REMARK   13  A    between atoms: C_28  and  C_29
REMARK                            x       y       z     vdW  Elec       q    Type
REMARK                         _______ _______ _______ _____ _____    ______ ____
ROOT
ATOM      1  O   UNL     1     -35.203  20.404   3.586  0.00  0.00    -0.273 OA
ATOM      2  N   UNL     1     -35.201  22.178   2.087  0.00  0.00    -0.295 N 
ATOM      3  C   UNL     1     -35.186  20.832   2.434  0.00  0.00    +0.241 C 
ATOM      4  H   UNL     1     -35.184  22.413   1.131  0.00  0.00    +0.150 HD
ENDROOT
BRANCH   2   5
ATOM      5  C   UNL     1     -35.237  23.248   3.051  0.00  0.00    +0.172 C 
BRANCH   5   7
ATOM      6  O   UNL     1     -37.629  22.989   3.276  0.00  0.00    -0.248 OA
ATOM      7  C   UNL     1     -36.565  23.311   3.794  0.00  0.00    +0.335 C 
BRANCH   7   8
ATOM      8  O   UNL     1     -36.418  23.763   5.070  0.00  0.00    -0.447 OA
BRANCH   8   9
ATOM      9  C   UNL     1     -35.213  23.370   5.735  0.00  0.00    +0.209 C 
ATOM     10  C   UNL     1     -35.471  22.099   6.515  0.00  0.00    +0.051 C 
ENDBRANCH   8   9
ENDBRANCH   7   8
ENDBRANCH   5   7
BRANCH   5  11
ATOM     11  C   UNL     1     -34.882  24.596   2.413  0.00  0.00    +0.033 C 
BRANCH  11  12
ATOM     12  C   UNL     1     -35.869  25.051   1.328  0.00  0.00    +0.029 C 
BRANCH  12  13
ATOM     13  C   UNL     1     -36.277  26.512   1.492  0.00  0.00    +0.129 C 
BRANCH  13  14
ATOM     14  N   UNL     1     -37.735  26.632   1.418  0.00  0.00    -0.240 NA
BRANCH  14  17
ATOM     15  N   UNL     1     -38.224  26.163   3.723  0.00  0.00    -0.370 N 
ATOM     16  N   UNL     1     -39.469  25.232   2.056  0.00  0.00    -0.370 N 
ATOM     17  C   UNL     1     -38.414  26.060   2.363  0.00  0.00    +0.189 C 
ATOM     18  H   UNL     1     -37.499  26.727   4.077  0.00  0.00    +0.159 HD
ATOM     19  H   UNL     1     -38.814  25.673   4.341  0.00  0.00    +0.159 HD
ATOM     20  H   UNL     1     -39.711  25.072   1.115  0.00  0.00    +0.159 HD
ATOM     21  H   UNL     1     -39.981  24.800   2.776  0.00  0.00    +0.159 HD
ENDBRANCH  14  17
ENDBRANCH  13  14
ENDBRANCH  12  13
ENDBRANCH  11  12
ENDBRANCH   5  11
ENDBRANCH   2   5
BRANCH   3  22
ATOM     22  C   UNL     1     -35.090  19.924   1.213  0.00  0.00    +0.153 C 
BRANCH  22  24
ATOM     23  O   UNL     1     -36.252  17.722  -0.281  0.00  0.00    -0.275 OA
ATOM     24  N   UNL     1     -36.404  19.863   0.623  0.00  0.00    -0.298 N 
ATOM     25  C   UNL     1     -36.873  18.762  -0.076  0.00  0.00    +0.223 C 
ATOM     26  C   UNL     1     -38.284  18.952  -0.563  0.00  0.00    +0.095 C 
ATOM     27  H   UNL     1     -36.997  20.642   0.722  0.00  0.00    +0.150 HD
ENDBRANCH  22  24
BRANCH  22  28
ATOM     28  C   UNL     1     -34.039  20.458   0.234  0.00  0.00    +0.055 C 
BRANCH  28  29
ATOM     29  C   UNL     1     -32.722  19.727   0.335  0.00  0.00    -0.020 C 
ATOM     30  C   UNL     1     -32.638  18.536   1.057  0.00  0.00    -0.004 C 
ATOM     31  C   UNL     1     -31.588  20.243  -0.293  0.00  0.00    -0.004 C 
ATOM     32  C   UNL     1     -31.422  17.861   1.149  0.00  0.00    -0.000 C 
ATOM     33  C   UNL     1     -30.371  19.568  -0.199  0.00  0.00    -0.000 C 
ATOM     34  C   UNL     1     -30.288  18.377   0.522  0.00  0.00    -0.000 C 
ENDBRANCH  28  29
ENDBRANCH  22  28
ENDBRANCH   3  22
TORSDOF 13
ENDMDL
MODEL 6
REMARK VINA RESULT:      -5.9      4.311      6.962
REMARK  Name = 194320
REMARK  13 active torsions:
REMARK  status: ('A' for Active; 'I' for Inactive)
REMARK    1  A    between atoms: N_2  and  C_5
REMARK    2  A    between atoms: C_3  and  C_22
REMARK    3  A    between atoms: C_5  and  C_7
REMARK    4  A    between atoms: C_5  and  C_11
REMARK    5  A    between atoms: C_7  and  O_8
REMARK    6  A    between atoms: O_8  and  C_9
REMARK    7  A    between atoms: C_11  and  C_12
REMARK    8  A    between atoms: C_12  and  C_13
REMARK    9  A    between atoms: C_13  and  N_14
REMARK   10  A    between atoms: N_14  and  C_17
REMARK   11  A    between atoms: C_22  and  N_24
REMARK   12  A    between atoms: C_22  and  C_28
REMARK   13  A    between atoms: C_28  and  C_29
REMARK                            x       y       z     vdW  Elec       q    Type
REMARK                         _______ _______ _______ _____ _____    ______ ____
ROOT
ATOM      1  O   UNL     1     -33.102  26.550   2.718  0.00  0.00    -0.273 OA
ATOM      2  N   UNL     1     -34.957  27.716   3.489  0.00  0.00    -0.295 N 
ATOM      3  C   UNL     1     -33.863  26.870   3.628  0.00  0.00    +0.241 C 
ATOM      4  H   UNL     1     -35.503  27.907   4.286  0.00  0.00    +0.150 HD
ENDROOT
BRANCH   2   5
ATOM      5  C   UNL     1     -35.334  28.328   2.241  0.00  0.00    +0.172 C 
BRANCH   5   7
ATOM      6  O   UNL     1     -35.878  30.550   1.463  0.00  0.00    -0.248 OA
ATOM      7  C   UNL     1     -35.366  29.848   2.328  0.00  0.00    +0.335 C 
BRANCH   7   8
ATOM      8  O   UNL     1     -34.767  30.309   3.461  0.00  0.00    -0.447 OA
BRANCH   8   9
ATOM      9  C   UNL     1     -33.919  31.451   3.296  0.00  0.00    +0.209 C 
ATOM     10  C   UNL     1     -32.523  31.100   3.763  0.00  0.00    +0.051 C 
ENDBRANCH   8   9
ENDBRANCH   7   8
ENDBRANCH   5   7
BRANCH   5  11
ATOM     11  C   UNL     1     -36.659  27.765   1.714  0.00  0.00    +0.033 C 
BRANCH  11  12
ATOM     12  C   UNL     1     -36.661  26.239   1.536  0.00  0.00    +0.029 C 
BRANCH  12  13
ATOM     13  C   UNL     1     -38.059  25.689   1.267  0.00  0.00    +0.129 C 
BRANCH  13  14
ATOM     14  N   UNL     1     -39.046  26.440   2.045  0.00  0.00    -0.240 NA
BRANCH  14  17
ATOM     15  N   UNL     1     -38.919  24.863   3.853  0.00  0.00    -0.370 N 
ATOM     16  N   UNL     1     -40.721  26.243   3.636  0.00  0.00    -0.370 N 
ATOM     17  C   UNL     1     -39.506  25.866   3.113  0.00  0.00    +0.189 C 
ATOM     18  H   UNL     1     -38.044  24.502   3.585  0.00  0.00    +0.159 HD
ATOM     19  H   UNL     1     -39.375  24.509   4.651  0.00  0.00    +0.159 HD
ATOM     20  H   UNL     1     -41.245  26.952   3.199  0.00  0.00    +0.159 HD
ATOM     21  H   UNL     1     -41.066  25.804   4.446  0.00  0.00    +0.159 HD
ENDBRANCH  14  17
ENDBRANCH  13  14
ENDBRANCH  12  13
ENDBRANCH  11  12
ENDBRANCH   5  11
ENDBRANCH   2   5
BRANCH   3  22
ATOM     22  C   UNL     1     -33.735  26.324   5.046  0.00  0.00    +0.153 C 
BRANCH  22  24
ATOM     23  O   UNL     1     -31.143  27.633   5.087  0.00  0.00    -0.275 OA
ATOM     24  N   UNL     1     -33.319  27.419   5.888  0.00  0.00    -0.298 N 
ATOM     25  C   UNL     1     -32.052  27.980   5.835  0.00  0.00    +0.223 C 
ATOM     26  C   UNL     1     -31.892  29.122   6.801  0.00  0.00    +0.095 C 
ATOM     27  H   UNL     1     -33.966  27.785   6.532  0.00  0.00    +0.150 HD
ENDBRANCH  22  24
BRANCH  22  28
ATOM     28  C   UNL     1     -35.064  25.713   5.504  0.00  0.00    +0.055 C 
BRANCH  28  29
ATOM     29  C   UNL     1     -35.182  24.249   5.161  0.00  0.00    -0.020 C 
ATOM     30  C   UNL     1     -35.075  23.285   6.164  0.00  0.00    -0.004 C 
ATOM     31  C   UNL     1     -35.396  23.858   3.839  0.00  0.00    -0.004 C 
ATOM     32  C   UNL     1     -35.185  21.932   5.846  0.00  0.00    -0.000 C 
ATOM     33  C   UNL     1     -35.505  22.503   3.521  0.00  0.00    -0.000 C 
ATOM     34  C   UNL     1     -35.399  21.541   4.524  0.00  0.00    -0.000 C 
ENDBRANCH  28  29
ENDBRANCH  22  28
ENDBRANCH   3  22
TORSDOF 13
ENDMDL
MODEL 7
REMARK VINA RESULT:      -5.8      2.536      5.124
REMARK  Name = 194320
REMARK  13 active torsions:
REMARK  status: ('A' for Active; 'I' for Inactive)
REMARK    1  A    between atoms: N_2  and  C_5
REMARK    2  A    between atoms: C_3  and  C_22
REMARK    3  A    between atoms: C_5  and  C_7
REMARK    4  A    between atoms: C_5  and  C_11
REMARK    5  A    between atoms: C_7  and  O_8
REMARK    6  A    between atoms: O_8  and  C_9
REMARK    7  A    between atoms: C_11  and  C_12
REMARK    8  A    between atoms: C_12  and  C_13
REMARK    9  A    between atoms: C_13  and  N_14
REMARK   10  A    between atoms: N_14  and  C_17
REMARK   11  A    between atoms: C_22  and  N_24
REMARK   12  A    between atoms: C_22  and  C_28
REMARK   13  A    between atoms: C_28  and  C_29
REMARK                            x       y       z     vdW  Elec       q    Type
REMARK                         _______ _______ _______ _____ _____    ______ ____
ROOT
ATOM      1  O   UNL     1     -36.365  23.150   1.211  0.00  0.00    -0.273 OA
ATOM      2  N   UNL     1     -37.461  21.105   1.331  0.00  0.00    -0.295 N 
ATOM      3  C   UNL     1     -36.404  21.976   1.572  0.00  0.00    +0.241 C 
ATOM      4  H   UNL     1     -37.390  20.182   1.664  0.00  0.00    +0.150 HD
ENDROOT
BRANCH   2   5
ATOM      5  C   UNL     1     -38.655  21.483   0.618  0.00  0.00    +0.172 C 
BRANCH   5   7
ATOM      6  O   UNL     1     -40.391  21.109   2.257  0.00  0.00    -0.248 OA
ATOM      7  C   UNL     1     -39.778  21.907   1.555  0.00  0.00    +0.335 C 
BRANCH   7   8
ATOM      8  O   UNL     1     -40.006  23.249   1.510  0.00  0.00    -0.447 OA
BRANCH   8   9
ATOM      9  C   UNL     1     -39.633  23.984   2.680  0.00  0.00    +0.209 C 
ATOM     10  C   UNL     1     -39.058  25.320   2.263  0.00  0.00    +0.051 C 
ENDBRANCH   8   9
ENDBRANCH   7   8
ENDBRANCH   5   7
BRANCH   5  11
ATOM     11  C   UNL     1     -39.109  20.381  -0.346  0.00  0.00    +0.033 C 
BRANCH  11  12
ATOM     12  C   UNL     1     -38.163  19.172  -0.400  0.00  0.00    +0.029 C 
BRANCH  12  13
ATOM     13  C   UNL     1     -38.807  17.963  -1.074  0.00  0.00    +0.129 C 
BRANCH  13  14
ATOM     14  N   UNL     1     -37.821  16.890  -1.212  0.00  0.00    -0.240 NA
BRANCH  14  17
ATOM     15  N   UNL     1     -38.874  14.876  -0.430  0.00  0.00    -0.370 N 
ATOM     16  N   UNL     1     -37.057  15.734   0.647  0.00  0.00    -0.370 N 
ATOM     17  C   UNL     1     -37.937  15.885  -0.400  0.00  0.00    +0.189 C 
ATOM     18  H   UNL     1     -39.564  14.867  -1.133  0.00  0.00    +0.159 HD
ATOM     19  H   UNL     1     -38.854  14.166   0.250  0.00  0.00    +0.159 HD
ATOM     20  H   UNL     1     -36.336  16.391   0.782  0.00  0.00    +0.159 HD
ATOM     21  H   UNL     1     -37.149  14.971   1.261  0.00  0.00    +0.159 HD
ENDBRANCH  14  17
ENDBRANCH  13  14
ENDBRANCH  12  13
ENDBRANCH  11  12
ENDBRANCH   5  11
ENDBRANCH   2   5
BRANCH   3  22
ATOM     22  C   UNL     1     -35.250  21.292   2.297  0.00  0.00    +0.153 C 
BRANCH  22  24
ATOM     23  O   UNL     1     -34.663  23.373   4.235  0.00  0.00    -0.275 OA
ATOM     24  N   UNL     1     -35.569  21.295   3.703  0.00  0.00    -0.298 N 
ATOM     25  C   UNL     1     -35.246  22.341   4.554  0.00  0.00    +0.223 C 
ATOM     26  C   UNL     1     -35.717  22.099   5.963  0.00  0.00    +0.095 C 
ATOM     27  H   UNL     1     -36.040  20.516   4.077  0.00  0.00    +0.150 HD
ENDBRANCH  22  24
BRANCH  22  28
ATOM     28  C   UNL     1     -35.044  19.874   1.753  0.00  0.00    +0.055 C 
BRANCH  28  29
ATOM     29  C   UNL     1     -33.660  19.660   1.192  0.00  0.00    -0.020 C 
ATOM     30  C   UNL     1     -33.087  20.622   0.360  0.00  0.00    -0.004 C 
ATOM     31  C   UNL     1     -32.954  18.497   1.503  0.00  0.00    -0.004 C 
ATOM     32  C   UNL     1     -31.807  20.424  -0.158  0.00  0.00    -0.000 C 
ATOM     33  C   UNL     1     -31.674  18.299   0.983  0.00  0.00    -0.000 C 
ATOM     34  C   UNL     1     -31.101  19.261   0.153  0.00  0.00    -0.000 C 
ENDBRANCH  28  29
ENDBRANCH  22  28
ENDBRANCH   3  22
TORSDOF 13
ENDMDL
MODEL 8
REMARK VINA RESULT:      -5.7      1.204      1.939
REMARK  Name = 194320
REMARK  13 active torsions:
REMARK  status: ('A' for Active; 'I' for Inactive)
REMARK    1  A    between atoms: N_2  and  C_5
REMARK    2  A    between atoms: C_3  and  C_22
REMARK    3  A    between atoms: C_5  and  C_7
REMARK    4  A    between atoms: C_5  and  C_11
REMARK    5  A    between atoms: C_7  and  O_8
REMARK    6  A    between atoms: O_8  and  C_9
REMARK    7  A    between atoms: C_11  and  C_12
REMARK    8  A    between atoms: C_12  and  C_13
REMARK    9  A    between atoms: C_13  and  N_14
REMARK   10  A    between atoms: N_14  and  C_17
REMARK   11  A    between atoms: C_22  and  N_24
REMARK   12  A    between atoms: C_22  and  C_28
REMARK   13  A    between atoms: C_28  and  C_29
REMARK                            x       y       z     vdW  Elec       q    Type
REMARK                         _______ _______ _______ _____ _____    ______ ____
ROOT
ATOM      1  O   UNL     1     -36.462  22.762   0.873  0.00  0.00    -0.273 OA
ATOM      2  N   UNL     1     -37.645  22.361   2.831  0.00  0.00    -0.295 N 
ATOM      3  C   UNL     1     -36.529  22.290   2.005  0.00  0.00    +0.241 C 
ATOM      4  H   UNL     1     -37.592  21.947   3.723  0.00  0.00    +0.150 HD
ENDROOT
BRANCH   2   5
ATOM      5  C   UNL     1     -38.875  23.008   2.451  0.00  0.00    +0.172 C 
BRANCH   5   7
ATOM      6  O   UNL     1     -40.300  21.143   1.875  0.00  0.00    -0.248 OA
ATOM      7  C   UNL     1     -39.709  22.153   1.506  0.00  0.00    +0.335 C 
BRANCH   7   8
ATOM      8  O   UNL     1     -39.711  22.644   0.236  0.00  0.00    -0.447 OA
BRANCH   8   9
ATOM      9  C   UNL     1     -40.987  22.691  -0.412  0.00  0.00    +0.209 C 
ATOM     10  C   UNL     1     -41.746  23.904   0.079  0.00  0.00    +0.051 C 
ENDBRANCH   8   9
ENDBRANCH   7   8
ENDBRANCH   5   7
BRANCH   5  11
ATOM     11  C   UNL     1     -38.622  24.405   1.873  0.00  0.00    +0.033 C 
BRANCH  11  12
ATOM     12  C   UNL     1     -38.573  25.517   2.931  0.00  0.00    +0.029 C 
BRANCH  12  13
ATOM     13  C   UNL     1     -37.346  25.405   3.832  0.00  0.00    +0.129 C 
BRANCH  13  14
ATOM     14  N   UNL     1     -36.265  26.239   3.305  0.00  0.00    -0.240 NA
BRANCH  14  17
ATOM     15  N   UNL     1     -34.351  27.545   3.940  0.00  0.00    -0.370 N 
ATOM     16  N   UNL     1     -35.424  26.234   5.465  0.00  0.00    -0.370 N 
ATOM     17  C   UNL     1     -35.387  26.665   4.159  0.00  0.00    +0.189 C 
ATOM     18  H   UNL     1     -34.213  27.929   3.044  0.00  0.00    +0.159 HD
ATOM     19  H   UNL     1     -33.748  27.790   4.679  0.00  0.00    +0.159 HD
ATOM     20  H   UNL     1     -36.119  25.600   5.754  0.00  0.00    +0.159 HD
ATOM     21  H   UNL     1     -34.756  26.559   6.110  0.00  0.00    +0.159 HD
ENDBRANCH  14  17
ENDBRANCH  13  14
ENDBRANCH  12  13
ENDBRANCH  11  12
ENDBRANCH   5  11
ENDBRANCH   2   5
BRANCH   3  22
ATOM     22  C   UNL     1     -35.391  21.500   2.643  0.00  0.00    +0.153 C 
BRANCH  22  24
ATOM     23  O   UNL     1     -34.510  23.350   4.699  0.00  0.00    -0.275 OA
ATOM     24  N   UNL     1     -35.661  21.430   4.057  0.00  0.00    -0.298 N 
ATOM     25  C   UNL     1     -35.194  22.366   4.967  0.00  0.00    +0.223 C 
ATOM     26  C   UNL     1     -35.643  22.070   6.373  0.00  0.00    +0.095 C 
ATOM     27  H   UNL     1     -36.203  20.681   4.393  0.00  0.00    +0.150 HD
ENDBRANCH  22  24
BRANCH  22  28
ATOM     28  C   UNL     1     -35.284  20.110   2.004  0.00  0.00    +0.055 C 
BRANCH  28  29
ATOM     29  C   UNL     1     -33.949  19.874   1.341  0.00  0.00    -0.020 C 
ATOM     30  C   UNL     1     -33.408  20.843   0.496  0.00  0.00    -0.004 C 
ATOM     31  C   UNL     1     -33.257  18.685   1.572  0.00  0.00    -0.004 C 
ATOM     32  C   UNL     1     -32.174  20.624  -0.116  0.00  0.00    -0.000 C 
ATOM     33  C   UNL     1     -32.023  18.466   0.959  0.00  0.00    -0.000 C 
ATOM     34  C   UNL     1     -31.482  19.435   0.115  0.00  0.00    -0.000 C 
ENDBRANCH  28  29
ENDBRANCH  22  28
ENDBRANCH   3  22
TORSDOF 13
ENDMDL
MODEL 9
REMARK VINA RESULT:      -5.7      3.497      5.440
REMARK  Name = 194320
REMARK  13 active torsions:
REMARK  status: ('A' for Active; 'I' for Inactive)
REMARK    1  A    between atoms: N_2  and  C_5
REMARK    2  A    between atoms: C_3  and  C_22
REMARK    3  A    between atoms: C_5  and  C_7
REMARK    4  A    between atoms: C_5  and  C_11
REMARK    5  A    between atoms: C_7  and  O_8
REMARK    6  A    between atoms: O_8  and  C_9
REMARK    7  A    between atoms: C_11  and  C_12
REMARK    8  A    between atoms: C_12  and  C_13
REMARK    9  A    between atoms: C_13  and  N_14
REMARK   10  A    between atoms: N_14  and  C_17
REMARK   11  A    between atoms: C_22  and  N_24
REMARK   12  A    between atoms: C_22  and  C_28
REMARK   13  A    between atoms: C_28  and  C_29
REMARK                            x       y       z     vdW  Elec       q    Type
REMARK                         _______ _______ _______ _____ _____    ______ ____
ROOT
ATOM      1  O   UNL     1     -38.159  26.828   1.951  0.00  0.00    -0.273 OA
ATOM      2  N   UNL     1     -38.839  25.278   3.541  0.00  0.00    -0.295 N 
ATOM      3  C   UNL     1     -37.901  26.054   2.869  0.00  0.00    +0.241 C 
ATOM      4  H   UNL     1     -38.524  24.688   4.263  0.00  0.00    +0.150 HD
ENDROOT
BRANCH   2   5
ATOM      5  C   UNL     1     -40.247  25.291   3.234  0.00  0.00    +0.172 C 
BRANCH   5   7
ATOM      6  O   UNL     1     -40.808  25.279   0.884  0.00  0.00    -0.248 OA
ATOM      7  C   UNL     1     -40.553  24.634   1.895  0.00  0.00    +0.335 C 
BRANCH   7   8
ATOM      8  O   UNL     1     -40.510  23.274   1.968  0.00  0.00    -0.447 OA
BRANCH   8   9
ATOM      9  C   UNL     1     -39.593  22.632   1.076  0.00  0.00    +0.209 C 
ATOM     10  C   UNL     1     -38.812  21.584   1.841  0.00  0.00    +0.051 C 
ENDBRANCH   8   9
ENDBRANCH   7   8
ENDBRANCH   5   7
BRANCH   5  11
ATOM     11  C   UNL     1     -40.829  26.707   3.315  0.00  0.00    +0.033 C 
BRANCH  11  12
ATOM     12  C   UNL     1     -42.341  26.744   3.580  0.00  0.00    +0.029 C 
BRANCH  12  13
ATOM     13  C   UNL     1     -42.916  28.152   3.458  0.00  0.00    +0.129 C 
BRANCH  13  14
ATOM     14  N   UNL     1     -42.478  28.968   4.592  0.00  0.00    -0.240 NA
BRANCH  14  17
ATOM     15  N   UNL     1     -43.261  30.316   6.419  0.00  0.00    -0.370 N 
ATOM     16  N   UNL     1     -44.730  29.180   5.098  0.00  0.00    -0.370 N 
ATOM     17  C   UNL     1     -43.408  29.473   5.341  0.00  0.00    +0.189 C 
ATOM     18  H   UNL     1     -42.363  30.604   6.700  0.00  0.00    +0.159 HD
ATOM     19  H   UNL     1     -44.055  30.631   6.910  0.00  0.00    +0.159 HD
ATOM     20  H   UNL     1     -44.973  28.585   4.352  0.00  0.00    +0.159 HD
ATOM     21  H   UNL     1     -45.433  29.564   5.669  0.00  0.00    +0.159 HD
ENDBRANCH  14  17
ENDBRANCH  13  14
ENDBRANCH  12  13
ENDBRANCH  11  12
ENDBRANCH   5  11
ENDBRANCH   2   5
BRANCH   3  22
ATOM     22  C   UNL     1     -36.482  25.797   3.364  0.00  0.00    +0.153 C 
BRANCH  22  24
ATOM     23  O   UNL     1     -33.625  26.190   3.024  0.00  0.00    -0.275 OA
ATOM     24  N   UNL     1     -35.772  27.050   3.293  0.00  0.00    -0.298 N 
ATOM     25  C   UNL     1     -34.399  27.138   3.128  0.00  0.00    +0.223 C 
ATOM     26  C   UNL     1     -33.921  28.563   3.061  0.00  0.00    +0.095 C 
ATOM     27  H   UNL     1     -36.289  27.884   3.365  0.00  0.00    +0.150 HD
ENDBRANCH  22  24
BRANCH  22  28
ATOM     28  C   UNL     1     -36.509  25.226   4.786  0.00  0.00    +0.055 C 
BRANCH  28  29
ATOM     29  C   UNL     1     -35.982  23.813   4.858  0.00  0.00    -0.020 C 
ATOM     30  C   UNL     1     -36.030  22.992   3.731  0.00  0.00    -0.004 C 
ATOM     31  C   UNL     1     -35.450  23.328   6.053  0.00  0.00    -0.004 C 
ATOM     32  C   UNL     1     -35.543  21.687   3.798  0.00  0.00    -0.000 C 
ATOM     33  C   UNL     1     -34.964  22.021   6.119  0.00  0.00    -0.000 C 
ATOM     34  C   UNL     1     -35.011  21.201   4.993  0.00  0.00    -0.000 C 
ENDBRANCH  28  29
ENDBRANCH  22  28
ENDBRANCH   3  22
TORSDOF 13
ENDMDL
