MODEL 1
REMARK VINA RESULT:      -6.9      0.000      0.000
REMARK  Name = 191315
REMARK  10 active torsions:
REMARK  status: ('A' for Active; 'I' for Inactive)
REMARK    1  A    between atoms: C_1  and  N_8
REMARK    2  A    between atoms: C_2  and  N_22
REMARK    3  A    between atoms: C_3  and  C_36
REMARK    4  A    between atoms: C_9  and  C_11
REMARK    5  A    between atoms: C_12  and  O_17
REMARK    6  A    between atoms: O_17  and  C_19
REMARK    7  A    between atoms: C_23  and  C_25
REMARK    8  A    between atoms: C_26  and  O_31
REMARK    9  A    between atoms: O_31  and  C_33
REMARK   10  A    between atoms: C_36  and  O_37
REMARK                            x       y       z     vdW  Elec       q    Type
REMARK                         _______ _______ _______ _____ _____    ______ ____
ROOT
ATOM      1  C   UNL     1     -40.255  25.386   3.042  0.00  0.00    +0.058 C 
ATOM      2  C   UNL     1     -42.008  27.049   3.013  0.00  0.00    +0.052 C 
ATOM      3  C   UNL     1     -40.822  24.771   1.925  0.00  0.00    +0.089 C 
ATOM      4  C   UNL     1     -40.848  26.526   3.586  0.00  0.00    +0.030 C 
ATOM      5  C   UNL     1     -42.574  26.434   1.897  0.00  0.00    +0.015 C 
ATOM      6  C   UNL     1     -41.981  25.295   1.353  0.00  0.00    +0.009 C 
ENDROOT
BRANCH   1   8
ATOM      7  O   UNL     1     -37.389  26.184   2.679  0.00  0.00    -0.270 OA
ATOM      8  N   UNL     1     -39.094  24.878   3.632  0.00  0.00    -0.280 N 
ATOM      9  C   UNL     1     -37.773  25.291   3.425  0.00  0.00    +0.252 C 
ATOM     10  H   UNL     1     -39.222  24.140   4.270  0.00  0.00    +0.155 HD
BRANCH   9  11
ATOM     11  C   UNL     1     -36.745  24.530   4.183  0.00  0.00    +0.088 C 
ATOM     12  C   UNL     1     -36.624  23.148   4.035  0.00  0.00    +0.153 C 
ATOM     13  C   UNL     1     -35.897  25.215   5.051  0.00  0.00    +0.008 C 
ATOM     14  C   UNL     1     -35.652  22.453   4.756  0.00  0.00    +0.038 C 
ATOM     15  C   UNL     1     -34.926  24.520   5.773  0.00  0.00    +0.000 C 
ATOM     16  C   UNL     1     -34.804  23.138   5.624  0.00  0.00    +0.003 C 
BRANCH  12  17
ATOM     17  O   UNL     1     -37.443  22.460   3.191  0.00  0.00    -0.424 OA
BRANCH  17  19
ATOM     18  O   UNL     1     -36.573  20.550   2.154  0.00  0.00    -0.250 OA
ATOM     19  C   UNL     1     -36.765  21.758   2.181  0.00  0.00    +0.322 C 
ATOM     20  C   UNL     1     -36.298  22.711   1.121  0.00  0.00    +0.122 C 
ENDBRANCH  17  19
ENDBRANCH  12  17
ENDBRANCH   9  11
ENDBRANCH   1   8
BRANCH   2  22
ATOM     21  O   UNL     1     -44.400  27.321   4.800  0.00  0.00    -0.270 OA
ATOM     22  N   UNL     1     -42.601  28.188   3.558  0.00  0.00    -0.280 N 
ATOM     23  C   UNL     1     -43.725  28.260   4.392  0.00  0.00    +0.252 C 
ATOM     24  H   UNL     1     -42.179  29.048   3.328  0.00  0.00    +0.155 HD
BRANCH  23  25
ATOM     25  C   UNL     1     -44.138  29.632   4.789  0.00  0.00    +0.088 C 
ATOM     26  C   UNL     1     -44.767  30.482   3.880  0.00  0.00    +0.153 C 
ATOM     27  C   UNL     1     -43.887  30.065   6.091  0.00  0.00    +0.008 C 
ATOM     28  C   UNL     1     -45.146  31.765   4.273  0.00  0.00    +0.038 C 
ATOM     29  C   UNL     1     -44.265  31.350   6.484  0.00  0.00    +0.000 C 
ATOM     30  C   UNL     1     -44.895  32.199   5.574  0.00  0.00    +0.003 C 
BRANCH  26  31
ATOM     31  O   UNL     1     -45.021  30.076   2.603  0.00  0.00    -0.424 OA
BRANCH  31  33
ATOM     32  O   UNL     1     -42.961  30.642   1.646  0.00  0.00    -0.250 OA
ATOM     33  C   UNL     1     -44.184  30.663   1.640  0.00  0.00    +0.322 C 
ATOM     34  C   UNL     1     -45.013  31.336   0.586  0.00  0.00    +0.122 C 
ENDBRANCH  31  33
ENDBRANCH  26  31
ENDBRANCH  23  25
ENDBRANCH   2  22
BRANCH   3  36
ATOM     35  O   UNL     1     -39.779  23.503   0.185  0.00  0.00    -0.245 OA
ATOM     36  C   UNL     1     -40.228  23.579   1.332  0.00  0.00    +0.339 C 
BRANCH  36  37
ATOM     37  O   UNL     1     -40.217  22.525   2.190  0.00  0.00    -0.477 OA
ATOM     38  H   UNL     1     -39.617  22.512   2.908  0.00  0.00    +0.295 HD
ENDBRANCH  36  37
ENDBRANCH   3  36
TORSDOF 10
ENDMDL
MODEL 2
REMARK VINA RESULT:      -6.8      1.355      2.538
REMARK  Name = 191315
REMARK  10 active torsions:
REMARK  status: ('A' for Active; 'I' for Inactive)
REMARK    1  A    between atoms: C_1  and  N_8
REMARK    2  A    between atoms: C_2  and  N_22
REMARK    3  A    between atoms: C_3  and  C_36
REMARK    4  A    between atoms: C_9  and  C_11
REMARK    5  A    between atoms: C_12  and  O_17
REMARK    6  A    between atoms: O_17  and  C_19
REMARK    7  A    between atoms: C_23  and  C_25
REMARK    8  A    between atoms: C_26  and  O_31
REMARK    9  A    between atoms: O_31  and  C_33
REMARK   10  A    between atoms: C_36  and  O_37
REMARK                            x       y       z     vdW  Elec       q    Type
REMARK                         _______ _______ _______ _____ _____    ______ ____
ROOT
ATOM      1  C   UNL     1     -40.443  25.731   2.988  0.00  0.00    +0.058 C 
ATOM      2  C   UNL     1     -42.273  27.303   2.845  0.00  0.00    +0.052 C 
ATOM      3  C   UNL     1     -40.997  24.993   1.942  0.00  0.00    +0.089 C 
ATOM      4  C   UNL     1     -41.081  26.886   3.440  0.00  0.00    +0.030 C 
ATOM      5  C   UNL     1     -42.825  26.565   1.798  0.00  0.00    +0.015 C 
ATOM      6  C   UNL     1     -42.187  25.410   1.347  0.00  0.00    +0.009 C 
ENDROOT
BRANCH   1   8
ATOM      7  O   UNL     1     -37.603  26.442   2.345  0.00  0.00    -0.270 OA
ATOM      8  N   UNL     1     -39.251  25.332   3.599  0.00  0.00    -0.280 N 
ATOM      9  C   UNL     1     -37.945  25.697   3.255  0.00  0.00    +0.252 C 
ATOM     10  H   UNL     1     -39.342  24.718   4.364  0.00  0.00    +0.155 HD
BRANCH   9  11
ATOM     11  C   UNL     1     -36.875  25.078   4.083  0.00  0.00    +0.088 C 
ATOM     12  C   UNL     1     -36.683  23.697   4.089  0.00  0.00    +0.153 C 
ATOM     13  C   UNL     1     -36.059  25.899   4.861  0.00  0.00    +0.008 C 
ATOM     14  C   UNL     1     -35.674  23.137   4.873  0.00  0.00    +0.038 C 
ATOM     15  C   UNL     1     -35.050  25.340   5.645  0.00  0.00    +0.000 C 
ATOM     16  C   UNL     1     -34.858  23.958   5.650  0.00  0.00    +0.003 C 
BRANCH  12  17
ATOM     17  O   UNL     1     -37.470  22.878   3.337  0.00  0.00    -0.424 OA
BRANCH  17  19
ATOM     18  O   UNL     1     -36.813  23.178   1.109  0.00  0.00    -0.250 OA
ATOM     19  C   UNL     1     -36.890  22.489   2.118  0.00  0.00    +0.322 C 
ATOM     20  C   UNL     1     -36.369  21.087   2.224  0.00  0.00    +0.122 C 
ENDBRANCH  17  19
ENDBRANCH  12  17
ENDBRANCH   9  11
ENDBRANCH   1   8
BRANCH   2  22
ATOM     21  O   UNL     1     -44.486  27.638   4.839  0.00  0.00    -0.270 OA
ATOM     22  N   UNL     1     -42.911  28.458   3.297  0.00  0.00    -0.280 N 
ATOM     23  C   UNL     1     -43.947  28.559   4.236  0.00  0.00    +0.252 C 
ATOM     24  H   UNL     1     -42.596  29.306   2.909  0.00  0.00    +0.155 HD
BRANCH  23  25
ATOM     25  C   UNL     1     -44.443  29.937   4.491  0.00  0.00    +0.088 C 
ATOM     26  C   UNL     1     -44.138  30.598   5.680  0.00  0.00    +0.153 C 
ATOM     27  C   UNL     1     -45.222  30.568   3.522  0.00  0.00    +0.008 C 
ATOM     28  C   UNL     1     -44.613  31.891   5.901  0.00  0.00    +0.038 C 
ATOM     29  C   UNL     1     -45.698  31.861   3.743  0.00  0.00    +0.000 C 
ATOM     30  C   UNL     1     -45.393  32.522   4.932  0.00  0.00    +0.003 C 
BRANCH  26  31
ATOM     31  O   UNL     1     -43.377  29.998   6.640  0.00  0.00    -0.424 OA
BRANCH  31  33
ATOM     32  O   UNL     1     -43.542  30.722   8.860  0.00  0.00    -0.250 OA
ATOM     33  C   UNL     1     -43.940  30.040   7.925  0.00  0.00    +0.322 C 
ATOM     34  C   UNL     1     -45.117  29.113   7.997  0.00  0.00    +0.122 C 
ENDBRANCH  31  33
ENDBRANCH  26  31
ENDBRANCH  23  25
ENDBRANCH   2  22
BRANCH   3  36
ATOM     35  O   UNL     1     -40.417  22.671   1.983  0.00  0.00    -0.245 OA
ATOM     36  C   UNL     1     -40.356  23.781   1.445  0.00  0.00    +0.339 C 
BRANCH  36  37
ATOM     37  O   UNL     1     -39.661  23.996   0.296  0.00  0.00    -0.477 OA
ATOM     38  H   UNL     1     -38.774  24.290   0.334  0.00  0.00    +0.295 HD
ENDBRANCH  36  37
ENDBRANCH   3  36
TORSDOF 10
ENDMDL
MODEL 3
REMARK VINA RESULT:      -6.8      1.469      2.355
REMARK  Name = 191315
REMARK  10 active torsions:
REMARK  status: ('A' for Active; 'I' for Inactive)
REMARK    1  A    between atoms: C_1  and  N_8
REMARK    2  A    between atoms: C_2  and  N_22
REMARK    3  A    between atoms: C_3  and  C_36
REMARK    4  A    between atoms: C_9  and  C_11
REMARK    5  A    between atoms: C_12  and  O_17
REMARK    6  A    between atoms: O_17  and  C_19
REMARK    7  A    between atoms: C_23  and  C_25
REMARK    8  A    between atoms: C_26  and  O_31
REMARK    9  A    between atoms: O_31  and  C_33
REMARK   10  A    between atoms: C_36  and  O_37
REMARK                            x       y       z     vdW  Elec       q    Type
REMARK                         _______ _______ _______ _____ _____    ______ ____
ROOT
ATOM      1  C   UNL     1     -40.606  25.399   3.021  0.00  0.00    +0.058 C 
ATOM      2  C   UNL     1     -42.673  26.649   3.068  0.00  0.00    +0.052 C 
ATOM      3  C   UNL     1     -40.990  24.810   1.817  0.00  0.00    +0.089 C 
ATOM      4  C   UNL     1     -41.447  26.319   3.647  0.00  0.00    +0.030 C 
ATOM      5  C   UNL     1     -43.057  26.060   1.863  0.00  0.00    +0.015 C 
ATOM      6  C   UNL     1     -42.215  25.140   1.239  0.00  0.00    +0.009 C 
ENDROOT
BRANCH   1   8
ATOM      7  O   UNL     1     -37.846  26.418   2.446  0.00  0.00    -0.270 OA
ATOM      8  N   UNL     1     -39.382  25.083   3.620  0.00  0.00    -0.280 N 
ATOM      9  C   UNL     1     -38.117  25.592   3.309  0.00  0.00    +0.252 C 
ATOM     10  H   UNL     1     -39.416  24.421   4.348  0.00  0.00    +0.155 HD
BRANCH   9  11
ATOM     11  C   UNL     1     -36.995  25.034   4.110  0.00  0.00    +0.088 C 
ATOM     12  C   UNL     1     -36.705  23.670   4.083  0.00  0.00    +0.153 C 
ATOM     13  C   UNL     1     -36.229  25.894   4.896  0.00  0.00    +0.008 C 
ATOM     14  C   UNL     1     -35.649  23.167   4.842  0.00  0.00    +0.038 C 
ATOM     15  C   UNL     1     -35.172  25.391   5.656  0.00  0.00    +0.000 C 
ATOM     16  C   UNL     1     -34.883  24.027   5.628  0.00  0.00    +0.003 C 
BRANCH  12  17
ATOM     17  O   UNL     1     -37.442  22.814   3.321  0.00  0.00    -0.424 OA
BRANCH  17  19
ATOM     18  O   UNL     1     -36.387  20.902   2.475  0.00  0.00    -0.250 OA
ATOM     19  C   UNL     1     -36.687  22.086   2.387  0.00  0.00    +0.322 C 
ATOM     20  C   UNL     1     -36.291  22.974   1.245  0.00  0.00    +0.122 C 
ENDBRANCH  17  19
ENDBRANCH  12  17
ENDBRANCH   9  11
ENDBRANCH   1   8
BRANCH   2  22
ATOM     21  O   UNL     1     -42.019  29.004   4.804  0.00  0.00    -0.270 OA
ATOM     22  N   UNL     1     -43.515  27.568   3.694  0.00  0.00    -0.280 N 
ATOM     23  C   UNL     1     -43.156  28.657   4.501  0.00  0.00    +0.252 C 
ATOM     24  H   UNL     1     -44.480  27.436   3.554  0.00  0.00    +0.155 HD
BRANCH  23  25
ATOM     25  C   UNL     1     -44.290  29.443   5.053  0.00  0.00    +0.088 C 
ATOM     26  C   UNL     1     -45.305  28.822   5.779  0.00  0.00    +0.153 C 
ATOM     27  C   UNL     1     -44.330  30.820   4.835  0.00  0.00    +0.008 C 
ATOM     28  C   UNL     1     -46.360  29.578   6.290  0.00  0.00    +0.038 C 
ATOM     29  C   UNL     1     -45.387  31.576   5.344  0.00  0.00    +0.000 C 
ATOM     30  C   UNL     1     -46.401  30.955   6.072  0.00  0.00    +0.003 C 
BRANCH  26  31
ATOM     31  O   UNL     1     -45.283  27.477   6.003  0.00  0.00    -0.424 OA
BRANCH  31  33
ATOM     32  O   UNL     1     -46.489  26.791   4.118  0.00  0.00    -0.250 OA
ATOM     33  C   UNL     1     -46.287  26.768   5.324  0.00  0.00    +0.322 C 
ATOM     34  C   UNL     1     -47.097  25.968   6.301  0.00  0.00    +0.122 C 
ENDBRANCH  31  33
ENDBRANCH  26  31
ENDBRANCH  23  25
ENDBRANCH   2  22
BRANCH   3  36
ATOM     35  O   UNL     1     -39.495  24.063   0.104  0.00  0.00    -0.245 OA
ATOM     36  C   UNL     1     -40.135  23.845   1.137  0.00  0.00    +0.339 C 
BRANCH  36  37
ATOM     37  O   UNL     1     -40.108  22.641   1.769  0.00  0.00    -0.477 OA
ATOM     38  H   UNL     1     -40.723  21.976   1.535  0.00  0.00    +0.295 HD
ENDBRANCH  36  37
ENDBRANCH   3  36
TORSDOF 10
ENDMDL
MODEL 4
REMARK VINA RESULT:      -6.7      6.092      8.148
REMARK  Name = 191315
REMARK  10 active torsions:
REMARK  status: ('A' for Active; 'I' for Inactive)
REMARK    1  A    between atoms: C_1  and  N_8
REMARK    2  A    between atoms: C_2  and  N_22
REMARK    3  A    between atoms: C_3  and  C_36
REMARK    4  A    between atoms: C_9  and  C_11
REMARK    5  A    between atoms: C_12  and  O_17
REMARK    6  A    between atoms: O_17  and  C_19
REMARK    7  A    between atoms: C_23  and  C_25
REMARK    8  A    between atoms: C_26  and  O_31
REMARK    9  A    between atoms: O_31  and  C_33
REMARK   10  A    between atoms: C_36  and  O_37
REMARK                            x       y       z     vdW  Elec       q    Type
REMARK                         _______ _______ _______ _____ _____    ______ ____
ROOT
ATOM      1  C   UNL     1     -35.755  23.741   3.695  0.00  0.00    +0.058 C 
ATOM      2  C   UNL     1     -35.178  26.028   4.220  0.00  0.00    +0.052 C 
ATOM      3  C   UNL     1     -35.380  23.352   4.981  0.00  0.00    +0.089 C 
ATOM      4  C   UNL     1     -35.654  25.079   3.314  0.00  0.00    +0.030 C 
ATOM      5  C   UNL     1     -34.803  25.638   5.506  0.00  0.00    +0.015 C 
ATOM      6  C   UNL     1     -34.905  24.300   5.886  0.00  0.00    +0.009 C 
ENDROOT
BRANCH   1   8
ATOM      7  O   UNL     1     -38.564  22.907   3.062  0.00  0.00    -0.270 OA
ATOM      8  N   UNL     1     -36.235  22.808   2.771  0.00  0.00    -0.280 N 
ATOM      9  C   UNL     1     -37.565  22.456   2.516  0.00  0.00    +0.252 C 
ATOM     10  H   UNL     1     -35.553  22.341   2.235  0.00  0.00    +0.155 HD
BRANCH   9  11
ATOM     11  C   UNL     1     -37.755  21.400   1.486  0.00  0.00    +0.088 C 
ATOM     12  C   UNL     1     -36.819  20.378   1.327  0.00  0.00    +0.153 C 
ATOM     13  C   UNL     1     -38.886  21.442   0.672  0.00  0.00    +0.008 C 
ATOM     14  C   UNL     1     -37.016  19.397   0.355  0.00  0.00    +0.038 C 
ATOM     15  C   UNL     1     -39.083  20.462  -0.302  0.00  0.00    +0.000 C 
ATOM     16  C   UNL     1     -38.148  19.439  -0.459  0.00  0.00    +0.003 C 
BRANCH  12  17
ATOM     17  O   UNL     1     -35.708  20.319   2.113  0.00  0.00    -0.424 OA
BRANCH  17  19
ATOM     18  O   UNL     1     -34.150  21.470   0.797  0.00  0.00    -0.250 OA
ATOM     19  C   UNL     1     -34.501  20.470   1.410  0.00  0.00    +0.322 C 
ATOM     20  C   UNL     1     -33.688  19.214   1.513  0.00  0.00    +0.122 C 
ENDBRANCH  17  19
ENDBRANCH  12  17
ENDBRANCH   9  11
ENDBRANCH   1   8
BRANCH   2  22
ATOM     21  O   UNL     1     -33.661  27.288   1.962  0.00  0.00    -0.270 OA
ATOM     22  N   UNL     1     -35.076  27.366   3.839  0.00  0.00    -0.280 N 
ATOM     23  C   UNL     1     -34.348  27.905   2.769  0.00  0.00    +0.252 C 
ATOM     24  H   UNL     1     -35.575  28.011   4.389  0.00  0.00    +0.155 HD
BRANCH  23  25
ATOM     25  C   UNL     1     -34.413  29.384   2.635  0.00  0.00    +0.088 C 
ATOM     26  C   UNL     1     -33.340  30.186   3.019  0.00  0.00    +0.153 C 
ATOM     27  C   UNL     1     -35.569  29.967   2.116  0.00  0.00    +0.008 C 
ATOM     28  C   UNL     1     -33.421  31.571   2.885  0.00  0.00    +0.038 C 
ATOM     29  C   UNL     1     -35.651  31.354   1.982  0.00  0.00    +0.000 C 
ATOM     30  C   UNL     1     -34.576  32.155   2.367  0.00  0.00    +0.003 C 
BRANCH  26  31
ATOM     31  O   UNL     1     -32.201  29.634   3.529  0.00  0.00    -0.424 OA
BRANCH  31  33
ATOM     32  O   UNL     1     -32.643  28.548   5.555  0.00  0.00    -0.250 OA
ATOM     33  C   UNL     1     -32.205  29.502   4.926  0.00  0.00    +0.322 C 
ATOM     34  C   UNL     1     -31.592  30.718   5.556  0.00  0.00    +0.122 C 
ENDBRANCH  31  33
ENDBRANCH  26  31
ENDBRANCH  23  25
ENDBRANCH   2  22
BRANCH   3  36
ATOM     35  O   UNL     1     -34.946  21.003   4.841  0.00  0.00    -0.245 OA
ATOM     36  C   UNL     1     -35.473  21.962   5.411  0.00  0.00    +0.339 C 
BRANCH  36  37
ATOM     37  O   UNL     1     -36.222  21.818   6.537  0.00  0.00    -0.477 OA
ATOM     38  H   UNL     1     -37.081  22.188   6.578  0.00  0.00    +0.295 HD
ENDBRANCH  36  37
ENDBRANCH   3  36
TORSDOF 10
ENDMDL
MODEL 5
REMARK VINA RESULT:      -6.6      5.566     12.792
REMARK  Name = 191315
REMARK  10 active torsions:
REMARK  status: ('A' for Active; 'I' for Inactive)
REMARK    1  A    between atoms: C_1  and  N_8
REMARK    2  A    between atoms: C_2  and  N_22
REMARK    3  A    between atoms: C_3  and  C_36
REMARK    4  A    between atoms: C_9  and  C_11
REMARK    5  A    between atoms: C_12  and  O_17
REMARK    6  A    between atoms: O_17  and  C_19
REMARK    7  A    between atoms: C_23  and  C_25
REMARK    8  A    between atoms: C_26  and  O_31
REMARK    9  A    between atoms: O_31  and  C_33
REMARK   10  A    between atoms: C_36  and  O_37
REMARK                            x       y       z     vdW  Elec       q    Type
REMARK                         _______ _______ _______ _____ _____    ______ ____
ROOT
ATOM      1  C   UNL     1     -35.303  20.630   1.651  0.00  0.00    +0.058 C 
ATOM      2  C   UNL     1     -33.964  18.806   0.804  0.00  0.00    +0.052 C 
ATOM      3  C   UNL     1     -36.409  20.140   0.956  0.00  0.00    +0.089 C 
ATOM      4  C   UNL     1     -34.080  19.964   1.575  0.00  0.00    +0.030 C 
ATOM      5  C   UNL     1     -35.070  18.315   0.111  0.00  0.00    +0.015 C 
ATOM      6  C   UNL     1     -36.292  18.982   0.187  0.00  0.00    +0.009 C 
ENDROOT
BRANCH   1   8
ATOM      7  O   UNL     1     -35.286  20.973   4.629  0.00  0.00    -0.270 OA
ATOM      8  N   UNL     1     -35.397  21.789   2.428  0.00  0.00    -0.280 N 
ATOM      9  C   UNL     1     -35.384  21.891   3.823  0.00  0.00    +0.252 C 
ATOM     10  H   UNL     1     -35.483  22.635   1.932  0.00  0.00    +0.155 HD
BRANCH   9  11
ATOM     11  C   UNL     1     -35.532  23.270   4.360  0.00  0.00    +0.088 C 
ATOM     12  C   UNL     1     -36.699  24.002   4.139  0.00  0.00    +0.153 C 
ATOM     13  C   UNL     1     -34.485  23.831   5.089  0.00  0.00    +0.008 C 
ATOM     14  C   UNL     1     -36.818  25.294   4.651  0.00  0.00    +0.038 C 
ATOM     15  C   UNL     1     -34.603  25.124   5.600  0.00  0.00    +0.000 C 
ATOM     16  C   UNL     1     -35.770  25.855   5.381  0.00  0.00    +0.003 C 
BRANCH  12  17
ATOM     17  O   UNL     1     -37.733  23.472   3.429  0.00  0.00    -0.424 OA
BRANCH  17  19
ATOM     18  O   UNL     1     -37.199  24.336   1.320  0.00  0.00    -0.250 OA
ATOM     19  C   UNL     1     -38.001  24.140   2.223  0.00  0.00    +0.322 C 
ATOM     20  C   UNL     1     -39.432  24.589   2.194  0.00  0.00    +0.122 C 
ENDBRANCH  17  19
ENDBRANCH  12  17
ENDBRANCH   9  11
ENDBRANCH   1   8
BRANCH   2  22
ATOM     21  O   UNL     1     -31.241  19.832   0.082  0.00  0.00    -0.270 OA
ATOM     22  N   UNL     1     -32.740  18.140   0.728  0.00  0.00    -0.280 N 
ATOM     23  C   UNL     1     -31.490  18.670   0.382  0.00  0.00    +0.252 C 
ATOM     24  H   UNL     1     -32.758  17.179   0.942  0.00  0.00    +0.155 HD
BRANCH  23  25
ATOM     25  C   UNL     1     -30.368  17.695   0.362  0.00  0.00    +0.088 C 
ATOM     26  C   UNL     1     -30.330  16.667  -0.579  0.00  0.00    +0.153 C 
ATOM     27  C   UNL     1     -29.344  17.819   1.301  0.00  0.00    +0.008 C 
ATOM     28  C   UNL     1     -29.268  15.762  -0.581  0.00  0.00    +0.038 C 
ATOM     29  C   UNL     1     -28.282  16.914   1.299  0.00  0.00    +0.000 C 
ATOM     30  C   UNL     1     -28.245  15.886   0.358  0.00  0.00    +0.003 C 
BRANCH  26  31
ATOM     31  O   UNL     1     -31.322  16.529  -1.505  0.00  0.00    -0.424 OA
BRANCH  31  33
ATOM     32  O   UNL     1     -32.831  15.244  -0.260  0.00  0.00    -0.250 OA
ATOM     33  C   UNL     1     -32.173  15.437  -1.273  0.00  0.00    +0.322 C 
ATOM     34  C   UNL     1     -32.160  14.518  -2.459  0.00  0.00    +0.122 C 
ENDBRANCH  31  33
ENDBRANCH  26  31
ENDBRANCH  23  25
ENDBRANCH   2  22
BRANCH   3  36
ATOM     35  O   UNL     1     -38.254  21.376   0.066  0.00  0.00    -0.245 OA
ATOM     36  C   UNL     1     -37.701  20.812   1.014  0.00  0.00    +0.339 C 
BRANCH  36  37
ATOM     37  O   UNL     1     -38.259  20.756   2.253  0.00  0.00    -0.477 OA
ATOM     38  H   UNL     1     -38.077  20.031   2.816  0.00  0.00    +0.295 HD
ENDBRANCH  36  37
ENDBRANCH   3  36
TORSDOF 10
ENDMDL
MODEL 6
REMARK VINA RESULT:      -6.4      5.661      7.362
REMARK  Name = 191315
REMARK  10 active torsions:
REMARK  status: ('A' for Active; 'I' for Inactive)
REMARK    1  A    between atoms: C_1  and  N_8
REMARK    2  A    between atoms: C_2  and  N_22
REMARK    3  A    between atoms: C_3  and  C_36
REMARK    4  A    between atoms: C_9  and  C_11
REMARK    5  A    between atoms: C_12  and  O_17
REMARK    6  A    between atoms: O_17  and  C_19
REMARK    7  A    between atoms: C_23  and  C_25
REMARK    8  A    between atoms: C_26  and  O_31
REMARK    9  A    between atoms: O_31  and  C_33
REMARK   10  A    between atoms: C_36  and  O_37
REMARK                            x       y       z     vdW  Elec       q    Type
REMARK                         _______ _______ _______ _____ _____    ______ ____
ROOT
ATOM      1  C   UNL     1     -35.764  23.706   3.655  0.00  0.00    +0.058 C 
ATOM      2  C   UNL     1     -35.301  26.034   4.109  0.00  0.00    +0.052 C 
ATOM      3  C   UNL     1     -35.421  23.382   4.967  0.00  0.00    +0.089 C 
ATOM      4  C   UNL     1     -35.704  25.032   3.225  0.00  0.00    +0.030 C 
ATOM      5  C   UNL     1     -34.959  25.709   5.422  0.00  0.00    +0.015 C 
ATOM      6  C   UNL     1     -35.019  24.384   5.851  0.00  0.00    +0.009 C 
ENDROOT
BRANCH   1   8
ATOM      7  O   UNL     1     -38.509  22.715   2.971  0.00  0.00    -0.270 OA
ATOM      8  N   UNL     1     -36.170  22.719   2.752  0.00  0.00    -0.280 N 
ATOM      9  C   UNL     1     -37.473  22.294   2.471  0.00  0.00    +0.252 C 
ATOM     10  H   UNL     1     -35.450  22.268   2.254  0.00  0.00    +0.155 HD
BRANCH   9  11
ATOM     11  C   UNL     1     -37.581  21.195   1.475  0.00  0.00    +0.088 C 
ATOM     12  C   UNL     1     -36.599  20.208   1.389  0.00  0.00    +0.153 C 
ATOM     13  C   UNL     1     -38.681  21.160   0.619  0.00  0.00    +0.008 C 
ATOM     14  C   UNL     1     -36.719  19.186   0.447  0.00  0.00    +0.038 C 
ATOM     15  C   UNL     1     -38.801  20.138  -0.323  0.00  0.00    +0.000 C 
ATOM     16  C   UNL     1     -37.819  19.151  -0.408  0.00  0.00    +0.003 C 
BRANCH  12  17
ATOM     17  O   UNL     1     -35.516  20.225   2.216  0.00  0.00    -0.424 OA
BRANCH  17  19
ATOM     18  O   UNL     1     -33.635  18.927   1.707  0.00  0.00    -0.250 OA
ATOM     19  C   UNL     1     -34.300  19.946   1.572  0.00  0.00    +0.322 C 
ATOM     20  C   UNL     1     -33.919  21.089   0.679  0.00  0.00    +0.122 C 
ENDBRANCH  17  19
ENDBRANCH  12  17
ENDBRANCH   9  11
ENDBRANCH   1   8
BRANCH   2  22
ATOM     21  O   UNL     1     -33.132  27.498   2.647  0.00  0.00    -0.270 OA
ATOM     22  N   UNL     1     -35.240  27.360   3.680  0.00  0.00    -0.280 N 
ATOM     23  C   UNL     1     -34.195  27.998   2.997  0.00  0.00    +0.252 C 
ATOM     24  H   UNL     1     -36.026  27.916   3.882  0.00  0.00    +0.155 HD
BRANCH  23  25
ATOM     25  C   UNL     1     -34.415  29.437   2.698  0.00  0.00    +0.088 C 
ATOM     26  C   UNL     1     -35.591  29.871   2.089  0.00  0.00    +0.153 C 
ATOM     27  C   UNL     1     -33.423  30.358   3.036  0.00  0.00    +0.008 C 
ATOM     28  C   UNL     1     -35.778  31.226   1.818  0.00  0.00    +0.038 C 
ATOM     29  C   UNL     1     -33.609  31.714   2.763  0.00  0.00    +0.000 C 
ATOM     30  C   UNL     1     -34.787  32.147   2.154  0.00  0.00    +0.003 C 
BRANCH  26  31
ATOM     31  O   UNL     1     -36.572  28.985   1.752  0.00  0.00    -0.424 OA
BRANCH  31  33
ATOM     32  O   UNL     1     -38.057  29.558   0.036  0.00  0.00    -0.250 OA
ATOM     33  C   UNL     1     -36.996  29.083   0.417  0.00  0.00    +0.322 C 
ATOM     34  C   UNL     1     -35.951  28.510  -0.494  0.00  0.00    +0.122 C 
ENDBRANCH  31  33
ENDBRANCH  26  31
ENDBRANCH  23  25
ENDBRANCH   2  22
BRANCH   3  36
ATOM     35  O   UNL     1     -34.902  21.047   4.924  0.00  0.00    -0.245 OA
ATOM     36  C   UNL     1     -35.473  22.007   5.448  0.00  0.00    +0.339 C 
BRANCH  36  37
ATOM     37  O   UNL     1     -36.236  21.878   6.567  0.00  0.00    -0.477 OA
ATOM     38  H   UNL     1     -37.024  22.376   6.655  0.00  0.00    +0.295 HD
ENDBRANCH  36  37
ENDBRANCH   3  36
TORSDOF 10
ENDMDL
MODEL 7
REMARK VINA RESULT:      -6.4      5.638      9.739
REMARK  Name = 191315
REMARK  10 active torsions:
REMARK  status: ('A' for Active; 'I' for Inactive)
REMARK    1  A    between atoms: C_1  and  N_8
REMARK    2  A    between atoms: C_2  and  N_22
REMARK    3  A    between atoms: C_3  and  C_36
REMARK    4  A    between atoms: C_9  and  C_11
REMARK    5  A    between atoms: C_12  and  O_17
REMARK    6  A    between atoms: O_17  and  C_19
REMARK    7  A    between atoms: C_23  and  C_25
REMARK    8  A    between atoms: C_26  and  O_31
REMARK    9  A    between atoms: O_31  and  C_33
REMARK   10  A    between atoms: C_36  and  O_37
REMARK                            x       y       z     vdW  Elec       q    Type
REMARK                         _______ _______ _______ _____ _____    ______ ____
ROOT
ATOM      1  C   UNL     1     -36.360  18.757   0.507  0.00  0.00    +0.058 C 
ATOM      2  C   UNL     1     -35.309  20.549   1.741  0.00  0.00    +0.052 C 
ATOM      3  C   UNL     1     -35.109  18.190   0.265  0.00  0.00    +0.089 C 
ATOM      4  C   UNL     1     -36.461  19.937   1.245  0.00  0.00    +0.030 C 
ATOM      5  C   UNL     1     -34.058  19.982   1.499  0.00  0.00    +0.015 C 
ATOM      6  C   UNL     1     -33.958  18.802   0.761  0.00  0.00    +0.009 C 
ENDROOT
BRANCH   1   8
ATOM      7  O   UNL     1     -37.748  19.085  -2.129  0.00  0.00    -0.270 OA
ATOM      8  N   UNL     1     -37.527  18.161   0.020  0.00  0.00    -0.280 N 
ATOM      9  C   UNL     1     -38.134  18.352  -1.227  0.00  0.00    +0.252 C 
ATOM     10  H   UNL     1     -37.977  17.531   0.628  0.00  0.00    +0.155 HD
BRANCH   9  11
ATOM     11  C   UNL     1     -39.394  17.592  -1.442  0.00  0.00    +0.088 C 
ATOM     12  C   UNL     1     -39.439  16.211  -1.245  0.00  0.00    +0.153 C 
ATOM     13  C   UNL     1     -40.539  18.276  -1.847  0.00  0.00    +0.008 C 
ATOM     14  C   UNL     1     -40.631  15.517  -1.453  0.00  0.00    +0.038 C 
ATOM     15  C   UNL     1     -41.731  17.582  -2.056  0.00  0.00    +0.000 C 
ATOM     16  C   UNL     1     -41.776  16.202  -1.858  0.00  0.00    +0.003 C 
BRANCH  12  17
ATOM     17  O   UNL     1     -38.332  15.524  -0.849  0.00  0.00    -0.424 OA
BRANCH  17  19
ATOM     18  O   UNL     1     -38.107  13.309  -1.571  0.00  0.00    -0.250 OA
ATOM     19  C   UNL     1     -37.940  14.510  -1.738  0.00  0.00    +0.322 C 
ATOM     20  C   UNL     1     -37.274  15.110  -2.940  0.00  0.00    +0.122 C 
ENDBRANCH  17  19
ENDBRANCH  12  17
ENDBRANCH   9  11
ENDBRANCH   1   8
BRANCH   2  22
ATOM     21  O   UNL     1     -35.212  20.996   4.703  0.00  0.00    -0.270 OA
ATOM     22  N   UNL     1     -35.409  21.729   2.478  0.00  0.00    -0.280 N 
ATOM     23  C   UNL     1     -35.358  21.884   3.870  0.00  0.00    +0.252 C 
ATOM     24  H   UNL     1     -35.531  22.555   1.956  0.00  0.00    +0.155 HD
BRANCH  23  25
ATOM     25  C   UNL     1     -35.524  23.276   4.363  0.00  0.00    +0.088 C 
ATOM     26  C   UNL     1     -36.703  23.982   4.129  0.00  0.00    +0.153 C 
ATOM     27  C   UNL     1     -34.480  23.875   5.068  0.00  0.00    +0.008 C 
ATOM     28  C   UNL     1     -36.839  25.288   4.601  0.00  0.00    +0.038 C 
ATOM     29  C   UNL     1     -34.616  25.181   5.539  0.00  0.00    +0.000 C 
ATOM     30  C   UNL     1     -35.796  25.887   5.306  0.00  0.00    +0.003 C 
BRANCH  26  31
ATOM     31  O   UNL     1     -37.735  23.414   3.442  0.00  0.00    -0.424 OA
BRANCH  31  33
ATOM     32  O   UNL     1     -37.149  24.078   1.275  0.00  0.00    -0.250 OA
ATOM     33  C   UNL     1     -37.966  23.987   2.181  0.00  0.00    +0.322 C 
ATOM     34  C   UNL     1     -39.379  24.485   2.098  0.00  0.00    +0.122 C 
ENDBRANCH  31  33
ENDBRANCH  26  31
ENDBRANCH  23  25
ENDBRANCH   2  22
BRANCH   3  36
ATOM     35  O   UNL     1     -34.487  16.876  -1.635  0.00  0.00    -0.245 OA
ATOM     36  C   UNL     1     -34.969  16.959  -0.502  0.00  0.00    +0.339 C 
BRANCH  36  37
ATOM     37  O   UNL     1     -35.435  15.873   0.172  0.00  0.00    -0.477 OA
ATOM     38  H   UNL     1     -34.836  15.291   0.593  0.00  0.00    +0.295 HD
ENDBRANCH  36  37
ENDBRANCH   3  36
TORSDOF 10
ENDMDL
MODEL 8
REMARK VINA RESULT:      -6.4      1.194      2.200
REMARK  Name = 191315
REMARK  10 active torsions:
REMARK  status: ('A' for Active; 'I' for Inactive)
REMARK    1  A    between atoms: C_1  and  N_8
REMARK    2  A    between atoms: C_2  and  N_22
REMARK    3  A    between atoms: C_3  and  C_36
REMARK    4  A    between atoms: C_9  and  C_11
REMARK    5  A    between atoms: C_12  and  O_17
REMARK    6  A    between atoms: O_17  and  C_19
REMARK    7  A    between atoms: C_23  and  C_25
REMARK    8  A    between atoms: C_26  and  O_31
REMARK    9  A    between atoms: O_31  and  C_33
REMARK   10  A    between atoms: C_36  and  O_37
REMARK                            x       y       z     vdW  Elec       q    Type
REMARK                         _______ _______ _______ _____ _____    ______ ____
ROOT
ATOM      1  C   UNL     1     -40.138  24.916   2.784  0.00  0.00    +0.058 C 
ATOM      2  C   UNL     1     -41.803  26.668   2.765  0.00  0.00    +0.052 C 
ATOM      3  C   UNL     1     -40.716  24.356   1.645  0.00  0.00    +0.089 C 
ATOM      4  C   UNL     1     -40.682  26.073   3.345  0.00  0.00    +0.030 C 
ATOM      5  C   UNL     1     -42.379  26.107   1.625  0.00  0.00    +0.015 C 
ATOM      6  C   UNL     1     -41.836  24.951   1.066  0.00  0.00    +0.009 C 
ENDROOT
BRANCH   1   8
ATOM      7  O   UNL     1     -37.228  25.199   2.124  0.00  0.00    -0.270 OA
ATOM      8  N   UNL     1     -39.015  24.336   3.382  0.00  0.00    -0.280 N 
ATOM      9  C   UNL     1     -37.671  24.504   3.031  0.00  0.00    +0.252 C 
ATOM     10  H   UNL     1     -39.192  23.737   4.143  0.00  0.00    +0.155 HD
BRANCH   9  11
ATOM     11  C   UNL     1     -36.701  23.724   3.844  0.00  0.00    +0.088 C 
ATOM     12  C   UNL     1     -35.988  24.328   4.880  0.00  0.00    +0.153 C 
ATOM     13  C   UNL     1     -36.507  22.373   3.559  0.00  0.00    +0.008 C 
ATOM     14  C   UNL     1     -35.082  23.578   5.631  0.00  0.00    +0.038 C 
ATOM     15  C   UNL     1     -35.600  21.624   4.309  0.00  0.00    +0.000 C 
ATOM     16  C   UNL     1     -34.888  22.227   5.345  0.00  0.00    +0.003 C 
BRANCH  12  17
ATOM     17  O   UNL     1     -36.163  25.646   5.175  0.00  0.00    -0.424 OA
BRANCH  17  19
ATOM     18  O   UNL     1     -34.192  26.602   5.998  0.00  0.00    -0.250 OA
ATOM     19  C   UNL     1     -34.990  26.412   5.090  0.00  0.00    +0.322 C 
ATOM     20  C   UNL     1     -34.846  26.978   3.709  0.00  0.00    +0.122 C 
ENDBRANCH  17  19
ENDBRANCH  12  17
ENDBRANCH   9  11
ENDBRANCH   1   8
BRANCH   2  22
ATOM     21  O   UNL     1     -44.194  27.019   4.538  0.00  0.00    -0.270 OA
ATOM     22  N   UNL     1     -42.347  27.823   3.326  0.00  0.00    -0.280 N 
ATOM     23  C   UNL     1     -43.474  27.933   4.152  0.00  0.00    +0.252 C 
ATOM     24  H   UNL     1     -41.883  28.666   3.115  0.00  0.00    +0.155 HD
BRANCH  23  25
ATOM     25  C   UNL     1     -43.825  29.316   4.571  0.00  0.00    +0.088 C 
ATOM     26  C   UNL     1     -44.435  30.199   3.683  0.00  0.00    +0.153 C 
ATOM     27  C   UNL     1     -43.535  29.724   5.873  0.00  0.00    +0.008 C 
ATOM     28  C   UNL     1     -44.757  31.492   4.095  0.00  0.00    +0.038 C 
ATOM     29  C   UNL     1     -43.855  31.017   6.286  0.00  0.00    +0.000 C 
ATOM     30  C   UNL     1     -44.467  31.901   5.397  0.00  0.00    +0.003 C 
BRANCH  26  31
ATOM     31  O   UNL     1     -44.727  29.818   2.406  0.00  0.00    -0.424 OA
BRANCH  31  33
ATOM     32  O   UNL     1     -42.654  30.288   1.426  0.00  0.00    -0.250 OA
ATOM     33  C   UNL     1     -43.874  30.369   1.436  0.00  0.00    +0.322 C 
ATOM     34  C   UNL     1     -44.681  31.089   0.396  0.00  0.00    +0.122 C 
ENDBRANCH  31  33
ENDBRANCH  26  31
ENDBRANCH  23  25
ENDBRANCH   2  22
BRANCH   3  36
ATOM     35  O   UNL     1     -39.717  23.072  -0.110  0.00  0.00    -0.245 OA
ATOM     36  C   UNL     1     -40.173  23.148   1.035  0.00  0.00    +0.339 C 
BRANCH  36  37
ATOM     37  O   UNL     1     -40.218  22.079   1.873  0.00  0.00    -0.477 OA
ATOM     38  H   UNL     1     -40.643  22.153   2.704  0.00  0.00    +0.295 HD
ENDBRANCH  36  37
ENDBRANCH   3  36
TORSDOF 10
ENDMDL
MODEL 9
REMARK VINA RESULT:      -6.4      1.775      9.070
REMARK  Name = 191315
REMARK  10 active torsions:
REMARK  status: ('A' for Active; 'I' for Inactive)
REMARK    1  A    between atoms: C_1  and  N_8
REMARK    2  A    between atoms: C_2  and  N_22
REMARK    3  A    between atoms: C_3  and  C_36
REMARK    4  A    between atoms: C_9  and  C_11
REMARK    5  A    between atoms: C_12  and  O_17
REMARK    6  A    between atoms: O_17  and  C_19
REMARK    7  A    between atoms: C_23  and  C_25
REMARK    8  A    between atoms: C_26  and  O_31
REMARK    9  A    between atoms: O_31  and  C_33
REMARK   10  A    between atoms: C_36  and  O_37
REMARK                            x       y       z     vdW  Elec       q    Type
REMARK                         _______ _______ _______ _____ _____    ______ ____
ROOT
ATOM      1  C   UNL     1     -42.579  26.583   3.012  0.00  0.00    +0.058 C 
ATOM      2  C   UNL     1     -40.468  25.407   3.009  0.00  0.00    +0.052 C 
ATOM      3  C   UNL     1     -42.898  26.012   1.780  0.00  0.00    +0.089 C 
ATOM      4  C   UNL     1     -41.364  26.281   3.627  0.00  0.00    +0.030 C 
ATOM      5  C   UNL     1     -40.788  24.835   1.777  0.00  0.00    +0.015 C 
ATOM      6  C   UNL     1     -42.003  25.138   1.164  0.00  0.00    +0.009 C 
ENDROOT
BRANCH   1   8
ATOM      7  O   UNL     1     -42.027  28.960   4.753  0.00  0.00    -0.270 OA
ATOM      8  N   UNL     1     -43.461  27.461   3.648  0.00  0.00    -0.280 N 
ATOM      9  C   UNL     1     -43.146  28.561   4.454  0.00  0.00    +0.252 C 
ATOM     10  H   UNL     1     -44.420  27.284   3.513  0.00  0.00    +0.155 HD
BRANCH   9  11
ATOM     11  C   UNL     1     -44.314  29.290   5.017  0.00  0.00    +0.088 C 
ATOM     12  C   UNL     1     -45.351  28.602   5.648  0.00  0.00    +0.153 C 
ATOM     13  C   UNL     1     -44.365  30.679   4.906  0.00  0.00    +0.008 C 
ATOM     14  C   UNL     1     -46.437  29.305   6.168  0.00  0.00    +0.038 C 
ATOM     15  C   UNL     1     -45.452  31.382   5.426  0.00  0.00    +0.000 C 
ATOM     16  C   UNL     1     -46.488  30.694   6.057  0.00  0.00    +0.003 C 
BRANCH  12  17
ATOM     17  O   UNL     1     -45.320  27.246   5.766  0.00  0.00    -0.424 OA
BRANCH  17  19
ATOM     18  O   UNL     1     -46.512  26.733   3.818  0.00  0.00    -0.250 OA
ATOM     19  C   UNL     1     -46.303  26.583   5.014  0.00  0.00    +0.322 C 
ATOM     20  C   UNL     1     -47.078  25.649   5.895  0.00  0.00    +0.122 C 
ENDBRANCH  17  19
ENDBRANCH  12  17
ENDBRANCH   9  11
ENDBRANCH   1   8
BRANCH   2  22
ATOM     21  O   UNL     1     -37.707  26.429   2.444  0.00  0.00    -0.270 OA
ATOM     22  N   UNL     1     -39.252  25.105   3.623  0.00  0.00    -0.280 N 
ATOM     23  C   UNL     1     -37.982  25.614   3.318  0.00  0.00    +0.252 C 
ATOM     24  H   UNL     1     -39.291  24.455   4.361  0.00  0.00    +0.155 HD
BRANCH  23  25
ATOM     25  C   UNL     1     -36.866  25.075   4.138  0.00  0.00    +0.088 C 
ATOM     26  C   UNL     1     -36.573  23.712   4.141  0.00  0.00    +0.153 C 
ATOM     27  C   UNL     1     -36.108  25.953   4.912  0.00  0.00    +0.008 C 
ATOM     28  C   UNL     1     -35.521  23.226   4.917  0.00  0.00    +0.038 C 
ATOM     29  C   UNL     1     -35.056  25.467   5.690  0.00  0.00    +0.000 C 
ATOM     30  C   UNL     1     -34.763  24.104   5.692  0.00  0.00    +0.003 C 
BRANCH  26  31
ATOM     31  O   UNL     1     -37.303  22.838   3.390  0.00  0.00    -0.424 OA
BRANCH  31  33
ATOM     32  O   UNL     1     -36.275  23.141   1.309  0.00  0.00    -0.250 OA
ATOM     33  C   UNL     1     -36.658  22.416   2.217  0.00  0.00    +0.322 C 
ATOM     34  C   UNL     1     -36.504  20.923   2.227  0.00  0.00    +0.122 C 
ENDBRANCH  31  33
ENDBRANCH  26  31
ENDBRANCH  23  25
ENDBRANCH   2  22
BRANCH   3  36
ATOM     35  O   UNL     1     -44.298  27.084   0.163  0.00  0.00    -0.245 OA
ATOM     36  C   UNL     1     -44.159  26.306   1.111  0.00  0.00    +0.339 C 
BRANCH  36  37
ATOM     37  O   UNL     1     -45.203  25.619   1.648  0.00  0.00    -0.477 OA
ATOM     38  H   UNL     1     -45.689  25.987   2.359  0.00  0.00    +0.295 HD
ENDBRANCH  36  37
ENDBRANCH   3  36
TORSDOF 10
ENDMDL
