MODEL 1
REMARK VINA RESULT:      -5.3      0.000      0.000
REMARK  Name = 5460580
REMARK  5 active torsions:
REMARK  status: ('A' for Active; 'I' for Inactive)
REMARK    1  A    between atoms: C_1  and  O_12
REMARK    2  A    between atoms: C_2  and  O_10
REMARK    3  A    between atoms: C_3  and  C_9
REMARK    4  A    between atoms: O_12  and  C_13
REMARK    5  A    between atoms: C_13  and  C_17
REMARK                            x       y       z     vdW  Elec       q    Type
REMARK                         _______ _______ _______ _____ _____    ______ ____
ROOT
ATOM      1  C   UNL     1     -37.259  24.672   3.456  0.00  0.00    +0.179 C 
ATOM      2  C   UNL     1     -36.528  23.313   3.589  0.00  0.00    +0.175 C 
ATOM      3  C   UNL     1     -35.719  23.174   4.848  0.00  0.00    +0.116 C 
ATOM      4  C   UNL     1     -36.670  25.780   4.289  0.00  0.00    +0.041 C 
ATOM      5  C   UNL     1     -35.393  24.212   5.629  0.00  0.00    +0.010 C 
ATOM      6  C   UNL     1     -35.798  25.551   5.281  0.00  0.00    +0.004 C 
ENDROOT
BRANCH   3   9
ATOM      7  O   UNL     1     -34.903  21.719   6.500  0.00  0.00    -0.240 OA
ATOM      8  O   UNL     1     -35.253  20.920   4.385  0.00  0.00    -0.240 OA
ATOM      9  C   UNL     1     -35.245  21.804   5.286  0.00  0.00    +0.391 C 
ENDBRANCH   3   9
BRANCH   2  10
ATOM     10  O   UNL     1     -35.625  23.157   2.493  0.00  0.00    -0.503 OA
ATOM     11  H   UNL     1     -36.130  23.036   1.673  0.00  0.00    +0.292 HD
ENDBRANCH   2  10
BRANCH   1  12
ATOM     12  O   UNL     1     -38.618  24.493   3.858  0.00  0.00    -0.444 OA
BRANCH  12  13
ATOM     13  C   UNL     1     -39.471  24.709   2.831  0.00  0.00    +0.225 C 
ATOM     14  C   UNL     1     -39.913  23.685   2.095  0.00  0.00    +0.048 C 
BRANCH  13  17
ATOM     15  O   UNL     1     -40.769  26.622   3.363  0.00  0.00    -0.237 OA
ATOM     16  O   UNL     1     -39.351  26.742   1.580  0.00  0.00    -0.237 OA
ATOM     17  C   UNL     1     -39.901  26.166   2.561  0.00  0.00    +0.422 C 
ENDBRANCH  13  17
ENDBRANCH  12  13
ENDBRANCH   1  12
TORSDOF 5
ENDMDL
MODEL 2
REMARK VINA RESULT:      -5.3      2.494      5.153
REMARK  Name = 5460580
REMARK  5 active torsions:
REMARK  status: ('A' for Active; 'I' for Inactive)
REMARK    1  A    between atoms: C_1  and  O_12
REMARK    2  A    between atoms: C_2  and  O_10
REMARK    3  A    between atoms: C_3  and  C_9
REMARK    4  A    between atoms: O_12  and  C_13
REMARK    5  A    between atoms: C_13  and  C_17
REMARK                            x       y       z     vdW  Elec       q    Type
REMARK                         _______ _______ _______ _____ _____    ______ ____
ROOT
ATOM      1  C   UNL     1     -36.406  23.133   3.377  0.00  0.00    +0.179 C 
ATOM      2  C   UNL     1     -37.785  23.382   2.719  0.00  0.00    +0.175 C 
ATOM      3  C   UNL     1     -38.378  22.168   2.061  0.00  0.00    +0.116 C 
ATOM      4  C   UNL     1     -35.667  21.935   2.843  0.00  0.00    +0.041 C 
ATOM      5  C   UNL     1     -37.669  21.065   1.784  0.00  0.00    +0.010 C 
ATOM      6  C   UNL     1     -36.264  20.995   2.095  0.00  0.00    +0.004 C 
ENDROOT
BRANCH   3   9
ATOM      7  O   UNL     1     -40.426  23.277   1.768  0.00  0.00    -0.240 OA
ATOM      8  O   UNL     1     -40.305  21.030   1.354  0.00  0.00    -0.240 OA
ATOM      9  C   UNL     1     -39.846  22.156   1.692  0.00  0.00    +0.391 C 
ENDBRANCH   3   9
BRANCH   2  10
ATOM     10  O   UNL     1     -37.648  24.381   1.706  0.00  0.00    -0.503 OA
ATOM     11  H   UNL     1     -38.257  25.114   1.890  0.00  0.00    +0.292 HD
ENDBRANCH   2  10
BRANCH   1  12
ATOM     12  O   UNL     1     -36.605  22.939   4.778  0.00  0.00    -0.444 OA
BRANCH  12  13
ATOM     13  C   UNL     1     -35.474  23.183   5.479  0.00  0.00    +0.225 C 
ATOM     14  C   UNL     1     -34.963  22.245   6.282  0.00  0.00    +0.048 C 
BRANCH  13  17
ATOM     15  O   UNL     1     -35.519  25.544   5.706  0.00  0.00    -0.237 OA
ATOM     16  O   UNL     1     -33.665  24.584   4.787  0.00  0.00    -0.237 OA
ATOM     17  C   UNL     1     -34.818  24.568   5.306  0.00  0.00    +0.422 C 
ENDBRANCH  13  17
ENDBRANCH  12  13
ENDBRANCH   1  12
TORSDOF 5
ENDMDL
MODEL 3
REMARK VINA RESULT:      -5.2      1.067      1.765
REMARK  Name = 5460580
REMARK  5 active torsions:
REMARK  status: ('A' for Active; 'I' for Inactive)
REMARK    1  A    between atoms: C_1  and  O_12
REMARK    2  A    between atoms: C_2  and  O_10
REMARK    3  A    between atoms: C_3  and  C_9
REMARK    4  A    between atoms: O_12  and  C_13
REMARK    5  A    between atoms: C_13  and  C_17
REMARK                            x       y       z     vdW  Elec       q    Type
REMARK                         _______ _______ _______ _____ _____    ______ ____
ROOT
ATOM      1  C   UNL     1     -37.341  24.591   3.408  0.00  0.00    +0.179 C 
ATOM      2  C   UNL     1     -36.595  23.244   3.575  0.00  0.00    +0.175 C 
ATOM      3  C   UNL     1     -35.752  23.161   4.816  0.00  0.00    +0.116 C 
ATOM      4  C   UNL     1     -36.741  25.736   4.180  0.00  0.00    +0.041 C 
ATOM      5  C   UNL     1     -35.415  24.233   5.547  0.00  0.00    +0.010 C 
ATOM      6  C   UNL     1     -35.841  25.553   5.157  0.00  0.00    +0.004 C 
ENDROOT
BRANCH   3   9
ATOM      7  O   UNL     1     -35.225  20.909   4.414  0.00  0.00    -0.240 OA
ATOM      8  O   UNL     1     -34.931  21.765   6.515  0.00  0.00    -0.240 OA
ATOM      9  C   UNL     1     -35.254  21.814   5.296  0.00  0.00    +0.391 C 
ENDBRANCH   3   9
BRANCH   2  10
ATOM     10  O   UNL     1     -35.719  23.053   2.462  0.00  0.00    -0.503 OA
ATOM     11  H   UNL     1     -34.907  22.615   2.762  0.00  0.00    +0.292 HD
ENDBRANCH   2  10
BRANCH   1  12
ATOM     12  O   UNL     1     -38.687  24.417   3.853  0.00  0.00    -0.444 OA
BRANCH  12  13
ATOM     13  C   UNL     1     -39.575  24.724   2.879  0.00  0.00    +0.225 C 
ATOM     14  C   UNL     1     -40.210  25.900   2.893  0.00  0.00    +0.048 C 
BRANCH  13  17
ATOM     15  O   UNL     1     -40.148  22.526   2.196  0.00  0.00    -0.237 OA
ATOM     16  O   UNL     1     -39.638  24.058   0.585  0.00  0.00    -0.237 OA
ATOM     17  C   UNL     1     -39.809  23.672   1.776  0.00  0.00    +0.422 C 
ENDBRANCH  13  17
ENDBRANCH  12  13
ENDBRANCH   1  12
TORSDOF 5
ENDMDL
MODEL 4
REMARK VINA RESULT:      -5.2      2.538      4.846
REMARK  Name = 5460580
REMARK  5 active torsions:
REMARK  status: ('A' for Active; 'I' for Inactive)
REMARK    1  A    between atoms: C_1  and  O_12
REMARK    2  A    between atoms: C_2  and  O_10
REMARK    3  A    between atoms: C_3  and  C_9
REMARK    4  A    between atoms: O_12  and  C_13
REMARK    5  A    between atoms: C_13  and  C_17
REMARK                            x       y       z     vdW  Elec       q    Type
REMARK                         _______ _______ _______ _____ _____    ______ ____
ROOT
ATOM      1  C   UNL     1     -36.280  22.825   3.829  0.00  0.00    +0.179 C 
ATOM      2  C   UNL     1     -36.228  24.358   4.046  0.00  0.00    +0.175 C 
ATOM      3  C   UNL     1     -35.240  24.794   5.092  0.00  0.00    +0.116 C 
ATOM      4  C   UNL     1     -35.758  22.014   4.984  0.00  0.00    +0.041 C 
ATOM      5  C   UNL     1     -34.685  23.952   5.974  0.00  0.00    +0.010 C 
ATOM      6  C   UNL     1     -35.034  22.553   5.975  0.00  0.00    +0.004 C 
ENDROOT
BRANCH   3   9
ATOM      7  O   UNL     1     -35.369  27.007   4.318  0.00  0.00    -0.240 OA
ATOM      8  O   UNL     1     -33.982  26.517   6.071  0.00  0.00    -0.240 OA
ATOM      9  C   UNL     1     -34.822  26.248   5.168  0.00  0.00    +0.391 C 
ENDBRANCH   3   9
BRANCH   2  10
ATOM     10  O   UNL     1     -37.513  24.815   4.470  0.00  0.00    -0.503 OA
ATOM     11  H   UNL     1     -37.464  25.759   4.692  0.00  0.00    +0.292 HD
ENDBRANCH   2  10
BRANCH   1  12
ATOM     12  O   UNL     1     -35.497  22.508   2.677  0.00  0.00    -0.444 OA
BRANCH  12  13
ATOM     13  C   UNL     1     -36.179  21.719   1.816  0.00  0.00    +0.225 C 
ATOM     14  C   UNL     1     -37.145  22.234   1.049  0.00  0.00    +0.048 C 
BRANCH  13  17
ATOM     15  O   UNL     1     -36.583  19.493   1.100  0.00  0.00    -0.237 OA
ATOM     16  O   UNL     1     -34.740  19.897   2.382  0.00  0.00    -0.237 OA
ATOM     17  C   UNL     1     -35.791  20.227   1.763  0.00  0.00    +0.422 C 
ENDBRANCH  13  17
ENDBRANCH  12  13
ENDBRANCH   1  12
TORSDOF 5
ENDMDL
MODEL 5
REMARK VINA RESULT:      -5.2      2.551      3.918
REMARK  Name = 5460580
REMARK  5 active torsions:
REMARK  status: ('A' for Active; 'I' for Inactive)
REMARK    1  A    between atoms: C_1  and  O_12
REMARK    2  A    between atoms: C_2  and  O_10
REMARK    3  A    between atoms: C_3  and  C_9
REMARK    4  A    between atoms: O_12  and  C_13
REMARK    5  A    between atoms: C_13  and  C_17
REMARK                            x       y       z     vdW  Elec       q    Type
REMARK                         _______ _______ _______ _____ _____    ______ ____
ROOT
ATOM      1  C   UNL     1     -36.864  24.543   4.281  0.00  0.00    +0.179 C 
ATOM      2  C   UNL     1     -36.134  25.908   4.286  0.00  0.00    +0.175 C 
ATOM      3  C   UNL     1     -34.636  25.801   4.358  0.00  0.00    +0.116 C 
ATOM      4  C   UNL     1     -36.058  23.402   4.843  0.00  0.00    +0.041 C 
ATOM      5  C   UNL     1     -33.997  24.674   4.700  0.00  0.00    +0.010 C 
ATOM      6  C   UNL     1     -34.735  23.485   5.044  0.00  0.00    +0.004 C 
ENDROOT
BRANCH   3   9
ATOM      7  O   UNL     1     -34.424  28.063   3.767  0.00  0.00    -0.240 OA
ATOM      8  O   UNL     1     -32.536  26.799   4.035  0.00  0.00    -0.240 OA
ATOM      9  C   UNL     1     -33.782  27.005   4.020  0.00  0.00    +0.391 C 
ENDBRANCH   3   9
BRANCH   2  10
ATOM     10  O   UNL     1     -36.553  26.660   5.427  0.00  0.00    -0.503 OA
ATOM     11  H   UNL     1     -36.928  27.506   5.136  0.00  0.00    +0.292 HD
ENDBRANCH   2  10
BRANCH   1  12
ATOM     12  O   UNL     1     -37.202  24.220   2.931  0.00  0.00    -0.444 OA
BRANCH  12  13
ATOM     13  C   UNL     1     -38.505  23.873   2.815  0.00  0.00    +0.225 C 
ATOM     14  C   UNL     1     -39.465  24.741   3.148  0.00  0.00    +0.048 C 
BRANCH  13  17
ATOM     15  O   UNL     1     -40.044  22.229   2.071  0.00  0.00    -0.237 OA
ATOM     16  O   UNL     1     -37.830  21.685   2.132  0.00  0.00    -0.237 OA
ATOM     17  C   UNL     1     -38.818  22.458   2.288  0.00  0.00    +0.422 C 
ENDBRANCH  13  17
ENDBRANCH  12  13
ENDBRANCH   1  12
TORSDOF 5
ENDMDL
MODEL 6
REMARK VINA RESULT:      -5.1      2.723      5.134
REMARK  Name = 5460580
REMARK  5 active torsions:
REMARK  status: ('A' for Active; 'I' for Inactive)
REMARK    1  A    between atoms: C_1  and  O_12
REMARK    2  A    between atoms: C_2  and  O_10
REMARK    3  A    between atoms: C_3  and  C_9
REMARK    4  A    between atoms: O_12  and  C_13
REMARK    5  A    between atoms: C_13  and  C_17
REMARK                            x       y       z     vdW  Elec       q    Type
REMARK                         _______ _______ _______ _____ _____    ______ ____
ROOT
ATOM      1  C   UNL     1     -35.964  22.528   3.391  0.00  0.00    +0.179 C 
ATOM      2  C   UNL     1     -36.128  23.983   3.893  0.00  0.00    +0.175 C 
ATOM      3  C   UNL     1     -35.427  24.265   5.192  0.00  0.00    +0.116 C 
ATOM      4  C   UNL     1     -35.598  21.536   4.463  0.00  0.00    +0.041 C 
ATOM      5  C   UNL     1     -34.972  23.301   6.004  0.00  0.00    +0.010 C 
ATOM      6  C   UNL     1     -35.155  21.911   5.671  0.00  0.00    +0.004 C 
ENDROOT
BRANCH   3   9
ATOM      7  O   UNL     1     -36.196  26.463   5.490  0.00  0.00    -0.240 OA
ATOM      8  O   UNL     1     -34.042  25.947   6.066  0.00  0.00    -0.240 OA
ATOM      9  C   UNL     1     -35.199  25.698   5.625  0.00  0.00    +0.391 C 
ENDBRANCH   3   9
BRANCH   2  10
ATOM     10  O   UNL     1     -37.516  24.254   4.100  0.00  0.00    -0.503 OA
ATOM     11  H   UNL     1     -37.626  24.777   4.910  0.00  0.00    +0.292 HD
ENDBRANCH   2  10
BRANCH   1  12
ATOM     12  O   UNL     1     -34.934  22.507   2.402  0.00  0.00    -0.444 OA
BRANCH  12  13
ATOM     13  C   UNL     1     -35.225  21.646   1.400  0.00  0.00    +0.225 C 
ATOM     14  C   UNL     1     -36.383  21.747   0.739  0.00  0.00    +0.048 C 
BRANCH  13  17
ATOM     15  O   UNL     1     -34.173  19.566   1.839  0.00  0.00    -0.237 OA
ATOM     16  O   UNL     1     -33.434  20.796   0.066  0.00  0.00    -0.237 OA
ATOM     17  C   UNL     1     -34.175  20.568   1.064  0.00  0.00    +0.422 C 
ENDBRANCH  13  17
ENDBRANCH  12  13
ENDBRANCH   1  12
TORSDOF 5
ENDMDL
MODEL 7
REMARK VINA RESULT:      -5.1      2.421      5.212
REMARK  Name = 5460580
REMARK  5 active torsions:
REMARK  status: ('A' for Active; 'I' for Inactive)
REMARK    1  A    between atoms: C_1  and  O_12
REMARK    2  A    between atoms: C_2  and  O_10
REMARK    3  A    between atoms: C_3  and  C_9
REMARK    4  A    between atoms: O_12  and  C_13
REMARK    5  A    between atoms: C_13  and  C_17
REMARK                            x       y       z     vdW  Elec       q    Type
REMARK                         _______ _______ _______ _____ _____    ______ ____
ROOT
ATOM      1  C   UNL     1     -35.132  24.895   5.120  0.00  0.00    +0.179 C 
ATOM      2  C   UNL     1     -36.068  25.479   4.033  0.00  0.00    +0.175 C 
ATOM      3  C   UNL     1     -35.463  26.608   3.246  0.00  0.00    +0.116 C 
ATOM      4  C   UNL     1     -34.030  25.822   5.558  0.00  0.00    +0.041 C 
ATOM      5  C   UNL     1     -34.360  27.263   3.634  0.00  0.00    +0.010 C 
ATOM      6  C   UNL     1     -33.696  26.921   4.866  0.00  0.00    +0.004 C 
ENDROOT
BRANCH   3   9
ATOM      7  O   UNL     1     -37.344  27.256   2.001  0.00  0.00    -0.240 OA
ATOM      8  O   UNL     1     -35.309  27.127   0.962  0.00  0.00    -0.240 OA
ATOM      9  C   UNL     1     -36.100  27.039   1.942  0.00  0.00    +0.391 C 
ENDBRANCH   3   9
BRANCH   2  10
ATOM     10  O   UNL     1     -37.248  25.990   4.656  0.00  0.00    -0.503 OA
ATOM     11  H   UNL     1     -37.006  26.465   5.466  0.00  0.00    +0.292 HD
ENDBRANCH   2  10
BRANCH   1  12
ATOM     12  O   UNL     1     -34.529  23.707   4.603  0.00  0.00    -0.444 OA
BRANCH  12  13
ATOM     13  C   UNL     1     -35.246  22.606   4.924  0.00  0.00    +0.225 C 
ATOM     14  C   UNL     1     -35.458  22.290   6.205  0.00  0.00    +0.048 C 
BRANCH  13  17
ATOM     15  O   UNL     1     -35.255  20.617   3.633  0.00  0.00    -0.237 OA
ATOM     16  O   UNL     1     -36.715  22.275   3.068  0.00  0.00    -0.237 OA
ATOM     17  C   UNL     1     -35.796  21.754   3.762  0.00  0.00    +0.422 C 
ENDBRANCH  13  17
ENDBRANCH  12  13
ENDBRANCH   1  12
TORSDOF 5
ENDMDL
MODEL 8
REMARK VINA RESULT:      -5.1      2.751      4.495
REMARK  Name = 5460580
REMARK  5 active torsions:
REMARK  status: ('A' for Active; 'I' for Inactive)
REMARK    1  A    between atoms: C_1  and  O_12
REMARK    2  A    between atoms: C_2  and  O_10
REMARK    3  A    between atoms: C_3  and  C_9
REMARK    4  A    between atoms: O_12  and  C_13
REMARK    5  A    between atoms: C_13  and  C_17
REMARK                            x       y       z     vdW  Elec       q    Type
REMARK                         _______ _______ _______ _____ _____    ______ ____
ROOT
ATOM      1  C   UNL     1     -35.501  24.895   2.822  0.00  0.00    +0.179 C 
ATOM      2  C   UNL     1     -35.811  24.153   4.146  0.00  0.00    +0.175 C 
ATOM      3  C   UNL     1     -35.583  22.669   4.084  0.00  0.00    +0.116 C 
ATOM      4  C   UNL     1     -35.525  24.020   1.597  0.00  0.00    +0.041 C 
ATOM      5  C   UNL     1     -35.435  21.997   2.934  0.00  0.00    +0.010 C 
ATOM      6  C   UNL     1     -35.508  22.681   1.667  0.00  0.00    +0.004 C 
ENDROOT
BRANCH   3   9
ATOM      7  O   UNL     1     -35.008  20.712   5.245  0.00  0.00    -0.240 OA
ATOM      8  O   UNL     1     -35.932  22.460   6.395  0.00  0.00    -0.240 OA
ATOM      9  C   UNL     1     -35.500  21.869   5.367  0.00  0.00    +0.391 C 
ENDBRANCH   3   9
BRANCH   2  10
ATOM     10  O   UNL     1     -37.185  24.351   4.483  0.00  0.00    -0.503 OA
ATOM     11  H   UNL     1     -37.566  25.030   3.904  0.00  0.00    +0.292 HD
ENDBRANCH   2  10
BRANCH   1  12
ATOM     12  O   UNL     1     -34.199  25.473   2.925  0.00  0.00    -0.444 OA
BRANCH  12  13
ATOM     13  C   UNL     1     -34.244  26.699   3.495  0.00  0.00    +0.225 C 
ATOM     14  C   UNL     1     -35.029  27.652   2.984  0.00  0.00    +0.048 C 
BRANCH  13  17
ATOM     15  O   UNL     1     -33.936  26.707   5.847  0.00  0.00    -0.237 OA
ATOM     16  O   UNL     1     -32.182  27.326   4.527  0.00  0.00    -0.237 OA
ATOM     17  C   UNL     1     -33.364  26.934   4.740  0.00  0.00    +0.422 C 
ENDBRANCH  13  17
ENDBRANCH  12  13
ENDBRANCH   1  12
TORSDOF 5
ENDMDL
MODEL 9
REMARK VINA RESULT:      -5.1      1.672      2.581
REMARK  Name = 5460580
REMARK  5 active torsions:
REMARK  status: ('A' for Active; 'I' for Inactive)
REMARK    1  A    between atoms: C_1  and  O_12
REMARK    2  A    between atoms: C_2  and  O_10
REMARK    3  A    between atoms: C_3  and  C_9
REMARK    4  A    between atoms: O_12  and  C_13
REMARK    5  A    between atoms: C_13  and  C_17
REMARK                            x       y       z     vdW  Elec       q    Type
REMARK                         _______ _______ _______ _____ _____    ______ ____
ROOT
ATOM      1  C   UNL     1     -35.905  24.251   4.181  0.00  0.00    +0.179 C 
ATOM      2  C   UNL     1     -35.724  23.185   3.074  0.00  0.00    +0.175 C 
ATOM      3  C   UNL     1     -35.543  21.786   3.594  0.00  0.00    +0.116 C 
ATOM      4  C   UNL     1     -35.381  23.843   5.532  0.00  0.00    +0.041 C 
ATOM      5  C   UNL     1     -35.250  21.512   4.872  0.00  0.00    +0.010 C 
ATOM      6  C   UNL     1     -35.069  22.573   5.831  0.00  0.00    +0.004 C 
ENDROOT
BRANCH   3   9
ATOM      7  O   UNL     1     -36.848  20.504   2.123  0.00  0.00    -0.240 OA
ATOM      8  O   UNL     1     -34.682  19.884   2.522  0.00  0.00    -0.240 OA
ATOM      9  C   UNL     1     -35.707  20.610   2.655  0.00  0.00    +0.391 C 
ENDBRANCH   3   9
BRANCH   2  10
ATOM     10  O   UNL     1     -34.560  23.498   2.307  0.00  0.00    -0.503 OA
ATOM     11  H   UNL     1     -34.617  23.064   1.441  0.00  0.00    +0.292 HD
ENDBRANCH   2  10
BRANCH   1  12
ATOM     12  O   UNL     1     -37.300  24.528   4.315  0.00  0.00    -0.444 OA
BRANCH  12  13
ATOM     13  C   UNL     1     -37.702  25.487   3.450  0.00  0.00    +0.225 C 
ATOM     14  C   UNL     1     -36.810  26.324   2.910  0.00  0.00    +0.048 C 
BRANCH  13  17
ATOM     15  O   UNL     1     -39.541  26.521   2.366  0.00  0.00    -0.237 OA
ATOM     16  O   UNL     1     -39.940  24.671   3.640  0.00  0.00    -0.237 OA
ATOM     17  C   UNL     1     -39.207  25.562   3.123  0.00  0.00    +0.422 C 
ENDBRANCH  13  17
ENDBRANCH  12  13
ENDBRANCH   1  12
TORSDOF 5
ENDMDL
