MODEL 1
REMARK VINA RESULT:      -5.9      0.000      0.000
REMARK  Name = 195523
REMARK  4 active torsions:
REMARK  status: ('A' for Active; 'I' for Inactive)
REMARK    1  A    between atoms: C_4  and  C_12
REMARK    2  A    between atoms: C_8  and  N_23
REMARK    3  A    between atoms: C_13  and  O_21
REMARK    4  A    between atoms: C_15  and  S_18
REMARK                            x       y       z     vdW  Elec       q    Type
REMARK                         _______ _______ _______ _____ _____    ______ ____
ROOT
ATOM      1  N   UNL     1     -35.376  22.605   2.026  0.00  0.00    -0.313 N 
ATOM      2  N   UNL     1     -35.562  21.287   3.811  0.00  0.00    -0.300 N 
ATOM      3  N   UNL     1     -35.890  23.050   5.447  0.00  0.00    -0.227 NA
ATOM      4  C   UNL     1     -35.377  21.325   2.510  0.00  0.00    +0.172 C 
ATOM      5  C   UNL     1     -35.573  23.448   3.086  0.00  0.00    +0.079 C 
ATOM      6  C   UNL     1     -35.685  22.602   4.184  0.00  0.00    +0.143 C 
ATOM      7  C   UNL     1     -35.665  24.830   3.209  0.00  0.00    +0.033 C 
ATOM      8  C   UNL     1     -35.874  25.306   4.501  0.00  0.00    +0.062 C 
ATOM      9  C   UNL     1     -35.976  24.397   5.549  0.00  0.00    +0.114 C 
ATOM     10  H   UNL     1     -35.255  22.872   1.085  0.00  0.00    +0.149 HD
ATOM     11  H   UNL     1     -35.602  20.492   4.390  0.00  0.00    +0.150 HD
ENDROOT
BRANCH   4  12
ATOM     12  C   UNL     1     -35.193  20.183   1.646  0.00  0.00    +0.048 C 
ATOM     13  C   UNL     1     -36.223  19.735   0.819  0.00  0.00    +0.138 C 
ATOM     14  C   UNL     1     -33.963  19.523   1.646  0.00  0.00    +0.003 C 
ATOM     15  C   UNL     1     -34.796  17.969  -0.008  0.00  0.00    +0.059 C 
ATOM     16  C   UNL     1     -36.026  18.629  -0.008  0.00  0.00    +0.045 C 
ATOM     17  C   UNL     1     -33.765  18.416   0.819  0.00  0.00    +0.009 C 
BRANCH  15  18
ATOM     18  S   UNL     1     -34.540  16.548  -1.069  0.00  0.00    +0.066 S 
ATOM     19  O   UNL     1     -35.661  15.587  -0.783  0.00  0.00    -0.251 OA
ATOM     20  C   UNL     1     -33.061  15.899  -0.246  0.00  0.00    +0.111 C 
ENDBRANCH  15  18
BRANCH  13  21
ATOM     21  O   UNL     1     -37.434  20.363   0.797  0.00  0.00    -0.472 OA
ATOM     22  C   UNL     1     -38.338  19.989  -0.239  0.00  0.00    +0.252 C 
ENDBRANCH  13  21
ENDBRANCH   4  12
BRANCH   8  23
ATOM     23  N   UNL     1     -35.982  26.688   4.740  0.00  0.00    -0.356 N 
ATOM     24  H   UNL     1     -35.212  27.189   5.093  0.00  0.00    +0.142 HD
ATOM     25  H   UNL     1     -36.829  27.155   4.552  0.00  0.00    +0.142 HD
ENDBRANCH   8  23
TORSDOF 4
ENDMDL
MODEL 2
REMARK VINA RESULT:      -5.8      5.631      8.794
REMARK  Name = 195523
REMARK  4 active torsions:
REMARK  status: ('A' for Active; 'I' for Inactive)
REMARK    1  A    between atoms: C_4  and  C_12
REMARK    2  A    between atoms: C_8  and  N_23
REMARK    3  A    between atoms: C_13  and  O_21
REMARK    4  A    between atoms: C_15  and  S_18
REMARK                            x       y       z     vdW  Elec       q    Type
REMARK                         _______ _______ _______ _____ _____    ______ ____
ROOT
ATOM      1  N   UNL     1     -34.579  24.072   4.098  0.00  0.00    -0.313 N 
ATOM      2  N   UNL     1     -36.168  25.628   3.991  0.00  0.00    -0.300 N 
ATOM      3  N   UNL     1     -37.900  24.218   3.040  0.00  0.00    -0.227 NA
ATOM      4  C   UNL     1     -34.924  25.375   4.333  0.00  0.00    +0.172 C 
ATOM      5  C   UNL     1     -35.674  23.443   3.569  0.00  0.00    +0.079 C 
ATOM      6  C   UNL     1     -36.648  24.434   3.512  0.00  0.00    +0.143 C 
ATOM      7  C   UNL     1     -35.920  22.144   3.139  0.00  0.00    +0.033 C 
ATOM      8  C   UNL     1     -37.202  21.906   2.650  0.00  0.00    +0.062 C 
ATOM      9  C   UNL     1     -38.123  22.948   2.625  0.00  0.00    +0.114 C 
ATOM     10  H   UNL     1     -33.703  23.660   4.277  0.00  0.00    +0.149 HD
ATOM     11  H   UNL     1     -36.649  26.484   4.061  0.00  0.00    +0.150 HD
ENDROOT
BRANCH   4  12
ATOM     12  C   UNL     1     -33.990  26.321   4.896  0.00  0.00    +0.048 C 
ATOM     13  C   UNL     1     -33.390  27.297   4.101  0.00  0.00    +0.138 C 
ATOM     14  C   UNL     1     -33.688  26.249   6.257  0.00  0.00    +0.003 C 
ATOM     15  C   UNL     1     -32.188  28.130   6.023  0.00  0.00    +0.059 C 
ATOM     16  C   UNL     1     -32.489  28.201   4.663  0.00  0.00    +0.045 C 
ATOM     17  C   UNL     1     -32.787  27.154   6.820  0.00  0.00    +0.009 C 
BRANCH  15  18
ATOM     18  S   UNL     1     -31.030  29.291   6.748  0.00  0.00    +0.066 S 
ATOM     19  O   UNL     1     -31.037  30.512   5.872  0.00  0.00    -0.251 OA
ATOM     20  C   UNL     1     -29.510  28.376   6.375  0.00  0.00    +0.111 C 
ENDBRANCH  15  18
BRANCH  13  21
ATOM     21  O   UNL     1     -33.669  27.391   2.769  0.00  0.00    -0.472 OA
ATOM     22  C   UNL     1     -34.432  28.518   2.346  0.00  0.00    +0.252 C 
ENDBRANCH  13  21
ENDBRANCH   4  12
BRANCH   8  23
ATOM     23  N   UNL     1     -37.559  20.625   2.188  0.00  0.00    -0.356 N 
ATOM     24  H   UNL     1     -38.356  20.176   2.551  0.00  0.00    +0.142 HD
ATOM     25  H   UNL     1     -37.011  20.179   1.502  0.00  0.00    +0.142 HD
ENDBRANCH   8  23
TORSDOF 4
ENDMDL
MODEL 3
REMARK VINA RESULT:      -5.8      2.101      2.929
REMARK  Name = 195523
REMARK  4 active torsions:
REMARK  status: ('A' for Active; 'I' for Inactive)
REMARK    1  A    between atoms: C_4  and  C_12
REMARK    2  A    between atoms: C_8  and  N_23
REMARK    3  A    between atoms: C_13  and  O_21
REMARK    4  A    between atoms: C_15  and  S_18
REMARK                            x       y       z     vdW  Elec       q    Type
REMARK                         _______ _______ _______ _____ _____    ______ ____
ROOT
ATOM      1  N   UNL     1     -35.301  23.152   2.281  0.00  0.00    -0.313 N 
ATOM      2  N   UNL     1     -37.040  22.798   3.625  0.00  0.00    -0.300 N 
ATOM      3  N   UNL     1     -36.522  24.532   5.243  0.00  0.00    -0.227 NA
ATOM      4  C   UNL     1     -36.428  22.416   2.526  0.00  0.00    +0.172 C 
ATOM      5  C   UNL     1     -35.178  24.068   3.290  0.00  0.00    +0.079 C 
ATOM      6  C   UNL     1     -36.273  23.826   4.113  0.00  0.00    +0.143 C 
ATOM      7  C   UNL     1     -34.250  25.065   3.574  0.00  0.00    +0.033 C 
ATOM      8  C   UNL     1     -34.492  25.798   4.733  0.00  0.00    +0.062 C 
ATOM      9  C   UNL     1     -35.609  25.497   5.505  0.00  0.00    +0.114 C 
ATOM     10  H   UNL     1     -34.688  23.042   1.518  0.00  0.00    +0.149 HD
ATOM     11  H   UNL     1     -37.866  22.428   4.014  0.00  0.00    +0.150 HD
ENDROOT
BRANCH   4  12
ATOM     12  C   UNL     1     -36.852  21.355   1.645  0.00  0.00    +0.048 C 
ATOM     13  C   UNL     1     -36.084  20.201   1.488  0.00  0.00    +0.138 C 
ATOM     14  C   UNL     1     -38.050  21.494   0.941  0.00  0.00    +0.003 C 
ATOM     15  C   UNL     1     -37.707  19.326  -0.073  0.00  0.00    +0.059 C 
ATOM     16  C   UNL     1     -36.510  19.187   0.630  0.00  0.00    +0.045 C 
ATOM     17  C   UNL     1     -38.477  20.480   0.083  0.00  0.00    +0.009 C 
BRANCH  15  18
ATOM     18  S   UNL     1     -38.257  18.025  -1.176  0.00  0.00    +0.066 S 
ATOM     19  O   UNL     1     -39.759  18.007  -1.109  0.00  0.00    -0.251 OA
ATOM     20  C   UNL     1     -37.664  16.618  -0.198  0.00  0.00    +0.111 C 
ENDBRANCH  15  18
BRANCH  13  21
ATOM     21  O   UNL     1     -34.911  20.039   2.164  0.00  0.00    -0.472 OA
ATOM     22  C   UNL     1     -33.831  19.440   1.452  0.00  0.00    +0.252 C 
ENDBRANCH  13  21
ENDBRANCH   4  12
BRANCH   8  23
ATOM     23  N   UNL     1     -33.616  26.831   5.115  0.00  0.00    -0.356 N 
ATOM     24  H   UNL     1     -32.685  26.831   4.797  0.00  0.00    +0.142 HD
ATOM     25  H   UNL     1     -33.936  27.555   5.701  0.00  0.00    +0.142 HD
ENDBRANCH   8  23
TORSDOF 4
ENDMDL
MODEL 4
REMARK VINA RESULT:      -5.6      4.289      6.019
REMARK  Name = 195523
REMARK  4 active torsions:
REMARK  status: ('A' for Active; 'I' for Inactive)
REMARK    1  A    between atoms: C_4  and  C_12
REMARK    2  A    between atoms: C_8  and  N_23
REMARK    3  A    between atoms: C_13  and  O_21
REMARK    4  A    between atoms: C_15  and  S_18
REMARK                            x       y       z     vdW  Elec       q    Type
REMARK                         _______ _______ _______ _____ _____    ______ ____
ROOT
ATOM      1  N   UNL     1     -33.736  26.578   3.614  0.00  0.00    -0.313 N 
ATOM      2  N   UNL     1     -34.210  25.849   5.663  0.00  0.00    -0.300 N 
ATOM      3  N   UNL     1     -32.774  27.393   6.866  0.00  0.00    -0.227 NA
ATOM      4  C   UNL     1     -34.445  25.693   4.379  0.00  0.00    +0.172 C 
ATOM      5  C   UNL     1     -32.994  27.356   4.461  0.00  0.00    +0.079 C 
ATOM      6  C   UNL     1     -33.308  26.881   5.730  0.00  0.00    +0.143 C 
ATOM      7  C   UNL     1     -32.100  28.403   4.266  0.00  0.00    +0.033 C 
ATOM      8  C   UNL     1     -31.542  28.939   5.425  0.00  0.00    +0.062 C 
ATOM      9  C   UNL     1     -31.904  28.411   6.659  0.00  0.00    +0.114 C 
ATOM     10  H   UNL     1     -33.755  26.644   2.631  0.00  0.00    +0.149 HD
ATOM     11  H   UNL     1     -34.595  25.339   6.412  0.00  0.00    +0.150 HD
ENDROOT
BRANCH   4  12
ATOM     12  C   UNL     1     -35.336  24.721   3.793  0.00  0.00    +0.048 C 
ATOM     13  C   UNL     1     -35.439  23.432   4.317  0.00  0.00    +0.138 C 
ATOM     14  C   UNL     1     -36.102  25.083   2.683  0.00  0.00    +0.003 C 
ATOM     15  C   UNL     1     -37.070  22.870   2.626  0.00  0.00    +0.059 C 
ATOM     16  C   UNL     1     -36.305  22.507   3.735  0.00  0.00    +0.045 C 
ATOM     17  C   UNL     1     -36.969  24.159   2.101  0.00  0.00    +0.009 C 
BRANCH  15  18
ATOM     18  S   UNL     1     -38.184  21.682   1.877  0.00  0.00    +0.066 S 
ATOM     19  O   UNL     1     -37.806  21.593   0.424  0.00  0.00    -0.251 OA
ATOM     20  C   UNL     1     -39.695  22.678   1.973  0.00  0.00    +0.111 C 
ENDBRANCH  15  18
BRANCH  13  21
ATOM     21  O   UNL     1     -34.704  23.052   5.401  0.00  0.00    -0.472 OA
ATOM     22  C   UNL     1     -35.302  22.111   6.290  0.00  0.00    +0.252 C 
ENDBRANCH  13  21
ENDBRANCH   4  12
BRANCH   8  23
ATOM     23  N   UNL     1     -30.624  30.003   5.344  0.00  0.00    -0.356 N 
ATOM     24  H   UNL     1     -30.595  30.684   6.053  0.00  0.00    +0.142 HD
ATOM     25  H   UNL     1     -30.010  30.065   4.577  0.00  0.00    +0.142 HD
ENDBRANCH   8  23
TORSDOF 4
ENDMDL
MODEL 5
REMARK VINA RESULT:      -5.5      1.555      2.362
REMARK  Name = 195523
REMARK  4 active torsions:
REMARK  status: ('A' for Active; 'I' for Inactive)
REMARK    1  A    between atoms: C_4  and  C_12
REMARK    2  A    between atoms: C_8  and  N_23
REMARK    3  A    between atoms: C_13  and  O_21
REMARK    4  A    between atoms: C_15  and  S_18
REMARK                            x       y       z     vdW  Elec       q    Type
REMARK                         _______ _______ _______ _____ _____    ______ ____
ROOT
ATOM      1  N   UNL     1     -36.683  22.825   1.903  0.00  0.00    -0.313 N 
ATOM      2  N   UNL     1     -36.034  21.367   3.455  0.00  0.00    -0.300 N 
ATOM      3  N   UNL     1     -35.781  22.959   5.270  0.00  0.00    -0.227 NA
ATOM      4  C   UNL     1     -36.400  21.520   2.202  0.00  0.00    +0.172 C 
ATOM      5  C   UNL     1     -36.486  23.562   3.039  0.00  0.00    +0.079 C 
ATOM      6  C   UNL     1     -36.082  22.630   3.989  0.00  0.00    +0.143 C 
ATOM      7  C   UNL     1     -36.611  24.914   3.340  0.00  0.00    +0.033 C 
ATOM      8  C   UNL     1     -36.305  25.267   4.652  0.00  0.00    +0.062 C 
ATOM      9  C   UNL     1     -35.908  24.278   5.546  0.00  0.00    +0.114 C 
ATOM     10  H   UNL     1     -36.976  23.172   1.029  0.00  0.00    +0.149 HD
ATOM     11  H   UNL     1     -35.781  20.531   3.910  0.00  0.00    +0.150 HD
ENDROOT
BRANCH   4  12
ATOM     12  C   UNL     1     -36.509  20.471   1.216  0.00  0.00    +0.048 C 
ATOM     13  C   UNL     1     -35.460  19.579   0.998  0.00  0.00    +0.138 C 
ATOM     14  C   UNL     1     -37.685  20.357   0.473  0.00  0.00    +0.003 C 
ATOM     15  C   UNL     1     -36.760  18.459  -0.702  0.00  0.00    +0.059 C 
ATOM     16  C   UNL     1     -35.584  18.573   0.039  0.00  0.00    +0.045 C 
ATOM     17  C   UNL     1     -37.811  19.351  -0.486  0.00  0.00    +0.009 C 
BRANCH  15  18
ATOM     18  S   UNL     1     -36.922  17.167  -1.934  0.00  0.00    +0.066 S 
ATOM     19  O   UNL     1     -38.393  16.893  -2.083  0.00  0.00    -0.251 OA
ATOM     20  C   UNL     1     -36.226  15.812  -0.952  0.00  0.00    +0.111 C 
ENDBRANCH  15  18
BRANCH  13  21
ATOM     21  O   UNL     1     -34.300  19.666   1.711  0.00  0.00    -0.472 OA
ATOM     22  C   UNL     1     -33.124  19.144   1.099  0.00  0.00    +0.252 C 
ENDBRANCH  13  21
ENDBRANCH   4  12
BRANCH   8  23
ATOM     23  N   UNL     1     -36.398  26.609   5.066  0.00  0.00    -0.356 N 
ATOM     24  H   UNL     1     -37.264  26.977   5.354  0.00  0.00    +0.142 HD
ATOM     25  H   UNL     1     -35.595  27.180   5.066  0.00  0.00    +0.142 HD
ENDBRANCH   8  23
TORSDOF 4
ENDMDL
MODEL 6
REMARK VINA RESULT:      -5.4      6.080      9.503
REMARK  Name = 195523
REMARK  4 active torsions:
REMARK  status: ('A' for Active; 'I' for Inactive)
REMARK    1  A    between atoms: C_4  and  C_12
REMARK    2  A    between atoms: C_8  and  N_23
REMARK    3  A    between atoms: C_13  and  O_21
REMARK    4  A    between atoms: C_15  and  S_18
REMARK                            x       y       z     vdW  Elec       q    Type
REMARK                         _______ _______ _______ _____ _____    ______ ____
ROOT
ATOM      1  N   UNL     1     -34.356  25.760   4.928  0.00  0.00    -0.313 N 
ATOM      2  N   UNL     1     -34.671  25.435   2.748  0.00  0.00    -0.300 N 
ATOM      3  N   UNL     1     -35.328  23.102   2.889  0.00  0.00    -0.227 NA
ATOM      4  C   UNL     1     -34.327  26.304   3.673  0.00  0.00    +0.172 C 
ATOM      5  C   UNL     1     -34.745  24.454   4.804  0.00  0.00    +0.079 C 
ATOM      6  C   UNL     1     -34.934  24.278   3.438  0.00  0.00    +0.143 C 
ATOM      7  C   UNL     1     -34.949  23.422   5.715  0.00  0.00    +0.033 C 
ATOM      8  C   UNL     1     -35.353  22.208   5.165  0.00  0.00    +0.062 C 
ATOM      9  C   UNL     1     -35.522  22.109   3.788  0.00  0.00    +0.114 C 
ATOM     10  H   UNL     1     -34.137  26.224   5.769  0.00  0.00    +0.149 HD
ATOM     11  H   UNL     1     -34.728  25.582   1.777  0.00  0.00    +0.150 HD
ENDROOT
BRANCH   4  12
ATOM     12  C   UNL     1     -33.954  27.680   3.447  0.00  0.00    +0.048 C 
ATOM     13  C   UNL     1     -32.875  28.251   4.121  0.00  0.00    +0.138 C 
ATOM     14  C   UNL     1     -34.691  28.443   2.541  0.00  0.00    +0.003 C 
ATOM     15  C   UNL     1     -33.268  30.346   2.983  0.00  0.00    +0.059 C 
ATOM     16  C   UNL     1     -32.531  29.584   3.890  0.00  0.00    +0.045 C 
ATOM     17  C   UNL     1     -34.348  29.776   2.308  0.00  0.00    +0.009 C 
BRANCH  15  18
ATOM     18  S   UNL     1     -32.829  32.058   2.684  0.00  0.00    +0.066 S 
ATOM     19  O   UNL     1     -32.394  32.149   1.248  0.00  0.00    -0.251 OA
ATOM     20  C   UNL     1     -31.327  32.099   3.698  0.00  0.00    +0.111 C 
ENDBRANCH  15  18
BRANCH  13  21
ATOM     21  O   UNL     1     -32.136  27.528   5.011  0.00  0.00    -0.472 OA
ATOM     22  C   UNL     1     -31.914  28.112   6.292  0.00  0.00    +0.252 C 
ENDBRANCH  13  21
ENDBRANCH   4  12
BRANCH   8  23
ATOM     23  N   UNL     1     -35.589  21.097   5.996  0.00  0.00    -0.356 N 
ATOM     24  H   UNL     1     -35.907  21.229   6.917  0.00  0.00    +0.142 HD
ATOM     25  H   UNL     1     -35.435  20.186   5.654  0.00  0.00    +0.142 HD
ENDBRANCH   8  23
TORSDOF 4
ENDMDL
MODEL 7
REMARK VINA RESULT:      -5.3      1.910      2.499
REMARK  Name = 195523
REMARK  4 active torsions:
REMARK  status: ('A' for Active; 'I' for Inactive)
REMARK    1  A    between atoms: C_4  and  C_12
REMARK    2  A    between atoms: C_8  and  N_23
REMARK    3  A    between atoms: C_13  and  O_21
REMARK    4  A    between atoms: C_15  and  S_18
REMARK                            x       y       z     vdW  Elec       q    Type
REMARK                         _______ _______ _______ _____ _____    ______ ____
ROOT
ATOM      1  N   UNL     1     -35.248  21.004   2.717  0.00  0.00    -0.313 N 
ATOM      2  N   UNL     1     -36.150  21.279   0.700  0.00  0.00    -0.300 N 
ATOM      3  N   UNL     1     -37.409  23.291   1.211  0.00  0.00    -0.227 NA
ATOM      4  C   UNL     1     -35.359  20.532   1.438  0.00  0.00    +0.172 C 
ATOM      5  C   UNL     1     -36.019  22.130   2.811  0.00  0.00    +0.079 C 
ATOM      6  C   UNL     1     -36.570  22.279   1.542  0.00  0.00    +0.143 C 
ATOM      7  C   UNL     1     -36.295  23.022   3.842  0.00  0.00    +0.033 C 
ATOM      8  C   UNL     1     -37.157  24.067   3.517  0.00  0.00    +0.062 C 
ATOM      9  C   UNL     1     -37.667  24.149   2.226  0.00  0.00    +0.114 C 
ATOM     10  H   UNL     1     -34.711  20.606   3.441  0.00  0.00    +0.149 HD
ATOM     11  H   UNL     1     -36.390  21.150  -0.246  0.00  0.00    +0.150 HD
ENDROOT
BRANCH   4  12
ATOM     12  C   UNL     1     -34.664  19.344   1.000  0.00  0.00    +0.048 C 
ATOM     13  C   UNL     1     -35.238  18.479   0.069  0.00  0.00    +0.138 C 
ATOM     14  C   UNL     1     -33.401  19.065   1.523  0.00  0.00    +0.003 C 
ATOM     15  C   UNL     1     -33.287  17.057   0.183  0.00  0.00    +0.059 C 
ATOM     16  C   UNL     1     -34.551  17.335  -0.339  0.00  0.00    +0.045 C 
ATOM     17  C   UNL     1     -32.712  17.922   1.115  0.00  0.00    +0.009 C 
BRANCH  15  18
ATOM     18  S   UNL     1     -32.403  15.589  -0.341  0.00  0.00    +0.066 S 
ATOM     19  O   UNL     1     -31.101  15.577   0.412  0.00  0.00    -0.251 OA
ATOM     20  C   UNL     1     -32.034  16.124  -2.033  0.00  0.00    +0.111 C 
ENDBRANCH  15  18
BRANCH  13  21
ATOM     21  O   UNL     1     -36.471  18.728  -0.459  0.00  0.00    -0.472 OA
ATOM     22  C   UNL     1     -36.592  18.659  -1.878  0.00  0.00    +0.252 C 
ENDBRANCH  13  21
ENDBRANCH   4  12
BRANCH   8  23
ATOM     23  N   UNL     1     -37.503  25.028   4.485  0.00  0.00    -0.356 N 
ATOM     24  H   UNL     1     -38.021  24.763   5.279  0.00  0.00    +0.142 HD
ATOM     25  H   UNL     1     -37.227  25.966   4.368  0.00  0.00    +0.142 HD
ENDBRANCH   8  23
TORSDOF 4
ENDMDL
MODEL 8
REMARK VINA RESULT:      -5.3      5.922      8.012
REMARK  Name = 195523
REMARK  4 active torsions:
REMARK  status: ('A' for Active; 'I' for Inactive)
REMARK    1  A    between atoms: C_4  and  C_12
REMARK    2  A    between atoms: C_8  and  N_23
REMARK    3  A    between atoms: C_13  and  O_21
REMARK    4  A    between atoms: C_15  and  S_18
REMARK                            x       y       z     vdW  Elec       q    Type
REMARK                         _______ _______ _______ _____ _____    ______ ____
ROOT
ATOM      1  N   UNL     1     -33.261  29.008   3.521  0.00  0.00    -0.313 N 
ATOM      2  N   UNL     1     -31.853  28.328   5.107  0.00  0.00    -0.300 N 
ATOM      3  N   UNL     1     -30.607  30.402   5.304  0.00  0.00    -0.227 NA
ATOM      4  C   UNL     1     -32.865  27.986   4.341  0.00  0.00    +0.172 C 
ATOM      5  C   UNL     1     -32.450  30.080   3.776  0.00  0.00    +0.079 C 
ATOM      6  C   UNL     1     -31.583  29.630   4.766  0.00  0.00    +0.143 C 
ATOM      7  C   UNL     1     -32.375  31.370   3.262  0.00  0.00    +0.033 C 
ATOM      8  C   UNL     1     -31.377  32.175   3.804  0.00  0.00    +0.062 C 
ATOM      9  C   UNL     1     -30.547  31.655   4.792  0.00  0.00    +0.114 C 
ATOM     10  H   UNL     1     -33.997  28.978   2.867  0.00  0.00    +0.149 HD
ATOM     11  H   UNL     1     -31.391  27.774   5.776  0.00  0.00    +0.150 HD
ENDROOT
BRANCH   4  12
ATOM     12  C   UNL     1     -33.520  26.700   4.326  0.00  0.00    +0.048 C 
ATOM     13  C   UNL     1     -33.687  25.992   3.136  0.00  0.00    +0.138 C 
ATOM     14  C   UNL     1     -33.993  26.164   5.526  0.00  0.00    +0.003 C 
ATOM     15  C   UNL     1     -34.795  24.216   4.342  0.00  0.00    +0.059 C 
ATOM     16  C   UNL     1     -34.324  24.751   3.142  0.00  0.00    +0.045 C 
ATOM     17  C   UNL     1     -34.630  24.923   5.533  0.00  0.00    +0.009 C 
BRANCH  15  18
ATOM     18  S   UNL     1     -35.614  22.621   4.352  0.00  0.00    +0.066 S 
ATOM     19  O   UNL     1     -37.067  22.880   4.066  0.00  0.00    -0.251 OA
ATOM     20  C   UNL     1     -35.472  22.293   6.129  0.00  0.00    +0.111 C 
ENDBRANCH  15  18
BRANCH  13  21
ATOM     21  O   UNL     1     -33.233  26.491   1.950  0.00  0.00    -0.472 OA
ATOM     22  C   UNL     1     -32.051  25.904   1.411  0.00  0.00    +0.252 C 
ENDBRANCH  13  21
ENDBRANCH   4  12
BRANCH   8  23
ATOM     23  N   UNL     1     -31.212  33.500   3.358  0.00  0.00    -0.356 N 
ATOM     24  H   UNL     1     -31.796  33.858   2.652  0.00  0.00    +0.142 HD
ATOM     25  H   UNL     1     -30.511  34.068   3.752  0.00  0.00    +0.142 HD
ENDBRANCH   8  23
TORSDOF 4
ENDMDL
MODEL 9
REMARK VINA RESULT:      -5.3      3.391      3.970
REMARK  Name = 195523
REMARK  4 active torsions:
REMARK  status: ('A' for Active; 'I' for Inactive)
REMARK    1  A    between atoms: C_4  and  C_12
REMARK    2  A    between atoms: C_8  and  N_23
REMARK    3  A    between atoms: C_13  and  O_21
REMARK    4  A    between atoms: C_15  and  S_18
REMARK                            x       y       z     vdW  Elec       q    Type
REMARK                         _______ _______ _______ _____ _____    ______ ____
ROOT
ATOM      1  N   UNL     1     -38.250  23.571   1.937  0.00  0.00    -0.313 N 
ATOM      2  N   UNL     1     -37.263  21.796   2.849  0.00  0.00    -0.300 N 
ATOM      3  N   UNL     1     -36.130  22.977   4.642  0.00  0.00    -0.227 NA
ATOM      4  C   UNL     1     -38.053  22.218   1.887  0.00  0.00    +0.172 C 
ATOM      5  C   UNL     1     -37.540  24.054   3.002  0.00  0.00    +0.079 C 
ATOM      6  C   UNL     1     -36.935  22.929   3.552  0.00  0.00    +0.143 C 
ATOM      7  C   UNL     1     -37.359  25.324   3.540  0.00  0.00    +0.033 C 
ATOM      8  C   UNL     1     -36.534  25.390   4.660  0.00  0.00    +0.062 C 
ATOM      9  C   UNL     1     -35.964  24.220   5.152  0.00  0.00    +0.114 C 
ATOM     10  H   UNL     1     -38.803  24.103   1.319  0.00  0.00    +0.149 HD
ATOM     11  H   UNL     1     -36.971  20.873   3.026  0.00  0.00    +0.150 HD
ENDROOT
BRANCH   4  12
ATOM     12  C   UNL     1     -38.668  21.395   0.872  0.00  0.00    +0.048 C 
ATOM     13  C   UNL     1     -39.976  21.633   0.451  0.00  0.00    +0.138 C 
ATOM     14  C   UNL     1     -37.935  20.348   0.312  0.00  0.00    +0.003 C 
ATOM     15  C   UNL     1     -39.820  19.778  -1.090  0.00  0.00    +0.059 C 
ATOM     16  C   UNL     1     -40.553  20.825  -0.530  0.00  0.00    +0.045 C 
ATOM     17  C   UNL     1     -38.511  19.540  -0.669  0.00  0.00    +0.009 C 
BRANCH  15  18
ATOM     18  S   UNL     1     -40.559  18.740  -2.350  0.00  0.00    +0.066 S 
ATOM     19  O   UNL     1     -41.532  17.834  -1.648  0.00  0.00    -0.251 OA
ATOM     20  C   UNL     1     -39.090  17.748  -2.733  0.00  0.00    +0.111 C 
ENDBRANCH  15  18
BRANCH  13  21
ATOM     21  O   UNL     1     -40.714  22.651   0.980  0.00  0.00    -0.472 OA
ATOM     22  C   UNL     1     -41.269  23.592   0.064  0.00  0.00    +0.252 C 
ENDBRANCH  13  21
ENDBRANCH   4  12
BRANCH   8  23
ATOM     23  N   UNL     1     -36.282  26.626   5.284  0.00  0.00    -0.356 N 
ATOM     24  H   UNL     1     -37.001  27.292   5.364  0.00  0.00    +0.142 HD
ATOM     25  H   UNL     1     -35.386  26.822   5.641  0.00  0.00    +0.142 HD
ENDBRANCH   8  23
TORSDOF 4
ENDMDL
