MODEL 1
REMARK VINA RESULT:      -6.2      0.000      0.000
REMARK  Name = 53360338
REMARK  14 active torsions:
REMARK  status: ('A' for Active; 'I' for Inactive)
REMARK    1  A    between atoms: C_5  and  C_15
REMARK    2  A    between atoms: C_9  and  O_20
REMARK    3  A    between atoms: C_15  and  C_17
REMARK    4  A    between atoms: C_17  and  O_18
REMARK    5  A    between atoms: O_20  and  C_22
REMARK    6  A    between atoms: C_22  and  C_23
REMARK    7  A    between atoms: C_23  and  O_24
REMARK    8  A    between atoms: C_23  and  C_26
REMARK    9  A    between atoms: C_23  and  C_34
REMARK   10  A    between atoms: C_26  and  C_27
REMARK   11  A    between atoms: C_27  and  C_29
REMARK   12  A    between atoms: C_29  and  C_30
REMARK   13  A    between atoms: C_30  and  C_32
REMARK   14  A    between atoms: C_34  and  O_35
REMARK                            x       y       z     vdW  Elec       q    Type
REMARK                         _______ _______ _______ _____ _____    ______ ____
ROOT
ATOM      1  O   UNL     1     -38.592  22.723   2.806  0.00  0.00    -0.344 OA
ATOM      2  O   UNL     1     -39.287  25.985   3.132  0.00  0.00    -0.288 OA
ATOM      3  C   UNL     1     -36.137  23.146   3.134  0.00  0.00    +0.047 C 
ATOM      4  C   UNL     1     -37.327  22.995   2.188  0.00  0.00    +0.155 C 
ATOM      5  C   UNL     1     -38.426  24.014   2.194  0.00  0.00    +0.190 C 
ATOM      6  C   UNL     1     -35.886  21.764   3.843  0.00  0.00    +0.006 C 
ATOM      7  C   UNL     1     -36.347  24.237   4.206  0.00  0.00    -0.000 C 
ATOM      8  C   UNL     1     -34.827  21.846   4.960  0.00  0.00    +0.004 C 
ATOM      9  C   UNL     1     -35.364  24.288   5.360  0.00  0.00    +0.187 C 
ATOM     10  C   UNL     1     -34.934  23.562   2.247  0.00  0.00    +0.007 C 
ATOM     11  C   UNL     1     -38.426  25.116   3.166  0.00  0.00    +0.203 C 
ATOM     12  C   UNL     1     -35.180  22.911   5.993  0.00  0.00    +0.048 C 
ATOM     13  C   UNL     1     -37.369  25.112   4.199  0.00  0.00    +0.035 C 
ATOM     14  C   UNL     1     -35.504  20.627   2.884  0.00  0.00    +0.000 C 
ENDROOT
BRANCH   5  15
ATOM     15  C   UNL     1     -39.018  24.346   0.904  0.00  0.00    +0.018 C 
ATOM     16  C   UNL     1     -38.341  24.968  -0.077  0.00  0.00    -0.004 C 
BRANCH  15  17
ATOM     17  C   UNL     1     -40.463  23.967   0.707  0.00  0.00    +0.162 C 
BRANCH  17  18
ATOM     18  O   UNL     1     -40.607  22.562   0.868  0.00  0.00    -0.377 OA
ATOM     19  H   UNL     1     -40.424  22.119   0.024  0.00  0.00    +0.211 HD
ENDBRANCH  17  18
ENDBRANCH  15  17
ENDBRANCH   5  15
BRANCH   9  20
ATOM     20  O   UNL     1     -34.113  24.791   4.902  0.00  0.00    -0.446 OA
BRANCH  20  22
ATOM     21  O   UNL     1     -33.996  26.570   6.355  0.00  0.00    -0.247 OA
ATOM     22  C   UNL     1     -33.832  26.083   5.242  0.00  0.00    +0.344 C 
BRANCH  22  23
ATOM     23  C   UNL     1     -33.283  26.853   4.037  0.00  0.00    +0.204 C 
BRANCH  23  24
ATOM     24  O   UNL     1     -32.504  25.891   3.326  0.00  0.00    -0.375 OA
ATOM     25  H   UNL     1     -32.865  25.778   2.432  0.00  0.00    +0.211 HD
ENDBRANCH  23  24
BRANCH  23  26
ATOM     26  C   UNL     1     -32.383  28.014   4.521  0.00  0.00    +0.040 C 
BRANCH  26  27
ATOM     27  C   UNL     1     -32.097  29.156   3.515  0.00  0.00    +0.003 C 
ATOM     28  C   UNL     1     -30.605  29.496   3.412  0.00  0.00    +0.000 C 
BRANCH  27  29
ATOM     29  C   UNL     1     -32.862  30.450   3.892  0.00  0.00    +0.000 C 
BRANCH  29  30
ATOM     30  C   UNL     1     -33.713  31.116   2.784  0.00  0.00    +0.000 C 
ATOM     31  C   UNL     1     -33.150  32.517   2.508  0.00  0.00    +0.000 C 
BRANCH  30  32
ATOM     32  C   UNL     1     -35.207  31.164   3.157  0.00  0.00    +0.000 C 
ATOM     33  C   UNL     1     -36.143  30.904   1.986  0.00  0.00    +0.000 C 
ENDBRANCH  30  32
ENDBRANCH  29  30
ENDBRANCH  27  29
ENDBRANCH  26  27
ENDBRANCH  23  26
BRANCH  23  34
ATOM     34  C   UNL     1     -34.433  27.269   3.112  0.00  0.00    +0.175 C 
BRANCH  34  35
ATOM     35  O   UNL     1     -35.520  27.812   3.846  0.00  0.00    -0.379 OA
ATOM     36  H   UNL     1     -35.300  27.819   4.791  0.00  0.00    +0.211 HD
ENDBRANCH  34  35
ENDBRANCH  23  34
ENDBRANCH  22  23
ENDBRANCH  20  22
ENDBRANCH   9  20
TORSDOF 14
ENDMDL
MODEL 2
REMARK VINA RESULT:      -6.2      2.599      8.117
REMARK  Name = 53360338
REMARK  14 active torsions:
REMARK  status: ('A' for Active; 'I' for Inactive)
REMARK    1  A    between atoms: C_5  and  C_15
REMARK    2  A    between atoms: C_9  and  O_20
REMARK    3  A    between atoms: C_15  and  C_17
REMARK    4  A    between atoms: C_17  and  O_18
REMARK    5  A    between atoms: O_20  and  C_22
REMARK    6  A    between atoms: C_22  and  C_23
REMARK    7  A    between atoms: C_23  and  O_24
REMARK    8  A    between atoms: C_23  and  C_26
REMARK    9  A    between atoms: C_23  and  C_34
REMARK   10  A    between atoms: C_26  and  C_27
REMARK   11  A    between atoms: C_27  and  C_29
REMARK   12  A    between atoms: C_29  and  C_30
REMARK   13  A    between atoms: C_30  and  C_32
REMARK   14  A    between atoms: C_34  and  O_35
REMARK                            x       y       z     vdW  Elec       q    Type
REMARK                         _______ _______ _______ _____ _____    ______ ____
ROOT
ATOM      1  O   UNL     1     -35.188  28.071   3.730  0.00  0.00    -0.344 OA
ATOM      2  O   UNL     1     -33.190  26.117   5.579  0.00  0.00    -0.288 OA
ATOM      3  C   UNL     1     -35.810  26.142   2.245  0.00  0.00    +0.047 C 
ATOM      4  C   UNL     1     -34.899  27.334   2.535  0.00  0.00    +0.155 C 
ATOM      5  C   UNL     1     -33.973  27.303   3.712  0.00  0.00    +0.190 C 
ATOM      6  C   UNL     1     -37.265  26.680   1.977  0.00  0.00    +0.006 C 
ATOM      7  C   UNL     1     -35.852  25.114   3.396  0.00  0.00    -0.000 C 
ATOM      8  C   UNL     1     -38.310  25.553   1.859  0.00  0.00    +0.004 C 
ATOM      9  C   UNL     1     -36.923  24.042   3.345  0.00  0.00    +0.187 C 
ATOM     10  C   UNL     1     -35.218  25.443   0.993  0.00  0.00    +0.007 C 
ATOM     11  C   UNL     1     -33.989  26.176   4.654  0.00  0.00    +0.203 C 
ATOM     12  C   UNL     1     -38.300  24.646   3.085  0.00  0.00    +0.048 C 
ATOM     13  C   UNL     1     -35.026  25.141   4.458  0.00  0.00    +0.035 C 
ATOM     14  C   UNL     1     -37.380  27.591   0.746  0.00  0.00    +0.000 C 
ENDROOT
BRANCH   5  15
ATOM     15  C   UNL     1     -32.664  27.920   3.531  0.00  0.00    +0.018 C 
ATOM     16  C   UNL     1     -31.676  27.353   2.817  0.00  0.00    -0.004 C 
BRANCH  15  17
ATOM     17  C   UNL     1     -32.447  29.251   4.202  0.00  0.00    +0.162 C 
BRANCH  17  18
ATOM     18  O   UNL     1     -32.282  29.052   5.600  0.00  0.00    -0.377 OA
ATOM     19  H   UNL     1     -32.360  29.904   6.059  0.00  0.00    +0.211 HD
ENDBRANCH  17  18
ENDBRANCH  15  17
ENDBRANCH   5  15
BRANCH   9  20
ATOM     20  O   UNL     1     -36.602  23.093   2.332  0.00  0.00    -0.446 OA
BRANCH  20  22
ATOM     21  O   UNL     1     -35.627  21.625   3.808  0.00  0.00    -0.247 OA
ATOM     22  C   UNL     1     -36.242  21.853   2.773  0.00  0.00    +0.344 C 
BRANCH  22  23
ATOM     23  C   UNL     1     -36.709  20.772   1.793  0.00  0.00    +0.204 C 
BRANCH  23  24
ATOM     24  O   UNL     1     -36.833  19.596   2.593  0.00  0.00    -0.375 OA
ATOM     25  H   UNL     1     -35.951  19.282   2.846  0.00  0.00    +0.211 HD
ENDBRANCH  23  24
BRANCH  23  26
ATOM     26  C   UNL     1     -35.638  20.560   0.696  0.00  0.00    +0.040 C 
BRANCH  26  27
ATOM     27  C   UNL     1     -34.154  20.610   1.137  0.00  0.00    +0.003 C 
ATOM     28  C   UNL     1     -33.222  21.104   0.023  0.00  0.00    +0.000 C 
BRANCH  27  29
ATOM     29  C   UNL     1     -33.654  19.220   1.605  0.00  0.00    +0.000 C 
BRANCH  29  30
ATOM     30  C   UNL     1     -32.840  18.384   0.588  0.00  0.00    +0.000 C 
ATOM     31  C   UNL     1     -33.651  17.134   0.219  0.00  0.00    +0.000 C 
BRANCH  30  32
ATOM     32  C   UNL     1     -31.444  18.019   1.130  0.00  0.00    +0.000 C 
ATOM     33  C   UNL     1     -30.298  18.496   0.250  0.00  0.00    +0.000 C 
ENDBRANCH  30  32
ENDBRANCH  29  30
ENDBRANCH  27  29
ENDBRANCH  26  27
ENDBRANCH  23  26
BRANCH  23  34
ATOM     34  C   UNL     1     -38.111  21.107   1.271  0.00  0.00    +0.175 C 
BRANCH  34  35
ATOM     35  O   UNL     1     -39.042  21.245   2.335  0.00  0.00    -0.379 OA
ATOM     36  H   UNL     1     -39.118  22.181   2.578  0.00  0.00    +0.211 HD
ENDBRANCH  34  35
ENDBRANCH  23  34
ENDBRANCH  22  23
ENDBRANCH  20  22
ENDBRANCH   9  20
TORSDOF 14
ENDMDL
MODEL 3
REMARK VINA RESULT:      -6.2      1.250      2.218
REMARK  Name = 53360338
REMARK  14 active torsions:
REMARK  status: ('A' for Active; 'I' for Inactive)
REMARK    1  A    between atoms: C_5  and  C_15
REMARK    2  A    between atoms: C_9  and  O_20
REMARK    3  A    between atoms: C_15  and  C_17
REMARK    4  A    between atoms: C_17  and  O_18
REMARK    5  A    between atoms: O_20  and  C_22
REMARK    6  A    between atoms: C_22  and  C_23
REMARK    7  A    between atoms: C_23  and  O_24
REMARK    8  A    between atoms: C_23  and  C_26
REMARK    9  A    between atoms: C_23  and  C_34
REMARK   10  A    between atoms: C_26  and  C_27
REMARK   11  A    between atoms: C_27  and  C_29
REMARK   12  A    between atoms: C_29  and  C_30
REMARK   13  A    between atoms: C_30  and  C_32
REMARK   14  A    between atoms: C_34  and  O_35
REMARK                            x       y       z     vdW  Elec       q    Type
REMARK                         _______ _______ _______ _____ _____    ______ ____
ROOT
ATOM      1  O   UNL     1     -38.660  22.915   2.585  0.00  0.00    -0.344 OA
ATOM      2  O   UNL     1     -39.209  26.209   2.857  0.00  0.00    -0.288 OA
ATOM      3  C   UNL     1     -36.197  23.226   2.971  0.00  0.00    +0.047 C 
ATOM      4  C   UNL     1     -37.369  23.120   1.997  0.00  0.00    +0.155 C 
ATOM      5  C   UNL     1     -38.418  24.189   1.963  0.00  0.00    +0.190 C 
ATOM      6  C   UNL     1     -36.029  21.842   3.701  0.00  0.00    +0.006 C 
ATOM      7  C   UNL     1     -36.382  24.339   4.025  0.00  0.00    -0.000 C 
ATOM      8  C   UNL     1     -34.996  21.888   4.844  0.00  0.00    +0.004 C 
ATOM      9  C   UNL     1     -35.427  24.358   5.203  0.00  0.00    +0.187 C 
ATOM     10  C   UNL     1     -34.954  23.575   2.111  0.00  0.00    +0.007 C 
ATOM     11  C   UNL     1     -38.391  25.301   2.922  0.00  0.00    +0.203 C 
ATOM     12  C   UNL     1     -35.324  22.981   5.856  0.00  0.00    +0.048 C 
ATOM     13  C   UNL     1     -37.361  25.261   3.982  0.00  0.00    +0.035 C 
ATOM     14  C   UNL     1     -35.677  20.677   2.765  0.00  0.00    +0.000 C 
ENDROOT
BRANCH   5  15
ATOM     15  C   UNL     1     -38.961  24.533   0.654  0.00  0.00    +0.018 C 
ATOM     16  C   UNL     1     -38.295  25.279  -0.245  0.00  0.00    -0.004 C 
BRANCH  15  17
ATOM     17  C   UNL     1     -40.341  24.016   0.340  0.00  0.00    +0.162 C 
BRANCH  17  18
ATOM     18  O   UNL     1     -41.124  24.014   1.526  0.00  0.00    -0.377 OA
ATOM     19  H   UNL     1     -41.847  23.374   1.435  0.00  0.00    +0.211 HD
ENDBRANCH  17  18
ENDBRANCH  15  17
ENDBRANCH   5  15
BRANCH   9  20
ATOM     20  O   UNL     1     -34.142  24.795   4.772  0.00  0.00    -0.446 OA
BRANCH  20  22
ATOM     21  O   UNL     1     -34.032  26.694   6.065  0.00  0.00    -0.247 OA
ATOM     22  C   UNL     1     -33.856  26.110   5.002  0.00  0.00    +0.344 C 
BRANCH  22  23
ATOM     23  C   UNL     1     -33.283  26.768   3.743  0.00  0.00    +0.204 C 
BRANCH  23  24
ATOM     24  O   UNL     1     -32.727  25.683   2.998  0.00  0.00    -0.375 OA
ATOM     25  H   UNL     1     -31.779  25.609   3.192  0.00  0.00    +0.211 HD
ENDBRANCH  23  24
BRANCH  23  26
ATOM     26  C   UNL     1     -32.171  27.770   4.133  0.00  0.00    +0.040 C 
BRANCH  26  27
ATOM     27  C   UNL     1     -32.456  29.273   3.892  0.00  0.00    +0.003 C 
ATOM     28  C   UNL     1     -31.770  29.812   2.629  0.00  0.00    +0.000 C 
BRANCH  27  29
ATOM     29  C   UNL     1     -32.001  30.138   5.095  0.00  0.00    +0.000 C 
BRANCH  29  30
ATOM     30  C   UNL     1     -31.100  29.456   6.153  0.00  0.00    +0.000 C 
ATOM     31  C   UNL     1     -31.646  29.786   7.549  0.00  0.00    +0.000 C 
BRANCH  30  32
ATOM     32  C   UNL     1     -29.623  29.871   6.004  0.00  0.00    +0.000 C 
ATOM     33  C   UNL     1     -29.423  31.165   5.229  0.00  0.00    +0.000 C 
ENDBRANCH  30  32
ENDBRANCH  29  30
ENDBRANCH  27  29
ENDBRANCH  26  27
ENDBRANCH  23  26
BRANCH  23  34
ATOM     34  C   UNL     1     -34.416  27.357   2.896  0.00  0.00    +0.175 C 
BRANCH  34  35
ATOM     35  O   UNL     1     -35.439  27.912   3.710  0.00  0.00    -0.379 OA
ATOM     36  H   UNL     1     -35.565  28.845   3.478  0.00  0.00    +0.211 HD
ENDBRANCH  34  35
ENDBRANCH  23  34
ENDBRANCH  22  23
ENDBRANCH  20  22
ENDBRANCH   9  20
TORSDOF 14
ENDMDL
MODEL 4
REMARK VINA RESULT:      -6.1      2.253      7.250
REMARK  Name = 53360338
REMARK  14 active torsions:
REMARK  status: ('A' for Active; 'I' for Inactive)
REMARK    1  A    between atoms: C_5  and  C_15
REMARK    2  A    between atoms: C_9  and  O_20
REMARK    3  A    between atoms: C_15  and  C_17
REMARK    4  A    between atoms: C_17  and  O_18
REMARK    5  A    between atoms: O_20  and  C_22
REMARK    6  A    between atoms: C_22  and  C_23
REMARK    7  A    between atoms: C_23  and  O_24
REMARK    8  A    between atoms: C_23  and  C_26
REMARK    9  A    between atoms: C_23  and  C_34
REMARK   10  A    between atoms: C_26  and  C_27
REMARK   11  A    between atoms: C_27  and  C_29
REMARK   12  A    between atoms: C_29  and  C_30
REMARK   13  A    between atoms: C_30  and  C_32
REMARK   14  A    between atoms: C_34  and  O_35
REMARK                            x       y       z     vdW  Elec       q    Type
REMARK                         _______ _______ _______ _____ _____    ______ ____
ROOT
ATOM      1  O   UNL     1     -33.635  29.121   4.127  0.00  0.00    -0.344 OA
ATOM      2  O   UNL     1     -31.919  27.927   6.746  0.00  0.00    -0.288 OA
ATOM      3  C   UNL     1     -34.069  26.799   3.269  0.00  0.00    +0.047 C 
ATOM      4  C   UNL     1     -33.195  28.052   3.278  0.00  0.00    +0.155 C 
ATOM      5  C   UNL     1     -32.435  28.429   4.512  0.00  0.00    +0.190 C 
ATOM      6  C   UNL     1     -35.470  27.173   2.658  0.00  0.00    +0.006 C 
ATOM      7  C   UNL     1     -34.273  26.189   4.673  0.00  0.00    -0.000 C 
ATOM      8  C   UNL     1     -36.499  26.030   2.772  0.00  0.00    +0.004 C 
ATOM      9  C   UNL     1     -35.336  25.119   4.829  0.00  0.00    +0.187 C 
ATOM     10  C   UNL     1     -33.321  25.759   2.394  0.00  0.00    +0.007 C 
ATOM     11  C   UNL     1     -32.586  27.660   5.755  0.00  0.00    +0.203 C 
ATOM     12  C   UNL     1     -36.661  25.561   4.214  0.00  0.00    +0.048 C 
ATOM     13  C   UNL     1     -33.596  26.581   5.768  0.00  0.00    +0.035 C 
ATOM     14  C   UNL     1     -35.413  27.640   1.196  0.00  0.00    +0.000 C 
ENDROOT
BRANCH   5  15
ATOM     15  C   UNL     1     -31.108  29.002   4.314  0.00  0.00    +0.018 C 
ATOM     16  C   UNL     1     -30.036  28.270   3.965  0.00  0.00    -0.004 C 
BRANCH  15  17
ATOM     17  C   UNL     1     -30.976  30.487   4.533  0.00  0.00    +0.162 C 
BRANCH  17  18
ATOM     18  O   UNL     1     -31.735  30.864   5.675  0.00  0.00    -0.377 OA
ATOM     19  H   UNL     1     -31.154  30.897   6.452  0.00  0.00    +0.211 HD
ENDBRANCH  17  18
ENDBRANCH  15  17
ENDBRANCH   5  15
BRANCH   9  20
ATOM     20  O   UNL     1     -34.891  23.910   4.222  0.00  0.00    -0.446 OA
BRANCH  20  22
ATOM     21  O   UNL     1     -36.053  22.452   5.568  0.00  0.00    -0.247 OA
ATOM     22  C   UNL     1     -35.659  22.807   4.464  0.00  0.00    +0.344 C 
BRANCH  22  23
ATOM     23  C   UNL     1     -35.963  22.063   3.160  0.00  0.00    +0.204 C 
BRANCH  23  24
ATOM     24  O   UNL     1     -35.825  20.683   3.498  0.00  0.00    -0.375 OA
ATOM     25  H   UNL     1     -36.656  20.219   3.312  0.00  0.00    +0.211 HD
ENDBRANCH  23  24
BRANCH  23  26
ATOM     26  C   UNL     1     -34.927  22.453   2.079  0.00  0.00    +0.040 C 
BRANCH  26  27
ATOM     27  C   UNL     1     -34.942  21.643   0.759  0.00  0.00    +0.003 C 
ATOM     28  C   UNL     1     -33.738  20.700   0.629  0.00  0.00    +0.000 C 
BRANCH  27  29
ATOM     29  C   UNL     1     -34.961  22.575  -0.479  0.00  0.00    +0.000 C 
BRANCH  29  30
ATOM     30  C   UNL     1     -35.389  24.045  -0.250  0.00  0.00    +0.000 C 
ATOM     31  C   UNL     1     -36.895  24.165  -0.521  0.00  0.00    +0.000 C 
BRANCH  30  32
ATOM     32  C   UNL     1     -34.572  25.023  -1.115  0.00  0.00    +0.000 C 
ATOM     33  C   UNL     1     -33.089  24.691  -1.187  0.00  0.00    +0.000 C 
ENDBRANCH  30  32
ENDBRANCH  29  30
ENDBRANCH  27  29
ENDBRANCH  26  27
ENDBRANCH  23  26
BRANCH  23  34
ATOM     34  C   UNL     1     -37.427  22.281   2.760  0.00  0.00    +0.175 C 
BRANCH  34  35
ATOM     35  O   UNL     1     -38.059  21.056   2.414  0.00  0.00    -0.379 OA
ATOM     36  H   UNL     1     -38.385  20.623   3.218  0.00  0.00    +0.211 HD
ENDBRANCH  34  35
ENDBRANCH  23  34
ENDBRANCH  22  23
ENDBRANCH  20  22
ENDBRANCH   9  20
TORSDOF 14
ENDMDL
MODEL 5
REMARK VINA RESULT:      -6.0      3.449      6.146
REMARK  Name = 53360338
REMARK  14 active torsions:
REMARK  status: ('A' for Active; 'I' for Inactive)
REMARK    1  A    between atoms: C_5  and  C_15
REMARK    2  A    between atoms: C_9  and  O_20
REMARK    3  A    between atoms: C_15  and  C_17
REMARK    4  A    between atoms: C_17  and  O_18
REMARK    5  A    between atoms: O_20  and  C_22
REMARK    6  A    between atoms: C_22  and  C_23
REMARK    7  A    between atoms: C_23  and  O_24
REMARK    8  A    between atoms: C_23  and  C_26
REMARK    9  A    between atoms: C_23  and  C_34
REMARK   10  A    between atoms: C_26  and  C_27
REMARK   11  A    between atoms: C_27  and  C_29
REMARK   12  A    between atoms: C_29  and  C_30
REMARK   13  A    between atoms: C_30  and  C_32
REMARK   14  A    between atoms: C_34  and  O_35
REMARK                            x       y       z     vdW  Elec       q    Type
REMARK                         _______ _______ _______ _____ _____    ______ ____
ROOT
ATOM      1  O   UNL     1     -40.655  27.037   0.704  0.00  0.00    -0.344 OA
ATOM      2  O   UNL     1     -43.121  24.817   1.168  0.00  0.00    -0.288 OA
ATOM      3  C   UNL     1     -38.990  25.520   1.818  0.00  0.00    +0.047 C 
ATOM      4  C   UNL     1     -40.005  26.657   1.925  0.00  0.00    +0.155 C 
ATOM      5  C   UNL     1     -41.462  26.388   1.702  0.00  0.00    +0.190 C 
ATOM      6  C   UNL     1     -37.790  26.005   0.923  0.00  0.00    +0.006 C 
ATOM      7  C   UNL     1     -39.585  24.229   1.215  0.00  0.00    -0.000 C 
ATOM      8  C   UNL     1     -36.794  24.877   0.590  0.00  0.00    +0.004 C 
ATOM      9  C   UNL     1     -38.619  23.134   0.805  0.00  0.00    +0.187 C 
ATOM     10  C   UNL     1     -38.535  25.213   3.269  0.00  0.00    +0.007 C 
ATOM     11  C   UNL     1     -41.927  25.057   1.289  0.00  0.00    +0.203 C 
ATOM     12  C   UNL     1     -37.490  23.686  -0.061  0.00  0.00    +0.048 C 
ATOM     13  C   UNL     1     -40.898  24.037   0.995  0.00  0.00    +0.035 C 
ATOM     14  C   UNL     1     -37.012  27.193   1.507  0.00  0.00    +0.000 C 
ENDROOT
BRANCH   5  15
ATOM     15  C   UNL     1     -42.399  27.121   2.545  0.00  0.00    +0.018 C 
ATOM     16  C   UNL     1     -42.665  26.780   3.818  0.00  0.00    -0.004 C 
BRANCH  15  17
ATOM     17  C   UNL     1     -43.089  28.303   1.915  0.00  0.00    +0.162 C 
BRANCH  17  18
ATOM     18  O   UNL     1     -42.237  29.439   1.987  0.00  0.00    -0.377 OA
ATOM     19  H   UNL     1     -42.685  30.205   1.595  0.00  0.00    +0.211 HD
ENDBRANCH  17  18
ENDBRANCH  15  17
ENDBRANCH   5  15
BRANCH   9  20
ATOM     20  O   UNL     1     -38.086  22.505   1.966  0.00  0.00    -0.446 OA
BRANCH  20  22
ATOM     21  O   UNL     1     -37.711  20.450   1.004  0.00  0.00    -0.247 OA
ATOM     22  C   UNL     1     -37.370  21.363   1.747  0.00  0.00    +0.344 C 
BRANCH  22  23
ATOM     23  C   UNL     1     -36.073  21.372   2.563  0.00  0.00    +0.204 C 
BRANCH  23  24
ATOM     24  O   UNL     1     -35.938  20.029   3.029  0.00  0.00    -0.375 OA
ATOM     25  H   UNL     1     -36.686  19.809   3.606  0.00  0.00    +0.211 HD
ENDBRANCH  23  24
BRANCH  23  26
ATOM     26  C   UNL     1     -36.214  22.340   3.762  0.00  0.00    +0.040 C 
BRANCH  26  27
ATOM     27  C   UNL     1     -35.111  22.288   4.847  0.00  0.00    +0.003 C 
ATOM     28  C   UNL     1     -35.661  21.936   6.235  0.00  0.00    +0.000 C 
BRANCH  27  29
ATOM     29  C   UNL     1     -34.355  23.637   4.954  0.00  0.00    +0.000 C 
BRANCH  29  30
ATOM     30  C   UNL     1     -34.954  24.843   4.192  0.00  0.00    +0.000 C 
ATOM     31  C   UNL     1     -34.035  25.184   3.011  0.00  0.00    +0.000 C 
BRANCH  30  32
ATOM     32  C   UNL     1     -35.170  26.057   5.116  0.00  0.00    +0.000 C 
ATOM     33  C   UNL     1     -33.997  26.341   6.044  0.00  0.00    +0.000 C 
ENDBRANCH  30  32
ENDBRANCH  29  30
ENDBRANCH  27  29
ENDBRANCH  26  27
ENDBRANCH  23  26
BRANCH  23  34
ATOM     34  C   UNL     1     -34.877  21.650   1.645  0.00  0.00    +0.175 C 
BRANCH  34  35
ATOM     35  O   UNL     1     -35.059  21.065   0.363  0.00  0.00    -0.379 OA
ATOM     36  H   UNL     1     -34.736  21.675  -0.318  0.00  0.00    +0.211 HD
ENDBRANCH  34  35
ENDBRANCH  23  34
ENDBRANCH  22  23
ENDBRANCH  20  22
ENDBRANCH   9  20
TORSDOF 14
ENDMDL
MODEL 6
REMARK VINA RESULT:      -6.0      2.884      8.258
REMARK  Name = 53360338
REMARK  14 active torsions:
REMARK  status: ('A' for Active; 'I' for Inactive)
REMARK    1  A    between atoms: C_5  and  C_15
REMARK    2  A    between atoms: C_9  and  O_20
REMARK    3  A    between atoms: C_15  and  C_17
REMARK    4  A    between atoms: C_17  and  O_18
REMARK    5  A    between atoms: O_20  and  C_22
REMARK    6  A    between atoms: C_22  and  C_23
REMARK    7  A    between atoms: C_23  and  O_24
REMARK    8  A    between atoms: C_23  and  C_26
REMARK    9  A    between atoms: C_23  and  C_34
REMARK   10  A    between atoms: C_26  and  C_27
REMARK   11  A    between atoms: C_27  and  C_29
REMARK   12  A    between atoms: C_29  and  C_30
REMARK   13  A    between atoms: C_30  and  C_32
REMARK   14  A    between atoms: C_34  and  O_35
REMARK                            x       y       z     vdW  Elec       q    Type
REMARK                         _______ _______ _______ _____ _____    ______ ____
ROOT
ATOM      1  O   UNL     1     -36.899  25.446   4.139  0.00  0.00    -0.344 OA
ATOM      2  O   UNL     1     -34.669  23.024   4.760  0.00  0.00    -0.288 OA
ATOM      3  C   UNL     1     -37.497  24.419   1.925  0.00  0.00    +0.047 C 
ATOM      4  C   UNL     1     -36.644  25.399   2.728  0.00  0.00    +0.155 C 
ATOM      5  C   UNL     1     -35.643  24.887   3.718  0.00  0.00    +0.190 C 
ATOM      6  C   UNL     1     -38.996  24.893   1.990  0.00  0.00    +0.006 C 
ATOM      7  C   UNL     1     -37.400  22.966   2.438  0.00  0.00    -0.000 C 
ATOM      8  C   UNL     1     -39.975  23.876   1.371  0.00  0.00    +0.004 C 
ATOM      9  C   UNL     1     -38.404  21.962   1.905  0.00  0.00    +0.187 C 
ATOM     10  C   UNL     1     -36.946  24.458   0.475  0.00  0.00    +0.007 C 
ATOM     11  C   UNL     1     -35.528  23.450   4.000  0.00  0.00    +0.203 C 
ATOM     12  C   UNL     1     -39.830  22.497   2.007  0.00  0.00    +0.048 C 
ATOM     13  C   UNL     1     -36.510  22.551   3.358  0.00  0.00    +0.035 C 
ATOM     14  C   UNL     1     -39.248  26.268   1.355  0.00  0.00    +0.000 C 
ENDROOT
BRANCH   5  15
ATOM     15  C   UNL     1     -34.389  25.625   3.821  0.00  0.00    +0.018 C 
ATOM     16  C   UNL     1     -33.400  25.523   2.917  0.00  0.00    -0.004 C 
BRANCH  15  17
ATOM     17  C   UNL     1     -34.232  26.524   5.020  0.00  0.00    +0.162 C 
BRANCH  17  18
ATOM     18  O   UNL     1     -34.524  25.788   6.202  0.00  0.00    -0.377 OA
ATOM     19  H   UNL     1     -35.037  26.344   6.809  0.00  0.00    +0.211 HD
ENDBRANCH  17  18
ENDBRANCH  15  17
ENDBRANCH   5  15
BRANCH   9  20
ATOM     20  O   UNL     1     -38.093  21.646   0.552  0.00  0.00    -0.446 OA
BRANCH  20  22
ATOM     21  O   UNL     1     -39.307  19.814  -0.127  0.00  0.00    -0.247 OA
ATOM     22  C   UNL     1     -38.247  20.336   0.198  0.00  0.00    +0.344 C 
BRANCH  22  23
ATOM     23  C   UNL     1     -36.907  19.596   0.267  0.00  0.00    +0.204 C 
BRANCH  23  24
ATOM     24  O   UNL     1     -36.720  19.329   1.657  0.00  0.00    -0.375 OA
ATOM     25  H   UNL     1     -36.642  18.372   1.796  0.00  0.00    +0.211 HD
ENDBRANCH  23  24
BRANCH  23  26
ATOM     26  C   UNL     1     -35.775  20.510  -0.257  0.00  0.00    +0.040 C 
BRANCH  26  27
ATOM     27  C   UNL     1     -34.530  20.686   0.648  0.00  0.00    +0.003 C 
ATOM     28  C   UNL     1     -34.039  22.138   0.705  0.00  0.00    +0.000 C 
BRANCH  27  29
ATOM     29  C   UNL     1     -33.353  19.796   0.173  0.00  0.00    +0.000 C 
BRANCH  29  30
ATOM     30  C   UNL     1     -33.073  18.505   0.981  0.00  0.00    +0.000 C 
ATOM     31  C   UNL     1     -31.554  18.321   1.101  0.00  0.00    +0.000 C 
BRANCH  30  32
ATOM     32  C   UNL     1     -33.751  17.274   0.349  0.00  0.00    +0.000 C 
ATOM     33  C   UNL     1     -33.519  17.145  -1.149  0.00  0.00    +0.000 C 
ENDBRANCH  30  32
ENDBRANCH  29  30
ENDBRANCH  27  29
ENDBRANCH  26  27
ENDBRANCH  23  26
BRANCH  23  34
ATOM     34  C   UNL     1     -37.020  18.239  -0.437  0.00  0.00    +0.175 C 
BRANCH  34  35
ATOM     35  O   UNL     1     -37.568  17.250   0.424  0.00  0.00    -0.379 OA
ATOM     36  H   UNL     1     -37.053  17.217   1.245  0.00  0.00    +0.211 HD
ENDBRANCH  34  35
ENDBRANCH  23  34
ENDBRANCH  22  23
ENDBRANCH  20  22
ENDBRANCH   9  20
TORSDOF 14
ENDMDL
MODEL 7
REMARK VINA RESULT:      -5.9      4.382      8.024
REMARK  Name = 53360338
REMARK  14 active torsions:
REMARK  status: ('A' for Active; 'I' for Inactive)
REMARK    1  A    between atoms: C_5  and  C_15
REMARK    2  A    between atoms: C_9  and  O_20
REMARK    3  A    between atoms: C_15  and  C_17
REMARK    4  A    between atoms: C_17  and  O_18
REMARK    5  A    between atoms: O_20  and  C_22
REMARK    6  A    between atoms: C_22  and  C_23
REMARK    7  A    between atoms: C_23  and  O_24
REMARK    8  A    between atoms: C_23  and  C_26
REMARK    9  A    between atoms: C_23  and  C_34
REMARK   10  A    between atoms: C_26  and  C_27
REMARK   11  A    between atoms: C_27  and  C_29
REMARK   12  A    between atoms: C_29  and  C_30
REMARK   13  A    between atoms: C_30  and  C_32
REMARK   14  A    between atoms: C_34  and  O_35
REMARK                            x       y       z     vdW  Elec       q    Type
REMARK                         _______ _______ _______ _____ _____    ______ ____
ROOT
ATOM      1  O   UNL     1     -34.537  16.400   0.080  0.00  0.00    -0.344 OA
ATOM      2  O   UNL     1     -37.602  15.821  -1.146  0.00  0.00    -0.288 OA
ATOM      3  C   UNL     1     -34.832  18.882  -0.174  0.00  0.00    +0.047 C 
ATOM      4  C   UNL     1     -34.358  17.551  -0.755  0.00  0.00    +0.155 C 
ATOM      5  C   UNL     1     -35.351  16.486  -1.102  0.00  0.00    +0.190 C 
ATOM      6  C   UNL     1     -33.945  19.222   1.081  0.00  0.00    +0.006 C 
ATOM      7  C   UNL     1     -36.318  18.868   0.242  0.00  0.00    -0.000 C 
ATOM      8  C   UNL     1     -34.454  20.451   1.861  0.00  0.00    +0.004 C 
ATOM      9  C   UNL     1     -36.826  20.026   1.080  0.00  0.00    +0.187 C 
ATOM     10  C   UNL     1     -34.655  19.932  -1.303  0.00  0.00    +0.007 C 
ATOM     11  C   UNL     1     -36.779  16.662  -0.806  0.00  0.00    +0.203 C 
ATOM     12  C   UNL     1     -35.913  20.288   2.275  0.00  0.00    +0.048 C 
ATOM     13  C   UNL     1     -37.174  17.873  -0.056  0.00  0.00    +0.035 C 
ATOM     14  C   UNL     1     -32.456  19.424   0.761  0.00  0.00    +0.000 C 
ENDROOT
BRANCH   5  15
ATOM     15  C   UNL     1     -35.076  15.697  -2.298  0.00  0.00    +0.018 C 
ATOM     16  C   UNL     1     -35.220  16.178  -3.545  0.00  0.00    -0.004 C 
BRANCH  15  17
ATOM     17  C   UNL     1     -34.620  14.278  -2.079  0.00  0.00    +0.162 C 
BRANCH  17  18
ATOM     18  O   UNL     1     -35.165  13.791  -0.859  0.00  0.00    -0.377 OA
ATOM     19  H   UNL     1     -34.655  13.021  -0.561  0.00  0.00    +0.211 HD
ENDBRANCH  17  18
ENDBRANCH  15  17
ENDBRANCH   5  15
BRANCH   9  20
ATOM     20  O   UNL     1     -36.926  21.195   0.271  0.00  0.00    -0.446 OA
BRANCH  20  22
ATOM     21  O   UNL     1     -38.845  21.202  -0.995  0.00  0.00    -0.247 OA
ATOM     22  C   UNL     1     -38.194  21.597  -0.036  0.00  0.00    +0.344 C 
BRANCH  22  23
ATOM     23  C   UNL     1     -38.699  22.621   0.986  0.00  0.00    +0.204 C 
BRANCH  23  24
ATOM     24  O   UNL     1     -39.644  23.409   0.262  0.00  0.00    -0.375 OA
ATOM     25  H   UNL     1     -39.235  23.738  -0.554  0.00  0.00    +0.211 HD
ENDBRANCH  23  24
BRANCH  23  26
ATOM     26  C   UNL     1     -37.524  23.507   1.465  0.00  0.00    +0.040 C 
BRANCH  26  27
ATOM     27  C   UNL     1     -37.603  24.067   2.907  0.00  0.00    +0.003 C 
ATOM     28  C   UNL     1     -38.474  25.326   3.007  0.00  0.00    +0.000 C 
BRANCH  27  29
ATOM     29  C   UNL     1     -36.196  24.408   3.461  0.00  0.00    +0.000 C 
BRANCH  29  30
ATOM     30  C   UNL     1     -35.954  24.166   4.971  0.00  0.00    +0.000 C 
ATOM     31  C   UNL     1     -35.463  25.475   5.605  0.00  0.00    +0.000 C 
BRANCH  30  32
ATOM     32  C   UNL     1     -34.968  23.008   5.217  0.00  0.00    +0.000 C 
ATOM     33  C   UNL     1     -35.449  22.000   6.251  0.00  0.00    +0.000 C 
ENDBRANCH  30  32
ENDBRANCH  29  30
ENDBRANCH  27  29
ENDBRANCH  26  27
ENDBRANCH  23  26
BRANCH  23  34
ATOM     34  C   UNL     1     -39.471  21.911   2.104  0.00  0.00    +0.175 C 
BRANCH  34  35
ATOM     35  O   UNL     1     -40.369  20.942   1.581  0.00  0.00    -0.379 OA
ATOM     36  H   UNL     1     -41.184  20.941   2.106  0.00  0.00    +0.211 HD
ENDBRANCH  34  35
ENDBRANCH  23  34
ENDBRANCH  22  23
ENDBRANCH  20  22
ENDBRANCH   9  20
TORSDOF 14
ENDMDL
MODEL 8
REMARK VINA RESULT:      -5.9      2.624      8.308
REMARK  Name = 53360338
REMARK  14 active torsions:
REMARK  status: ('A' for Active; 'I' for Inactive)
REMARK    1  A    between atoms: C_5  and  C_15
REMARK    2  A    between atoms: C_9  and  O_20
REMARK    3  A    between atoms: C_15  and  C_17
REMARK    4  A    between atoms: C_17  and  O_18
REMARK    5  A    between atoms: O_20  and  C_22
REMARK    6  A    between atoms: C_22  and  C_23
REMARK    7  A    between atoms: C_23  and  O_24
REMARK    8  A    between atoms: C_23  and  C_26
REMARK    9  A    between atoms: C_23  and  C_34
REMARK   10  A    between atoms: C_26  and  C_27
REMARK   11  A    between atoms: C_27  and  C_29
REMARK   12  A    between atoms: C_29  and  C_30
REMARK   13  A    between atoms: C_30  and  C_32
REMARK   14  A    between atoms: C_34  and  O_35
REMARK                            x       y       z     vdW  Elec       q    Type
REMARK                         _______ _______ _______ _____ _____    ______ ____
ROOT
ATOM      1  O   UNL     1     -34.623  28.471   3.802  0.00  0.00    -0.344 OA
ATOM      2  O   UNL     1     -32.552  26.968   5.966  0.00  0.00    -0.288 OA
ATOM      3  C   UNL     1     -34.999  26.317   2.563  0.00  0.00    +0.047 C 
ATOM      4  C   UNL     1     -34.212  27.617   2.726  0.00  0.00    +0.155 C 
ATOM      5  C   UNL     1     -33.345  27.825   3.930  0.00  0.00    +0.190 C 
ATOM      6  C   UNL     1     -36.481  26.677   2.174  0.00  0.00    +0.006 C 
ATOM      7  C   UNL     1     -35.006  25.447   3.839  0.00  0.00    -0.000 C 
ATOM      8  C   UNL     1     -37.415  25.451   2.167  0.00  0.00    +0.004 C 
ATOM      9  C   UNL     1     -35.974  24.281   3.891  0.00  0.00    +0.187 C 
ATOM     10  C   UNL     1     -34.287  25.522   1.438  0.00  0.00    +0.007 C 
ATOM     11  C   UNL     1     -33.307  26.832   5.012  0.00  0.00    +0.203 C 
ATOM     12  C   UNL     1     -37.385  24.714   3.503  0.00  0.00    +0.048 C 
ATOM     13  C   UNL     1     -34.238  25.687   4.917  0.00  0.00    +0.035 C 
ATOM     14  C   UNL     1     -36.616  27.407   0.829  0.00  0.00    +0.000 C 
ENDROOT
BRANCH   5  15
ATOM     15  C   UNL     1     -32.088  28.534   3.716  0.00  0.00    +0.018 C 
ATOM     16  C   UNL     1     -31.005  27.960   3.166  0.00  0.00    -0.004 C 
BRANCH  15  17
ATOM     17  C   UNL     1     -32.043  29.973   4.159  0.00  0.00    +0.162 C 
BRANCH  17  18
ATOM     18  O   UNL     1     -32.621  30.086   5.453  0.00  0.00    -0.377 OA
ATOM     19  H   UNL     1     -33.548  29.799   5.419  0.00  0.00    +0.211 HD
ENDBRANCH  17  18
ENDBRANCH  15  17
ENDBRANCH   5  15
BRANCH   9  20
ATOM     20  O   UNL     1     -35.521  23.244   3.024  0.00  0.00    -0.446 OA
BRANCH  20  22
ATOM     21  O   UNL     1     -35.547  21.604   4.637  0.00  0.00    -0.247 OA
ATOM     22  C   UNL     1     -35.707  21.970   3.478  0.00  0.00    +0.344 C 
BRANCH  22  23
ATOM     23  C   UNL     1     -36.141  21.046   2.335  0.00  0.00    +0.204 C 
BRANCH  23  24
ATOM     24  O   UNL     1     -36.505  19.827   2.983  0.00  0.00    -0.375 OA
ATOM     25  H   UNL     1     -36.079  19.081   2.531  0.00  0.00    +0.211 HD
ENDBRANCH  23  24
BRANCH  23  26
ATOM     26  C   UNL     1     -34.952  20.805   1.375  0.00  0.00    +0.040 C 
BRANCH  26  27
ATOM     27  C   UNL     1     -34.679  19.344   0.939  0.00  0.00    +0.003 C 
ATOM     28  C   UNL     1     -33.306  18.835   1.397  0.00  0.00    +0.000 C 
BRANCH  27  29
ATOM     29  C   UNL     1     -34.764  19.185  -0.600  0.00  0.00    +0.000 C 
BRANCH  29  30
ATOM     30  C   UNL     1     -35.934  18.339  -1.159  0.00  0.00    +0.000 C 
ATOM     31  C   UNL     1     -36.486  19.033  -2.413  0.00  0.00    +0.000 C 
BRANCH  30  32
ATOM     32  C   UNL     1     -37.032  18.108  -0.104  0.00  0.00    +0.000 C 
ATOM     33  C   UNL     1     -37.803  16.809  -0.292  0.00  0.00    +0.000 C 
ENDBRANCH  30  32
ENDBRANCH  29  30
ENDBRANCH  27  29
ENDBRANCH  26  27
ENDBRANCH  23  26
BRANCH  23  34
ATOM     34  C   UNL     1     -37.408  21.594   1.670  0.00  0.00    +0.175 C 
BRANCH  34  35
ATOM     35  O   UNL     1     -38.581  21.063   2.270  0.00  0.00    -0.379 OA
ATOM     36  H   UNL     1     -38.748  20.174   1.920  0.00  0.00    +0.211 HD
ENDBRANCH  34  35
ENDBRANCH  23  34
ENDBRANCH  22  23
ENDBRANCH  20  22
ENDBRANCH   9  20
TORSDOF 14
ENDMDL
MODEL 9
REMARK VINA RESULT:      -5.9      2.339      8.162
REMARK  Name = 53360338
REMARK  14 active torsions:
REMARK  status: ('A' for Active; 'I' for Inactive)
REMARK    1  A    between atoms: C_5  and  C_15
REMARK    2  A    between atoms: C_9  and  O_20
REMARK    3  A    between atoms: C_15  and  C_17
REMARK    4  A    between atoms: C_17  and  O_18
REMARK    5  A    between atoms: O_20  and  C_22
REMARK    6  A    between atoms: C_22  and  C_23
REMARK    7  A    between atoms: C_23  and  O_24
REMARK    8  A    between atoms: C_23  and  C_26
REMARK    9  A    between atoms: C_23  and  C_34
REMARK   10  A    between atoms: C_26  and  C_27
REMARK   11  A    between atoms: C_27  and  C_29
REMARK   12  A    between atoms: C_29  and  C_30
REMARK   13  A    between atoms: C_30  and  C_32
REMARK   14  A    between atoms: C_34  and  O_35
REMARK                            x       y       z     vdW  Elec       q    Type
REMARK                         _______ _______ _______ _____ _____    ______ ____
ROOT
ATOM      1  O   UNL     1     -33.657  29.032   4.117  0.00  0.00    -0.344 OA
ATOM      2  O   UNL     1     -31.832  27.726   6.606  0.00  0.00    -0.288 OA
ATOM      3  C   UNL     1     -34.165  26.748   3.202  0.00  0.00    +0.047 C 
ATOM      4  C   UNL     1     -33.274  27.988   3.212  0.00  0.00    +0.155 C 
ATOM      5  C   UNL     1     -32.449  28.313   4.419  0.00  0.00    +0.190 C 
ATOM      6  C   UNL     1     -35.589  27.160   2.674  0.00  0.00    +0.006 C 
ATOM      7  C   UNL     1     -34.309  26.092   4.593  0.00  0.00    -0.000 C 
ATOM      8  C   UNL     1     -36.627  26.028   2.799  0.00  0.00    +0.004 C 
ATOM      9  C   UNL     1     -35.379  25.031   4.764  0.00  0.00    +0.187 C 
ATOM     10  C   UNL     1     -33.475  25.730   2.257  0.00  0.00    +0.007 C 
ATOM     11  C   UNL     1     -32.551  27.503   5.641  0.00  0.00    +0.203 C 
ATOM     12  C   UNL     1     -36.726  25.511   4.230  0.00  0.00    +0.048 C 
ATOM     13  C   UNL     1     -33.574  26.437   5.667  0.00  0.00    +0.035 C 
ATOM     14  C   UNL     1     -35.595  27.678   1.228  0.00  0.00    +0.000 C 
ENDROOT
BRANCH   5  15
ATOM     15  C   UNL     1     -31.125  28.875   4.176  0.00  0.00    +0.018 C 
ATOM     16  C   UNL     1     -30.087  28.146   3.732  0.00  0.00    -0.004 C 
BRANCH  15  17
ATOM     17  C   UNL     1     -30.955  30.345   4.461  0.00  0.00    +0.162 C 
BRANCH  17  18
ATOM     18  O   UNL     1     -31.726  30.696   5.603  0.00  0.00    -0.377 OA
ATOM     19  H   UNL     1     -31.368  31.507   5.997  0.00  0.00    +0.211 HD
ENDBRANCH  17  18
ENDBRANCH  15  17
ENDBRANCH   5  15
BRANCH   9  20
ATOM     20  O   UNL     1     -34.981  23.838   4.096  0.00  0.00    -0.446 OA
BRANCH  20  22
ATOM     21  O   UNL     1     -36.095  22.380   5.482  0.00  0.00    -0.247 OA
ATOM     22  C   UNL     1     -35.730  22.729   4.366  0.00  0.00    +0.344 C 
BRANCH  22  23
ATOM     23  C   UNL     1     -36.055  21.968   3.076  0.00  0.00    +0.204 C 
BRANCH  23  24
ATOM     24  O   UNL     1     -35.989  20.591   3.450  0.00  0.00    -0.375 OA
ATOM     25  H   UNL     1     -35.319  20.141   2.913  0.00  0.00    +0.211 HD
ENDBRANCH  23  24
BRANCH  23  26
ATOM     26  C   UNL     1     -34.987  22.279   2.000  0.00  0.00    +0.040 C 
BRANCH  26  27
ATOM     27  C   UNL     1     -34.702  21.178   0.948  0.00  0.00    +0.003 C 
ATOM     28  C   UNL     1     -35.851  21.002  -0.052  0.00  0.00    +0.000 C 
BRANCH  27  29
ATOM     29  C   UNL     1     -34.430  19.808   1.619  0.00  0.00    +0.000 C 
BRANCH  29  30
ATOM     30  C   UNL     1     -33.099  19.101   1.268  0.00  0.00    +0.000 C 
ATOM     31  C   UNL     1     -32.304  19.999   0.310  0.00  0.00    +0.000 C 
BRANCH  30  32
ATOM     32  C   UNL     1     -33.332  17.698   0.676  0.00  0.00    +0.000 C 
ATOM     33  C   UNL     1     -34.245  17.688  -0.542  0.00  0.00    +0.000 C 
ENDBRANCH  30  32
ENDBRANCH  29  30
ENDBRANCH  27  29
ENDBRANCH  26  27
ENDBRANCH  23  26
BRANCH  23  34
ATOM     34  C   UNL     1     -37.501  22.247   2.652  0.00  0.00    +0.175 C 
BRANCH  34  35
ATOM     35  O   UNL     1     -38.223  21.041   2.443  0.00  0.00    -0.379 OA
ATOM     36  H   UNL     1     -39.172  21.237   2.405  0.00  0.00    +0.211 HD
ENDBRANCH  34  35
ENDBRANCH  23  34
ENDBRANCH  22  23
ENDBRANCH  20  22
ENDBRANCH   9  20
TORSDOF 14
ENDMDL
