MODEL 1
REMARK VINA RESULT:      -6.6      0.000      0.000
REMARK  Name = 5492574
REMARK  8 active torsions:
REMARK  status: ('A' for Active; 'I' for Inactive)
REMARK    1  A    between atoms: C_4  and  C_7
REMARK    2  A    between atoms: C_5  and  C_20
REMARK    3  A    between atoms: C_7  and  N_9
REMARK    4  A    between atoms: N_9  and  C_11
REMARK    5  A    between atoms: C_16  and  N_19
REMARK    6  A    between atoms: C_20  and  N_23
REMARK    7  A    between atoms: C_24  and  C_26
REMARK    8  A    between atoms: C_28  and  C_35
REMARK                            x       y       z     vdW  Elec       q    Type
REMARK                         _______ _______ _______ _____ _____    ______ ____
ROOT
ATOM      1  O   UNL     1     -33.635  28.733   1.268  0.00  0.00    -0.273 OA
ATOM      2  O   UNL     1     -32.168  28.589   3.648  0.00  0.00    -0.273 OA
ATOM      3  N   UNL     1     -34.314  27.758   3.273  0.00  0.00    -0.253 N 
ATOM      4  C   UNL     1     -34.474  28.134   1.938  0.00  0.00    +0.246 C 
ATOM      5  C   UNL     1     -33.176  28.007   4.044  0.00  0.00    +0.246 C 
ATOM      6  H   UNL     1     -35.060  27.282   3.703  0.00  0.00    +0.158 HD
ENDROOT
BRANCH   4   7
ATOM      7  C   UNL     1     -35.826  27.708   1.383  0.00  0.00    +0.147 C 
ATOM      8  C   UNL     1     -36.588  28.909   0.842  0.00  0.00    +0.031 C 
BRANCH   7   9
ATOM      9  N   UNL     1     -36.596  27.083   2.436  0.00  0.00    -0.327 N 
ATOM     10  H   UNL     1     -36.515  27.444   3.348  0.00  0.00    +0.147 HD
BRANCH   9  11
ATOM     11  C   UNL     1     -37.438  26.003   2.232  0.00  0.00    +0.045 C 
ATOM     12  C   UNL     1     -37.215  25.137   1.163  0.00  0.00    +0.016 C 
ATOM     13  C   UNL     1     -38.510  25.781   3.098  0.00  0.00    +0.016 C 
ATOM     14  C   UNL     1     -38.063  24.049   0.957  0.00  0.00    +0.025 C 
ATOM     15  C   UNL     1     -39.358  24.694   2.893  0.00  0.00    +0.025 C 
ATOM     16  C   UNL     1     -39.134  23.828   1.822  0.00  0.00    +0.143 C 
BRANCH  16  19
ATOM     17  O   UNL     1     -39.881  21.710   2.350  0.00  0.00    -0.126 OA
ATOM     18  O   UNL     1     -40.856  22.780   0.700  0.00  0.00    -0.126 OA
ATOM     19  N   UNL     1     -39.998  22.720   1.614  0.00  0.00    +0.058 N 
ENDBRANCH  16  19
ENDBRANCH   9  11
ENDBRANCH   7   9
ENDBRANCH   4   7
BRANCH   5  20
ATOM     20  C   UNL     1     -33.300  27.419   5.444  0.00  0.00    +0.149 C 
ATOM     21  C   UNL     1     -32.008  27.598   6.226  0.00  0.00    +0.031 C 
BRANCH  20  23
ATOM     22  O   UNL     1     -35.943  26.297   5.427  0.00  0.00    -0.270 OA
ATOM     23  N   UNL     1     -33.642  26.026   5.321  0.00  0.00    -0.295 N 
ATOM     24  C   UNL     1     -34.956  25.575   5.323  0.00  0.00    +0.246 C 
ATOM     25  H   UNL     1     -32.916  25.367   5.233  0.00  0.00    +0.150 HD
BRANCH  24  26
ATOM     26  C   UNL     1     -35.140  24.105   5.214  0.00  0.00    +0.053 C 
ATOM     27  C   UNL     1     -35.253  23.506   3.960  0.00  0.00    +0.008 C 
ATOM     28  C   UNL     1     -35.425  22.125   3.859  0.00  0.00    +0.072 C 
ATOM     29  C   UNL     1     -35.200  23.323   6.368  0.00  0.00    +0.004 C 
ATOM     30  C   UNL     1     -35.485  21.344   5.014  0.00  0.00    +0.004 C 
ATOM     31  C   UNL     1     -35.372  21.943   6.268  0.00  0.00    +0.000 C 
BRANCH  28  35
ATOM     32  F   UNL     1     -36.825  21.119   2.200  0.00  0.00    -0.166 F 
ATOM     33  F   UNL     1     -35.140  22.286   1.490  0.00  0.00    -0.166 F 
ATOM     34  F   UNL     1     -34.803  20.345   2.411  0.00  0.00    -0.166 F 
ATOM     35  C   UNL     1     -35.547  21.484   2.518  0.00  0.00    +0.419 C 
ENDBRANCH  28  35
ENDBRANCH  24  26
ENDBRANCH  20  23
ENDBRANCH   5  20
TORSDOF 8
ENDMDL
MODEL 2
REMARK VINA RESULT:      -6.5      1.503      2.075
REMARK  Name = 5492574
REMARK  8 active torsions:
REMARK  status: ('A' for Active; 'I' for Inactive)
REMARK    1  A    between atoms: C_4  and  C_7
REMARK    2  A    between atoms: C_5  and  C_20
REMARK    3  A    between atoms: C_7  and  N_9
REMARK    4  A    between atoms: N_9  and  C_11
REMARK    5  A    between atoms: C_16  and  N_19
REMARK    6  A    between atoms: C_20  and  N_23
REMARK    7  A    between atoms: C_24  and  C_26
REMARK    8  A    between atoms: C_28  and  C_35
REMARK                            x       y       z     vdW  Elec       q    Type
REMARK                         _______ _______ _______ _____ _____    ______ ____
ROOT
ATOM      1  O   UNL     1     -36.923  28.961   1.432  0.00  0.00    -0.273 OA
ATOM      2  O   UNL     1     -34.757  29.382   3.154  0.00  0.00    -0.273 OA
ATOM      3  N   UNL     1     -35.429  27.355   2.220  0.00  0.00    -0.253 N 
ATOM      4  C   UNL     1     -36.530  27.797   1.483  0.00  0.00    +0.246 C 
ATOM      5  C   UNL     1     -34.613  28.170   3.007  0.00  0.00    +0.246 C 
ATOM      6  H   UNL     1     -35.213  26.396   2.181  0.00  0.00    +0.158 HD
ENDROOT
BRANCH   4   7
ATOM      7  C   UNL     1     -37.204  26.662   0.725  0.00  0.00    +0.147 C 
ATOM      8  C   UNL     1     -38.653  27.007   0.414  0.00  0.00    +0.031 C 
BRANCH   7   9
ATOM      9  N   UNL     1     -37.156  25.461   1.530  0.00  0.00    -0.327 N 
ATOM     10  H   UNL     1     -36.603  25.468   2.343  0.00  0.00    +0.147 HD
BRANCH   9  11
ATOM     11  C   UNL     1     -37.845  24.301   1.218  0.00  0.00    +0.045 C 
ATOM     12  C   UNL     1     -38.745  23.757   2.133  0.00  0.00    +0.016 C 
ATOM     13  C   UNL     1     -37.640  23.678  -0.014  0.00  0.00    +0.016 C 
ATOM     14  C   UNL     1     -39.439  22.589   1.820  0.00  0.00    +0.025 C 
ATOM     15  C   UNL     1     -38.334  22.509  -0.328  0.00  0.00    +0.025 C 
ATOM     16  C   UNL     1     -39.233  21.966   0.589  0.00  0.00    +0.143 C 
BRANCH  16  19
ATOM     17  O   UNL     1     -41.181  20.737   0.457  0.00  0.00    -0.126 OA
ATOM     18  O   UNL     1     -39.308  19.798  -0.196  0.00  0.00    -0.126 OA
ATOM     19  N   UNL     1     -39.941  20.777   0.269  0.00  0.00    +0.058 N 
ENDBRANCH  16  19
ENDBRANCH   9  11
ENDBRANCH   7   9
ENDBRANCH   4   7
BRANCH   5  20
ATOM     20  C   UNL     1     -33.467  27.387   3.636  0.00  0.00    +0.149 C 
ATOM     21  C   UNL     1     -32.213  27.476   2.781  0.00  0.00    +0.031 C 
BRANCH  20  23
ATOM     22  O   UNL     1     -34.873  26.279   5.881  0.00  0.00    -0.270 OA
ATOM     23  N   UNL     1     -33.889  26.019   3.797  0.00  0.00    -0.295 N 
ATOM     24  C   UNL     1     -34.567  25.573   4.924  0.00  0.00    +0.246 C 
ATOM     25  H   UNL     1     -33.687  25.375   3.080  0.00  0.00    +0.150 HD
BRANCH  24  26
ATOM     26  C   UNL     1     -34.908  24.128   4.949  0.00  0.00    +0.053 C 
ATOM     27  C   UNL     1     -35.042  23.421   3.755  0.00  0.00    +0.008 C 
ATOM     28  C   UNL     1     -35.362  22.062   3.780  0.00  0.00    +0.072 C 
ATOM     29  C   UNL     1     -35.094  23.477   6.170  0.00  0.00    +0.004 C 
ATOM     30  C   UNL     1     -35.548  21.413   5.001  0.00  0.00    +0.004 C 
ATOM     31  C   UNL     1     -35.414  22.120   6.195  0.00  0.00    +0.000 C 
BRANCH  28  35
ATOM     32  F   UNL     1     -36.768  20.828   2.290  0.00  0.00    -0.166 F 
ATOM     33  F   UNL     1     -35.214  22.047   1.393  0.00  0.00    -0.166 F 
ATOM     34  F   UNL     1     -34.687  20.217   2.442  0.00  0.00    -0.166 F 
ATOM     35  C   UNL     1     -35.506  21.307   2.503  0.00  0.00    +0.419 C 
ENDBRANCH  28  35
ENDBRANCH  24  26
ENDBRANCH  20  23
ENDBRANCH   5  20
TORSDOF 8
ENDMDL
MODEL 3
REMARK VINA RESULT:      -6.3      3.567      5.495
REMARK  Name = 5492574
REMARK  8 active torsions:
REMARK  status: ('A' for Active; 'I' for Inactive)
REMARK    1  A    between atoms: C_4  and  C_7
REMARK    2  A    between atoms: C_5  and  C_20
REMARK    3  A    between atoms: C_7  and  N_9
REMARK    4  A    between atoms: N_9  and  C_11
REMARK    5  A    between atoms: C_16  and  N_19
REMARK    6  A    between atoms: C_20  and  N_23
REMARK    7  A    between atoms: C_24  and  C_26
REMARK    8  A    between atoms: C_28  and  C_35
REMARK                            x       y       z     vdW  Elec       q    Type
REMARK                         _______ _______ _______ _____ _____    ______ ____
ROOT
ATOM      1  O   UNL     1     -33.583  19.983  -1.205  0.00  0.00    -0.273 OA
ATOM      2  O   UNL     1     -33.207  22.629  -2.037  0.00  0.00    -0.273 OA
ATOM      3  N   UNL     1     -33.751  21.900   0.110  0.00  0.00    -0.253 N 
ATOM      4  C   UNL     1     -33.794  20.524  -0.121  0.00  0.00    +0.246 C 
ATOM      5  C   UNL     1     -33.461  22.865  -0.857  0.00  0.00    +0.246 C 
ATOM      6  H   UNL     1     -33.939  22.214   1.023  0.00  0.00    +0.158 HD
ENDROOT
BRANCH   4   7
ATOM      7  C   UNL     1     -34.131  19.743   1.142  0.00  0.00    +0.147 C 
ATOM      8  C   UNL     1     -33.105  18.646   1.386  0.00  0.00    +0.031 C 
BRANCH   7   9
ATOM      9  N   UNL     1     -35.444  19.154   0.999  0.00  0.00    -0.327 N 
ATOM     10  H   UNL     1     -35.507  18.176   0.904  0.00  0.00    +0.147 HD
BRANCH   9  11
ATOM     11  C   UNL     1     -36.617  19.888   0.988  0.00  0.00    +0.045 C 
ATOM     12  C   UNL     1     -36.838  20.863   1.960  0.00  0.00    +0.016 C 
ATOM     13  C   UNL     1     -37.578  19.654   0.004  0.00  0.00    +0.016 C 
ATOM     14  C   UNL     1     -38.020  21.604   1.950  0.00  0.00    +0.025 C 
ATOM     15  C   UNL     1     -38.760  20.395  -0.007  0.00  0.00    +0.025 C 
ATOM     16  C   UNL     1     -38.980  21.369   0.966  0.00  0.00    +0.143 C 
BRANCH  16  19
ATOM     17  O   UNL     1     -40.405  22.931   1.889  0.00  0.00    -0.126 OA
ATOM     18  O   UNL     1     -40.992  21.965   0.008  0.00  0.00    -0.126 OA
ATOM     19  N   UNL     1     -40.183  22.124   0.954  0.00  0.00    +0.058 N 
ENDBRANCH  16  19
ENDBRANCH   9  11
ENDBRANCH   7   9
ENDBRANCH   4   7
BRANCH   5  20
ATOM     20  C   UNL     1     -33.441  24.271  -0.268  0.00  0.00    +0.149 C 
ATOM     21  C   UNL     1     -32.063  24.898  -0.404  0.00  0.00    +0.031 C 
BRANCH  20  23
ATOM     22  O   UNL     1     -35.430  25.874   1.042  0.00  0.00    -0.270 OA
ATOM     23  N   UNL     1     -33.839  24.188   1.113  0.00  0.00    -0.295 N 
ATOM     24  C   UNL     1     -34.816  25.010   1.661  0.00  0.00    +0.246 C 
ATOM     25  H   UNL     1     -33.401  23.523   1.692  0.00  0.00    +0.150 HD
BRANCH  24  26
ATOM     26  C   UNL     1     -35.092  24.817   3.108  0.00  0.00    +0.053 C 
ATOM     27  C   UNL     1     -35.008  23.544   3.672  0.00  0.00    +0.008 C 
ATOM     28  C   UNL     1     -35.267  23.365   5.031  0.00  0.00    +0.072 C 
ATOM     29  C   UNL     1     -35.437  25.911   3.903  0.00  0.00    +0.004 C 
ATOM     30  C   UNL     1     -35.612  24.459   5.825  0.00  0.00    +0.004 C 
ATOM     31  C   UNL     1     -35.696  25.732   5.261  0.00  0.00    +0.000 C 
BRANCH  28  35
ATOM     32  F   UNL     1     -36.130  21.763   6.584  0.00  0.00    -0.166 F 
ATOM     33  F   UNL     1     -35.316  20.994   4.726  0.00  0.00    -0.166 F 
ATOM     34  F   UNL     1     -33.981  21.781   6.252  0.00  0.00    -0.166 F 
ATOM     35  C   UNL     1     -35.178  22.005   5.634  0.00  0.00    +0.419 C 
ENDBRANCH  28  35
ENDBRANCH  24  26
ENDBRANCH  20  23
ENDBRANCH   5  20
TORSDOF 8
ENDMDL
MODEL 4
REMARK VINA RESULT:      -6.3      5.046      8.773
REMARK  Name = 5492574
REMARK  8 active torsions:
REMARK  status: ('A' for Active; 'I' for Inactive)
REMARK    1  A    between atoms: C_4  and  C_7
REMARK    2  A    between atoms: C_5  and  C_20
REMARK    3  A    between atoms: C_7  and  N_9
REMARK    4  A    between atoms: N_9  and  C_11
REMARK    5  A    between atoms: C_16  and  N_19
REMARK    6  A    between atoms: C_20  and  N_23
REMARK    7  A    between atoms: C_24  and  C_26
REMARK    8  A    between atoms: C_28  and  C_35
REMARK                            x       y       z     vdW  Elec       q    Type
REMARK                         _______ _______ _______ _____ _____    ______ ____
ROOT
ATOM      1  O   UNL     1     -39.042  21.215   1.611  0.00  0.00    -0.273 OA
ATOM      2  O   UNL     1     -40.800  23.393   1.572  0.00  0.00    -0.273 OA
ATOM      3  N   UNL     1     -38.538  23.429   2.132  0.00  0.00    -0.253 N 
ATOM      4  C   UNL     1     -38.238  22.076   1.962  0.00  0.00    +0.246 C 
ATOM      5  C   UNL     1     -39.794  24.003   1.928  0.00  0.00    +0.246 C 
ATOM      6  H   UNL     1     -37.807  24.024   2.418  0.00  0.00    +0.158 HD
ENDROOT
BRANCH   4   7
ATOM      7  C   UNL     1     -36.776  21.773   2.257  0.00  0.00    +0.147 C 
ATOM      8  C   UNL     1     -36.476  20.299   2.032  0.00  0.00    +0.031 C 
BRANCH   7   9
ATOM      9  N   UNL     1     -36.488  22.120   3.631  0.00  0.00    -0.327 N 
ATOM     10  H   UNL     1     -36.859  21.550   4.342  0.00  0.00    +0.147 HD
BRANCH   9  11
ATOM     11  C   UNL     1     -35.718  23.210   4.002  0.00  0.00    +0.045 C 
ATOM     12  C   UNL     1     -35.721  23.646   5.326  0.00  0.00    +0.016 C 
ATOM     13  C   UNL     1     -34.940  23.870   3.050  0.00  0.00    +0.016 C 
ATOM     14  C   UNL     1     -34.946  24.744   5.700  0.00  0.00    +0.025 C 
ATOM     15  C   UNL     1     -34.165  24.968   3.424  0.00  0.00    +0.025 C 
ATOM     16  C   UNL     1     -34.168  25.404   4.749  0.00  0.00    +0.143 C 
BRANCH  16  19
ATOM     17  O   UNL     1     -33.445  26.941   6.310  0.00  0.00    -0.126 OA
ATOM     18  O   UNL     1     -32.633  27.059   4.275  0.00  0.00    -0.126 OA
ATOM     19  N   UNL     1     -33.378  26.522   5.129  0.00  0.00    +0.058 N 
ENDBRANCH  16  19
ENDBRANCH   9  11
ENDBRANCH   7   9
ENDBRANCH   4   7
BRANCH   5  20
ATOM     20  C   UNL     1     -39.772  25.512   2.146  0.00  0.00    +0.149 C 
ATOM     21  C   UNL     1     -38.531  25.932   2.918  0.00  0.00    +0.031 C 
BRANCH  20  23
ATOM     22  O   UNL     1     -41.449  27.778   1.600  0.00  0.00    -0.270 OA
ATOM     23  N   UNL     1     -40.971  25.884   2.851  0.00  0.00    -0.295 N 
ATOM     24  C   UNL     1     -41.721  27.004   2.513  0.00  0.00    +0.246 C 
ATOM     25  H   UNL     1     -41.271  25.323   3.603  0.00  0.00    +0.150 HD
BRANCH  24  26
ATOM     26  C   UNL     1     -42.916  27.265   3.355  0.00  0.00    +0.053 C 
ATOM     27  C   UNL     1     -42.937  28.361   4.218  0.00  0.00    +0.008 C 
ATOM     28  C   UNL     1     -44.061  28.606   5.008  0.00  0.00    +0.072 C 
ATOM     29  C   UNL     1     -44.019  26.414   3.282  0.00  0.00    +0.004 C 
ATOM     30  C   UNL     1     -45.163  27.754   4.934  0.00  0.00    +0.004 C 
ATOM     31  C   UNL     1     -45.143  26.658   4.071  0.00  0.00    +0.000 C 
BRANCH  28  35
ATOM     32  F   UNL     1     -42.877  30.407   6.045  0.00  0.00    -0.166 F 
ATOM     33  F   UNL     1     -44.961  30.753   5.554  0.00  0.00    -0.166 F 
ATOM     34  F   UNL     1     -44.440  29.435   7.203  0.00  0.00    -0.166 F 
ATOM     35  C   UNL     1     -44.084  29.776   5.931  0.00  0.00    +0.419 C 
ENDBRANCH  28  35
ENDBRANCH  24  26
ENDBRANCH  20  23
ENDBRANCH   5  20
TORSDOF 8
ENDMDL
MODEL 5
REMARK VINA RESULT:      -6.3      4.175      5.971
REMARK  Name = 5492574
REMARK  8 active torsions:
REMARK  status: ('A' for Active; 'I' for Inactive)
REMARK    1  A    between atoms: C_4  and  C_7
REMARK    2  A    between atoms: C_5  and  C_20
REMARK    3  A    between atoms: C_7  and  N_9
REMARK    4  A    between atoms: N_9  and  C_11
REMARK    5  A    between atoms: C_16  and  N_19
REMARK    6  A    between atoms: C_20  and  N_23
REMARK    7  A    between atoms: C_24  and  C_26
REMARK    8  A    between atoms: C_28  and  C_35
REMARK                            x       y       z     vdW  Elec       q    Type
REMARK                         _______ _______ _______ _____ _____    ______ ____
ROOT
ATOM      1  O   UNL     1     -33.485  32.254   2.823  0.00  0.00    -0.273 OA
ATOM      2  O   UNL     1     -31.451  31.159   4.404  0.00  0.00    -0.273 OA
ATOM      3  N   UNL     1     -33.474  30.152   3.832  0.00  0.00    -0.253 N 
ATOM      4  C   UNL     1     -34.026  31.174   3.057  0.00  0.00    +0.246 C 
ATOM      5  C   UNL     1     -32.226  30.206   4.456  0.00  0.00    +0.246 C 
ATOM      6  H   UNL     1     -34.006  29.332   3.947  0.00  0.00    +0.158 HD
ENDROOT
BRANCH   4   7
ATOM      7  C   UNL     1     -35.397  30.800   2.511  0.00  0.00    +0.147 C 
ATOM      8  C   UNL     1     -35.400  29.368   1.998  0.00  0.00    +0.031 C 
BRANCH   7   9
ATOM      9  N   UNL     1     -35.740  31.701   1.432  0.00  0.00    -0.327 N 
ATOM     10  H   UNL     1     -35.111  31.786   0.681  0.00  0.00    +0.147 HD
BRANCH   9  11
ATOM     11  C   UNL     1     -36.904  32.449   1.399  0.00  0.00    +0.045 C 
ATOM     12  C   UNL     1     -38.129  31.824   1.165  0.00  0.00    +0.016 C 
ATOM     13  C   UNL     1     -36.853  33.829   1.602  0.00  0.00    +0.016 C 
ATOM     14  C   UNL     1     -39.302  32.578   1.131  0.00  0.00    +0.025 C 
ATOM     15  C   UNL     1     -38.026  34.583   1.568  0.00  0.00    +0.025 C 
ATOM     16  C   UNL     1     -39.250  33.957   1.333  0.00  0.00    +0.143 C 
BRANCH  16  19
ATOM     17  O   UNL     1     -41.418  34.366   2.005  0.00  0.00    -0.126 OA
ATOM     18  O   UNL     1     -40.494  35.742   0.567  0.00  0.00    -0.126 OA
ATOM     19  N   UNL     1     -40.444  34.724   1.300  0.00  0.00    +0.058 N 
ENDBRANCH  16  19
ENDBRANCH   9  11
ENDBRANCH   7   9
ENDBRANCH   4   7
BRANCH   5  20
ATOM     20  C   UNL     1     -31.897  28.906   5.180  0.00  0.00    +0.149 C 
ATOM     21  C   UNL     1     -30.527  28.388   4.772  0.00  0.00    +0.031 C 
BRANCH  20  23
ATOM     22  O   UNL     1     -32.784  26.750   6.857  0.00  0.00    -0.270 OA
ATOM     23  N   UNL     1     -32.926  27.946   4.874  0.00  0.00    -0.295 N 
ATOM     24  C   UNL     1     -33.289  26.932   5.752  0.00  0.00    +0.246 C 
ATOM     25  H   UNL     1     -33.389  28.009   4.008  0.00  0.00    +0.150 HD
BRANCH  24  26
ATOM     26  C   UNL     1     -34.349  26.007   5.277  0.00  0.00    +0.053 C 
ATOM     27  C   UNL     1     -34.330  24.667   5.661  0.00  0.00    +0.008 C 
ATOM     28  C   UNL     1     -35.328  23.799   5.214  0.00  0.00    +0.072 C 
ATOM     29  C   UNL     1     -35.366  26.481   4.447  0.00  0.00    +0.004 C 
ATOM     30  C   UNL     1     -36.343  24.274   4.383  0.00  0.00    +0.004 C 
ATOM     31  C   UNL     1     -36.362  25.614   4.000  0.00  0.00    +0.000 C 
BRANCH  28  35
ATOM     32  F   UNL     1     -36.088  22.096   6.712  0.00  0.00    -0.166 F 
ATOM     33  F   UNL     1     -35.748  21.513   4.651  0.00  0.00    -0.166 F 
ATOM     34  F   UNL     1     -34.057  21.931   5.952  0.00  0.00    -0.166 F 
ATOM     35  C   UNL     1     -35.308  22.366   5.623  0.00  0.00    +0.419 C 
ENDBRANCH  28  35
ENDBRANCH  24  26
ENDBRANCH  20  23
ENDBRANCH   5  20
TORSDOF 8
ENDMDL
MODEL 6
REMARK VINA RESULT:      -6.3      3.990      5.474
REMARK  Name = 5492574
REMARK  8 active torsions:
REMARK  status: ('A' for Active; 'I' for Inactive)
REMARK    1  A    between atoms: C_4  and  C_7
REMARK    2  A    between atoms: C_5  and  C_20
REMARK    3  A    between atoms: C_7  and  N_9
REMARK    4  A    between atoms: N_9  and  C_11
REMARK    5  A    between atoms: C_16  and  N_19
REMARK    6  A    between atoms: C_20  and  N_23
REMARK    7  A    between atoms: C_24  and  C_26
REMARK    8  A    between atoms: C_28  and  C_35
REMARK                            x       y       z     vdW  Elec       q    Type
REMARK                         _______ _______ _______ _____ _____    ______ ____
ROOT
ATOM      1  O   UNL     1     -33.698  26.146   3.503  0.00  0.00    -0.273 OA
ATOM      2  O   UNL     1     -34.276  24.388   5.603  0.00  0.00    -0.273 OA
ATOM      3  N   UNL     1     -35.125  24.304   3.434  0.00  0.00    -0.253 N 
ATOM      4  C   UNL     1     -34.475  25.415   2.891  0.00  0.00    +0.246 C 
ATOM      5  C   UNL     1     -34.987  23.860   4.750  0.00  0.00    +0.246 C 
ATOM      6  H   UNL     1     -35.726  23.796   2.843  0.00  0.00    +0.158 HD
ENDROOT
BRANCH   4   7
ATOM      7  C   UNL     1     -34.833  25.627   1.427  0.00  0.00    +0.147 C 
ATOM      8  C   UNL     1     -35.740  26.838   1.265  0.00  0.00    +0.031 C 
BRANCH   7   9
ATOM      9  N   UNL     1     -35.507  24.449   0.928  0.00  0.00    -0.327 N 
ATOM     10  H   UNL     1     -36.438  24.293   1.204  0.00  0.00    +0.147 HD
BRANCH   9  11
ATOM     11  C   UNL     1     -34.913  23.526   0.083  0.00  0.00    +0.045 C 
ATOM     12  C   UNL     1     -33.544  23.277   0.175  0.00  0.00    +0.016 C 
ATOM     13  C   UNL     1     -35.684  22.845  -0.859  0.00  0.00    +0.016 C 
ATOM     14  C   UNL     1     -32.945  22.348  -0.675  0.00  0.00    +0.025 C 
ATOM     15  C   UNL     1     -35.086  21.916  -1.710  0.00  0.00    +0.025 C 
ATOM     16  C   UNL     1     -33.717  21.668  -1.617  0.00  0.00    +0.143 C 
BRANCH  16  19
ATOM     17  O   UNL     1     -33.759  20.285  -3.463  0.00  0.00    -0.126 OA
ATOM     18  O   UNL     1     -31.933  20.346  -2.246  0.00  0.00    -0.126 OA
ATOM     19  N   UNL     1     -33.108  20.721  -2.483  0.00  0.00    +0.058 N 
ENDBRANCH  16  19
ENDBRANCH   9  11
ENDBRANCH   7   9
ENDBRANCH   4   7
BRANCH   5  20
ATOM     20  C   UNL     1     -35.789  22.589   5.008  0.00  0.00    +0.149 C 
ATOM     21  C   UNL     1     -35.487  22.025   6.387  0.00  0.00    +0.031 C 
BRANCH  20  23
ATOM     22  O   UNL     1     -37.240  22.149   2.569  0.00  0.00    -0.270 OA
ATOM     23  N   UNL     1     -35.469  21.637   3.977  0.00  0.00    -0.295 N 
ATOM     24  C   UNL     1     -36.234  21.494   2.826  0.00  0.00    +0.246 C 
ATOM     25  H   UNL     1     -34.677  21.063   4.093  0.00  0.00    +0.150 HD
BRANCH  24  26
ATOM     26  C   UNL     1     -35.785  20.448   1.872  0.00  0.00    +0.053 C 
ATOM     27  C   UNL     1     -34.445  20.067   1.831  0.00  0.00    +0.008 C 
ATOM     28  C   UNL     1     -34.025  19.083   0.934  0.00  0.00    +0.072 C 
ATOM     29  C   UNL     1     -36.708  19.844   1.016  0.00  0.00    +0.004 C 
ATOM     30  C   UNL     1     -34.948  18.481   0.079  0.00  0.00    +0.004 C 
ATOM     31  C   UNL     1     -36.289  18.862   0.120  0.00  0.00    +0.000 C 
BRANCH  28  35
ATOM     32  F   UNL     1     -31.724  19.732   0.865  0.00  0.00    -0.166 F 
ATOM     33  F   UNL     1     -32.204  17.923   1.961  0.00  0.00    -0.166 F 
ATOM     34  F   UNL     1     -32.291  17.929  -0.212  0.00  0.00    -0.166 F 
ATOM     35  C   UNL     1     -32.592  18.677   0.890  0.00  0.00    +0.419 C 
ENDBRANCH  28  35
ENDBRANCH  24  26
ENDBRANCH  20  23
ENDBRANCH   5  20
TORSDOF 8
ENDMDL
MODEL 7
REMARK VINA RESULT:      -6.2      4.680      8.544
REMARK  Name = 5492574
REMARK  8 active torsions:
REMARK  status: ('A' for Active; 'I' for Inactive)
REMARK    1  A    between atoms: C_4  and  C_7
REMARK    2  A    between atoms: C_5  and  C_20
REMARK    3  A    between atoms: C_7  and  N_9
REMARK    4  A    between atoms: N_9  and  C_11
REMARK    5  A    between atoms: C_16  and  N_19
REMARK    6  A    between atoms: C_20  and  N_23
REMARK    7  A    between atoms: C_24  and  C_26
REMARK    8  A    between atoms: C_28  and  C_35
REMARK                            x       y       z     vdW  Elec       q    Type
REMARK                         _______ _______ _______ _____ _____    ______ ____
ROOT
ATOM      1  O   UNL     1     -38.904  21.214   1.877  0.00  0.00    -0.273 OA
ATOM      2  O   UNL     1     -40.639  23.410   1.814  0.00  0.00    -0.273 OA
ATOM      3  N   UNL     1     -38.353  23.444   2.269  0.00  0.00    -0.253 N 
ATOM      4  C   UNL     1     -38.076  22.081   2.150  0.00  0.00    +0.246 C 
ATOM      5  C   UNL     1     -39.611  24.024   2.094  0.00  0.00    +0.246 C 
ATOM      6  H   UNL     1     -37.604  24.042   2.493  0.00  0.00    +0.158 HD
ENDROOT
BRANCH   4   7
ATOM      7  C   UNL     1     -36.605  21.774   2.393  0.00  0.00    +0.147 C 
ATOM      8  C   UNL     1     -36.311  20.305   2.128  0.00  0.00    +0.031 C 
BRANCH   7   9
ATOM      9  N   UNL     1     -36.274  22.093   3.765  0.00  0.00    -0.327 N 
ATOM     10  H   UNL     1     -36.554  21.465   4.469  0.00  0.00    +0.147 HD
BRANCH   9  11
ATOM     11  C   UNL     1     -35.585  23.233   4.142  0.00  0.00    +0.045 C 
ATOM     12  C   UNL     1     -35.510  23.589   5.488  0.00  0.00    +0.016 C 
ATOM     13  C   UNL     1     -34.964  24.025   3.175  0.00  0.00    +0.016 C 
ATOM     14  C   UNL     1     -34.816  24.737   5.869  0.00  0.00    +0.025 C 
ATOM     15  C   UNL     1     -34.271  25.174   3.556  0.00  0.00    +0.025 C 
ATOM     16  C   UNL     1     -34.197  25.529   4.902  0.00  0.00    +0.143 C 
BRANCH  16  19
ATOM     17  O   UNL     1     -33.343  27.625   4.456  0.00  0.00    -0.126 OA
ATOM     18  O   UNL     1     -33.031  26.774   6.455  0.00  0.00    -0.126 OA
ATOM     19  N   UNL     1     -33.489  26.698   5.289  0.00  0.00    +0.058 N 
ENDBRANCH  16  19
ENDBRANCH   9  11
ENDBRANCH   7   9
ENDBRANCH   4   7
BRANCH   5  20
ATOM     20  C   UNL     1     -39.563  25.540   2.239  0.00  0.00    +0.149 C 
ATOM     21  C   UNL     1     -38.297  25.979   2.957  0.00  0.00    +0.031 C 
BRANCH  20  23
ATOM     22  O   UNL     1     -41.397  27.607   1.458  0.00  0.00    -0.270 OA
ATOM     23  N   UNL     1     -40.739  25.963   2.956  0.00  0.00    -0.295 N 
ATOM     24  C   UNL     1     -41.570  26.978   2.498  0.00  0.00    +0.246 C 
ATOM     25  H   UNL     1     -40.961  25.516   3.804  0.00  0.00    +0.150 HD
BRANCH  24  26
ATOM     26  C   UNL     1     -42.727  27.313   3.367  0.00  0.00    +0.053 C 
ATOM     27  C   UNL     1     -43.826  26.458   3.428  0.00  0.00    +0.008 C 
ATOM     28  C   UNL     1     -44.912  26.774   4.246  0.00  0.00    +0.072 C 
ATOM     29  C   UNL     1     -42.712  28.486   4.124  0.00  0.00    +0.004 C 
ATOM     30  C   UNL     1     -44.897  27.947   5.001  0.00  0.00    +0.004 C 
ATOM     31  C   UNL     1     -43.797  28.803   4.940  0.00  0.00    +0.000 C 
BRANCH  28  35
ATOM     32  F   UNL     1     -45.916  24.697   3.615  0.00  0.00    -0.166 F 
ATOM     33  F   UNL     1     -46.408  25.471   5.581  0.00  0.00    -0.166 F 
ATOM     34  F   UNL     1     -47.222  26.427   3.804  0.00  0.00    -0.166 F 
ATOM     35  C   UNL     1     -46.088  25.861   4.311  0.00  0.00    +0.419 C 
ENDBRANCH  28  35
ENDBRANCH  24  26
ENDBRANCH  20  23
ENDBRANCH   5  20
TORSDOF 8
ENDMDL
MODEL 8
REMARK VINA RESULT:      -6.2      4.137      6.587
REMARK  Name = 5492574
REMARK  8 active torsions:
REMARK  status: ('A' for Active; 'I' for Inactive)
REMARK    1  A    between atoms: C_4  and  C_7
REMARK    2  A    between atoms: C_5  and  C_20
REMARK    3  A    between atoms: C_7  and  N_9
REMARK    4  A    between atoms: N_9  and  C_11
REMARK    5  A    between atoms: C_16  and  N_19
REMARK    6  A    between atoms: C_20  and  N_23
REMARK    7  A    between atoms: C_24  and  C_26
REMARK    8  A    between atoms: C_28  and  C_35
REMARK                            x       y       z     vdW  Elec       q    Type
REMARK                         _______ _______ _______ _____ _____    ______ ____
ROOT
ATOM      1  O   UNL     1     -37.334  22.166  -1.851  0.00  0.00    -0.273 OA
ATOM      2  O   UNL     1     -37.886  24.911  -1.863  0.00  0.00    -0.273 OA
ATOM      3  N   UNL     1     -37.261  23.617  -0.027  0.00  0.00    -0.253 N 
ATOM      4  C   UNL     1     -37.137  22.375  -0.655  0.00  0.00    +0.246 C 
ATOM      5  C   UNL     1     -37.626  24.803  -0.666  0.00  0.00    +0.246 C 
ATOM      6  H   UNL     1     -37.077  23.658   0.939  0.00  0.00    +0.158 HD
ENDROOT
BRANCH   4   7
ATOM      7  C   UNL     1     -36.717  21.283   0.318  0.00  0.00    +0.147 C 
ATOM      8  C   UNL     1     -37.745  21.126   1.428  0.00  0.00    +0.031 C 
BRANCH   7   9
ATOM      9  N   UNL     1     -35.435  21.628   0.893  0.00  0.00    -0.327 N 
ATOM     10  H   UNL     1     -35.349  22.494   1.351  0.00  0.00    +0.147 HD
BRANCH   9  11
ATOM     11  C   UNL     1     -34.322  20.806   0.834  0.00  0.00    +0.045 C 
ATOM     12  C   UNL     1     -34.301  19.609   1.549  0.00  0.00    +0.016 C 
ATOM     13  C   UNL     1     -33.222  21.176   0.058  0.00  0.00    +0.016 C 
ATOM     14  C   UNL     1     -33.180  18.781   1.490  0.00  0.00    +0.025 C 
ATOM     15  C   UNL     1     -32.102  20.348  -0.001  0.00  0.00    +0.025 C 
ATOM     16  C   UNL     1     -32.081  19.151   0.715  0.00  0.00    +0.143 C 
BRANCH  16  19
ATOM     17  O   UNL     1     -29.853  18.783   0.246  0.00  0.00    -0.126 OA
ATOM     18  O   UNL     1     -31.049  17.109   1.010  0.00  0.00    -0.126 OA
ATOM     19  N   UNL     1     -30.940  18.307   0.654  0.00  0.00    +0.058 N 
ENDBRANCH  16  19
ENDBRANCH   9  11
ENDBRANCH   7   9
ENDBRANCH   4   7
BRANCH   5  20
ATOM     20  C   UNL     1     -37.615  25.990   0.291  0.00  0.00    +0.149 C 
ATOM     21  C   UNL     1     -37.018  27.220  -0.374  0.00  0.00    +0.031 C 
BRANCH  20  23
ATOM     22  O   UNL     1     -38.477  26.212   3.021  0.00  0.00    -0.270 OA
ATOM     23  N   UNL     1     -36.865  25.618   1.462  0.00  0.00    -0.295 N 
ATOM     24  C   UNL     1     -37.367  25.763   2.750  0.00  0.00    +0.246 C 
ATOM     25  H   UNL     1     -35.960  25.248   1.346  0.00  0.00    +0.150 HD
BRANCH  24  26
ATOM     26  C   UNL     1     -36.458  25.358   3.852  0.00  0.00    +0.053 C 
ATOM     27  C   UNL     1     -36.333  24.013   4.197  0.00  0.00    +0.008 C 
ATOM     28  C   UNL     1     -35.478  23.634   5.233  0.00  0.00    +0.072 C 
ATOM     29  C   UNL     1     -35.727  26.326   4.543  0.00  0.00    +0.004 C 
ATOM     30  C   UNL     1     -34.748  24.603   5.923  0.00  0.00    +0.004 C 
ATOM     31  C   UNL     1     -34.873  25.948   5.578  0.00  0.00    +0.000 C 
BRANCH  28  35
ATOM     32  F   UNL     1     -34.092  21.854   6.028  0.00  0.00    -0.166 F 
ATOM     33  F   UNL     1     -36.181  21.811   6.611  0.00  0.00    -0.166 F 
ATOM     34  F   UNL     1     -35.618  21.359   4.560  0.00  0.00    -0.166 F 
ATOM     35  C   UNL     1     -35.345  22.196   5.602  0.00  0.00    +0.419 C 
ENDBRANCH  28  35
ENDBRANCH  24  26
ENDBRANCH  20  23
ENDBRANCH   5  20
TORSDOF 8
ENDMDL
MODEL 9
REMARK VINA RESULT:      -6.2      1.236      1.612
REMARK  Name = 5492574
REMARK  8 active torsions:
REMARK  status: ('A' for Active; 'I' for Inactive)
REMARK    1  A    between atoms: C_4  and  C_7
REMARK    2  A    between atoms: C_5  and  C_20
REMARK    3  A    between atoms: C_7  and  N_9
REMARK    4  A    between atoms: N_9  and  C_11
REMARK    5  A    between atoms: C_16  and  N_19
REMARK    6  A    between atoms: C_20  and  N_23
REMARK    7  A    between atoms: C_24  and  C_26
REMARK    8  A    between atoms: C_28  and  C_35
REMARK                            x       y       z     vdW  Elec       q    Type
REMARK                         _______ _______ _______ _____ _____    ______ ____
ROOT
ATOM      1  O   UNL     1     -34.799  28.099  -0.210  0.00  0.00    -0.273 OA
ATOM      2  O   UNL     1     -33.068  28.550   1.943  0.00  0.00    -0.273 OA
ATOM      3  N   UNL     1     -35.063  27.346   1.980  0.00  0.00    -0.253 N 
ATOM      4  C   UNL     1     -35.439  27.485   0.642  0.00  0.00    +0.246 C 
ATOM      5  C   UNL     1     -33.906  27.884   2.547  0.00  0.00    +0.246 C 
ATOM      6  H   UNL     1     -35.660  26.829   2.567  0.00  0.00    +0.158 HD
ENDROOT
BRANCH   4   7
ATOM      7  C   UNL     1     -36.749  26.773   0.339  0.00  0.00    +0.147 C 
ATOM      8  C   UNL     1     -37.896  27.769   0.253  0.00  0.00    +0.031 C 
BRANCH   7   9
ATOM      9  N   UNL     1     -37.021  25.814   1.388  0.00  0.00    -0.327 N 
ATOM     10  H   UNL     1     -36.722  26.026   2.301  0.00  0.00    +0.147 HD
BRANCH   9  11
ATOM     11  C   UNL     1     -37.680  24.614   1.178  0.00  0.00    +0.045 C 
ATOM     12  C   UNL     1     -37.523  23.936  -0.030  0.00  0.00    +0.016 C 
ATOM     13  C   UNL     1     -38.498  24.083   2.175  0.00  0.00    +0.016 C 
ATOM     14  C   UNL     1     -38.186  22.727  -0.243  0.00  0.00    +0.025 C 
ATOM     15  C   UNL     1     -39.161  22.875   1.963  0.00  0.00    +0.025 C 
ATOM     16  C   UNL     1     -39.004  22.197   0.754  0.00  0.00    +0.143 C 
BRANCH  16  19
ATOM     17  O   UNL     1     -39.036  19.993   0.073  0.00  0.00    -0.126 OA
ATOM     18  O   UNL     1     -40.898  20.882   0.822  0.00  0.00    -0.126 OA
ATOM     19  N   UNL     1     -39.678  20.966   0.539  0.00  0.00    +0.058 N 
ENDBRANCH  16  19
ENDBRANCH   9  11
ENDBRANCH   7   9
ENDBRANCH   4   7
BRANCH   5  20
ATOM     20  C   UNL     1     -33.764  27.503   4.016  0.00  0.00    +0.149 C 
ATOM     21  C   UNL     1     -32.379  27.852   4.537  0.00  0.00    +0.031 C 
BRANCH  20  23
ATOM     22  O   UNL     1     -35.864  26.282   5.547  0.00  0.00    -0.270 OA
ATOM     23  N   UNL     1     -34.026  26.093   4.144  0.00  0.00    -0.295 N 
ATOM     24  C   UNL     1     -35.071  25.593   4.912  0.00  0.00    +0.246 C 
ATOM     25  H   UNL     1     -33.441  25.459   3.671  0.00  0.00    +0.150 HD
BRANCH  24  26
ATOM     26  C   UNL     1     -35.190  24.113   4.963  0.00  0.00    +0.053 C 
ATOM     27  C   UNL     1     -35.292  23.379   3.782  0.00  0.00    +0.008 C 
ATOM     28  C   UNL     1     -35.404  21.989   3.832  0.00  0.00    +0.072 C 
ATOM     29  C   UNL     1     -35.200  23.458   6.195  0.00  0.00    +0.004 C 
ATOM     30  C   UNL     1     -35.414  21.335   5.064  0.00  0.00    +0.004 C 
ATOM     31  C   UNL     1     -35.312  22.069   6.245  0.00  0.00    +0.000 C 
BRANCH  28  35
ATOM     32  F   UNL     1     -35.317  21.950   1.442  0.00  0.00    -0.166 F 
ATOM     33  F   UNL     1     -34.612  20.181   2.481  0.00  0.00    -0.166 F 
ATOM     34  F   UNL     1     -36.740  20.624   2.416  0.00  0.00    -0.166 F 
ATOM     35  C   UNL     1     -35.514  21.203   2.570  0.00  0.00    +0.419 C 
ENDBRANCH  28  35
ENDBRANCH  24  26
ENDBRANCH  20  23
ENDBRANCH   5  20
TORSDOF 8
ENDMDL
