MODEL 1
REMARK VINA RESULT:      -5.4      0.000      0.000
REMARK  Name = 5462244
REMARK  9 active torsions:
REMARK  status: ('A' for Active; 'I' for Inactive)
REMARK    1  A    between atoms: C_2  and  O_16
REMARK    2  A    between atoms: C_3  and  N_8
REMARK    3  A    between atoms: C_4  and  O_12
REMARK    4  A    between atoms: C_5  and  C_23
REMARK    5  A    between atoms: C_6  and  O_14
REMARK    6  A    between atoms: O_16  and  C_17
REMARK    7  A    between atoms: C_17  and  C_20
REMARK    8  A    between atoms: C_20  and  O_21
REMARK    9  A    between atoms: C_23  and  O_24
REMARK                            x       y       z     vdW  Elec       q    Type
REMARK                         _______ _______ _______ _____ _____    ______ ____
ROOT
ATOM      1  O   UNL     1     -38.859  24.852   1.762  0.00  0.00    -0.327 OA
ATOM      2  C   UNL     1     -36.559  25.949   3.108  0.00  0.00    +0.168 C 
ATOM      3  C   UNL     1     -36.949  24.472   3.209  0.00  0.00    +0.158 C 
ATOM      4  C   UNL     1     -37.119  26.564   1.821  0.00  0.00    +0.169 C 
ATOM      5  C   UNL     1     -38.613  26.258   1.662  0.00  0.00    +0.176 C 
ATOM      6  C   UNL     1     -38.458  24.291   3.015  0.00  0.00    +0.253 C 
ENDROOT
BRANCH   3   8
ATOM      7  O   UNL     1     -35.557  21.955   3.605  0.00  0.00    -0.275 OA
ATOM      8  N   UNL     1     -36.512  23.898   4.461  0.00  0.00    -0.299 N 
ATOM      9  C   UNL     1     -35.852  22.684   4.548  0.00  0.00    +0.223 C 
ATOM     10  C   UNL     1     -35.487  22.333   5.966  0.00  0.00    +0.095 C 
ATOM     11  H   UNL     1     -36.692  24.394   5.292  0.00  0.00    +0.150 HD
ENDBRANCH   3   8
BRANCH   4  12
ATOM     12  O   UNL     1     -36.904  27.972   1.876  0.00  0.00    -0.379 OA
ATOM     13  H   UNL     1     -36.216  28.219   1.239  0.00  0.00    +0.211 HD
ENDBRANCH   4  12
BRANCH   6  14
ATOM     14  O   UNL     1     -39.174  24.863   4.108  0.00  0.00    -0.359 OA
ATOM     15  H   UNL     1     -40.002  24.376   4.241  0.00  0.00    +0.213 HD
ENDBRANCH   6  14
BRANCH   2  16
ATOM     16  O   UNL     1     -35.134  26.045   3.080  0.00  0.00    -0.343 OA
BRANCH  16  17
ATOM     17  C   UNL     1     -34.662  26.974   4.043  0.00  0.00    +0.213 C 
ATOM     18  C   UNL     1     -33.748  27.959   3.337  0.00  0.00    +0.044 C 
BRANCH  17  20
ATOM     19  O   UNL     1     -33.743  26.613   6.264  0.00  0.00    -0.248 OA
ATOM     20  C   UNL     1     -33.919  26.211   5.121  0.00  0.00    +0.341 C 
BRANCH  20  21
ATOM     21  O   UNL     1     -33.479  25.003   4.686  0.00  0.00    -0.479 OA
ATOM     22  H   UNL     1     -33.927  24.564   3.990  0.00  0.00    +0.295 HD
ENDBRANCH  20  21
ENDBRANCH  17  20
ENDBRANCH  16  17
ENDBRANCH   2  16
BRANCH   5  23
ATOM     23  C   UNL     1     -39.148  26.709   0.306  0.00  0.00    +0.169 C 
BRANCH  23  24
ATOM     24  O   UNL     1     -39.464  28.087   0.383  0.00  0.00    -0.379 OA
ATOM     25  H   UNL     1     -38.656  28.611   0.271  0.00  0.00    +0.211 HD
ENDBRANCH  23  24
ENDBRANCH   5  23
TORSDOF 9
ENDMDL
MODEL 2
REMARK VINA RESULT:      -5.4      2.734      3.716
REMARK  Name = 5462244
REMARK  9 active torsions:
REMARK  status: ('A' for Active; 'I' for Inactive)
REMARK    1  A    between atoms: C_2  and  O_16
REMARK    2  A    between atoms: C_3  and  N_8
REMARK    3  A    between atoms: C_4  and  O_12
REMARK    4  A    between atoms: C_5  and  C_23
REMARK    5  A    between atoms: C_6  and  O_14
REMARK    6  A    between atoms: O_16  and  C_17
REMARK    7  A    between atoms: C_17  and  C_20
REMARK    8  A    between atoms: C_20  and  O_21
REMARK    9  A    between atoms: C_23  and  O_24
REMARK                            x       y       z     vdW  Elec       q    Type
REMARK                         _______ _______ _______ _____ _____    ______ ____
ROOT
ATOM      1  O   UNL     1     -39.196  23.198   1.287  0.00  0.00    -0.327 OA
ATOM      2  C   UNL     1     -37.034  23.081   3.189  0.00  0.00    +0.168 C 
ATOM      3  C   UNL     1     -37.009  22.319   1.862  0.00  0.00    +0.158 C 
ATOM      4  C   UNL     1     -37.970  24.291   3.095  0.00  0.00    +0.169 C 
ATOM      5  C   UNL     1     -39.339  23.892   2.531  0.00  0.00    +0.176 C 
ATOM      6  C   UNL     1     -38.431  21.995   1.392  0.00  0.00    +0.253 C 
ENDROOT
BRANCH   3   8
ATOM      7  O   UNL     1     -34.440  21.810   0.607  0.00  0.00    -0.275 OA
ATOM      8  N   UNL     1     -36.206  21.122   1.959  0.00  0.00    -0.299 N 
ATOM      9  C   UNL     1     -34.987  20.972   1.320  0.00  0.00    +0.223 C 
ATOM     10  C   UNL     1     -34.350  19.640   1.610  0.00  0.00    +0.095 C 
ATOM     11  H   UNL     1     -36.542  20.376   2.507  0.00  0.00    +0.150 HD
ENDBRANCH   3   8
BRANCH   4  12
ATOM     12  O   UNL     1     -38.113  24.840   4.403  0.00  0.00    -0.379 OA
ATOM     13  H   UNL     1     -37.849  25.772   4.392  0.00  0.00    +0.211 HD
ENDBRANCH   4  12
BRANCH   6  14
ATOM     14  O   UNL     1     -39.042  21.048   2.266  0.00  0.00    -0.359 OA
ATOM     15  H   UNL     1     -39.327  20.275   1.755  0.00  0.00    +0.213 HD
ENDBRANCH   6  14
BRANCH   2  16
ATOM     16  O   UNL     1     -35.713  23.545   3.476  0.00  0.00    -0.343 OA
BRANCH  16  17
ATOM     17  C   UNL     1     -35.457  23.539   4.871  0.00  0.00    +0.213 C 
ATOM     18  C   UNL     1     -34.087  24.151   5.100  0.00  0.00    +0.044 C 
BRANCH  17  20
ATOM     19  O   UNL     1     -34.991  21.155   4.790  0.00  0.00    -0.248 OA
ATOM     20  C   UNL     1     -35.507  22.106   5.361  0.00  0.00    +0.341 C 
BRANCH  20  21
ATOM     21  O   UNL     1     -36.180  21.987   6.535  0.00  0.00    -0.479 OA
ATOM     22  H   UNL     1     -35.858  22.414   7.304  0.00  0.00    +0.295 HD
ENDBRANCH  20  21
ENDBRANCH  17  20
ENDBRANCH  16  17
ENDBRANCH   2  16
BRANCH   5  23
ATOM     23  C   UNL     1     -40.224  25.106   2.265  0.00  0.00    +0.169 C 
BRANCH  23  24
ATOM     24  O   UNL     1     -40.527  25.722   3.503  0.00  0.00    -0.379 OA
ATOM     25  H   UNL     1     -40.455  26.685   3.412  0.00  0.00    +0.211 HD
ENDBRANCH  23  24
ENDBRANCH   5  23
TORSDOF 9
ENDMDL
MODEL 3
REMARK VINA RESULT:      -5.2      2.095      5.787
REMARK  Name = 5462244
REMARK  9 active torsions:
REMARK  status: ('A' for Active; 'I' for Inactive)
REMARK    1  A    between atoms: C_2  and  O_16
REMARK    2  A    between atoms: C_3  and  N_8
REMARK    3  A    between atoms: C_4  and  O_12
REMARK    4  A    between atoms: C_5  and  C_23
REMARK    5  A    between atoms: C_6  and  O_14
REMARK    6  A    between atoms: O_16  and  C_17
REMARK    7  A    between atoms: C_17  and  C_20
REMARK    8  A    between atoms: C_20  and  O_21
REMARK    9  A    between atoms: C_23  and  O_24
REMARK                            x       y       z     vdW  Elec       q    Type
REMARK                         _______ _______ _______ _____ _____    ______ ____
ROOT
ATOM      1  O   UNL     1     -34.814  24.917   5.490  0.00  0.00    -0.327 OA
ATOM      2  C   UNL     1     -36.554  24.896   3.193  0.00  0.00    +0.168 C 
ATOM      3  C   UNL     1     -35.573  26.035   3.476  0.00  0.00    +0.158 C 
ATOM      4  C   UNL     1     -36.084  23.603   3.870  0.00  0.00    +0.169 C 
ATOM      5  C   UNL     1     -35.745  23.840   5.346  0.00  0.00    +0.176 C 
ATOM      6  C   UNL     1     -35.299  26.161   4.979  0.00  0.00    +0.253 C 
ENDROOT
BRANCH   3   8
ATOM      7  O   UNL     1     -34.265  27.699   1.488  0.00  0.00    -0.275 OA
ATOM      8  N   UNL     1     -36.047  27.285   2.927  0.00  0.00    -0.299 N 
ATOM      9  C   UNL     1     -35.347  28.010   1.977  0.00  0.00    +0.223 C 
ATOM     10  C   UNL     1     -36.078  29.258   1.559  0.00  0.00    +0.095 C 
ATOM     11  H   UNL     1     -36.909  27.638   3.244  0.00  0.00    +0.150 HD
ENDBRANCH   3   8
BRANCH   4  12
ATOM     12  O   UNL     1     -37.125  22.638   3.748  0.00  0.00    -0.379 OA
ATOM     13  H   UNL     1     -37.852  23.012   3.226  0.00  0.00    +0.211 HD
ENDBRANCH   4  12
BRANCH   6  14
ATOM     14  O   UNL     1     -36.469  26.600   5.664  0.00  0.00    -0.359 OA
ATOM     15  H   UNL     1     -36.729  25.934   6.319  0.00  0.00    +0.213 HD
ENDBRANCH   6  14
BRANCH   2  16
ATOM     16  O   UNL     1     -36.612  24.680   1.782  0.00  0.00    -0.343 OA
BRANCH  16  17
ATOM     17  C   UNL     1     -37.950  24.708   1.311  0.00  0.00    +0.213 C 
ATOM     18  C   UNL     1     -38.130  23.556   0.340  0.00  0.00    +0.044 C 
BRANCH  17  20
ATOM     19  O   UNL     1     -37.918  26.290  -0.533  0.00  0.00    -0.248 OA
ATOM     20  C   UNL     1     -38.192  26.041   0.634  0.00  0.00    +0.341 C 
BRANCH  20  21
ATOM     21  O   UNL     1     -38.776  26.942   1.464  0.00  0.00    -0.479 OA
ATOM     22  H   UNL     1     -39.657  27.221   1.307  0.00  0.00    +0.295 HD
ENDBRANCH  20  21
ENDBRANCH  17  20
ENDBRANCH  16  17
ENDBRANCH   2  16
BRANCH   5  23
ATOM     23  C   UNL     1     -35.110  22.611   5.991  0.00  0.00    +0.169 C 
BRANCH  23  24
ATOM     24  O   UNL     1     -36.142  21.736   6.405  0.00  0.00    -0.379 OA
ATOM     25  H   UNL     1     -36.586  22.104   7.185  0.00  0.00    +0.211 HD
ENDBRANCH  23  24
ENDBRANCH   5  23
TORSDOF 9
ENDMDL
MODEL 4
REMARK VINA RESULT:      -5.2      1.834      4.568
REMARK  Name = 5462244
REMARK  9 active torsions:
REMARK  status: ('A' for Active; 'I' for Inactive)
REMARK    1  A    between atoms: C_2  and  O_16
REMARK    2  A    between atoms: C_3  and  N_8
REMARK    3  A    between atoms: C_4  and  O_12
REMARK    4  A    between atoms: C_5  and  C_23
REMARK    5  A    between atoms: C_6  and  O_14
REMARK    6  A    between atoms: O_16  and  C_17
REMARK    7  A    between atoms: C_17  and  C_20
REMARK    8  A    between atoms: C_20  and  O_21
REMARK    9  A    between atoms: C_23  and  O_24
REMARK                            x       y       z     vdW  Elec       q    Type
REMARK                         _______ _______ _______ _____ _____    ______ ____
ROOT
ATOM      1  O   UNL     1     -35.334  26.484   2.294  0.00  0.00    -0.327 OA
ATOM      2  C   UNL     1     -36.769  24.669   4.012  0.00  0.00    +0.168 C 
ATOM      3  C   UNL     1     -36.962  24.696   2.494  0.00  0.00    +0.158 C 
ATOM      4  C   UNL     1     -35.392  25.228   4.387  0.00  0.00    +0.169 C 
ATOM      5  C   UNL     1     -35.137  26.578   3.708  0.00  0.00    +0.176 C 
ATOM      6  C   UNL     1     -36.659  26.088   1.929  0.00  0.00    +0.253 C 
ENDROOT
BRANCH   3   8
ATOM      7  O   UNL     1     -37.680  22.729   0.482  0.00  0.00    -0.275 OA
ATOM      8  N   UNL     1     -38.290  24.262   2.125  0.00  0.00    -0.299 N 
ATOM      9  C   UNL     1     -38.533  23.312   1.147  0.00  0.00    +0.223 C 
ATOM     10  C   UNL     1     -40.001  23.026   0.981  0.00  0.00    +0.095 C 
ATOM     11  H   UNL     1     -39.059  24.659   2.593  0.00  0.00    +0.150 HD
ENDBRANCH   3   8
BRANCH   4  12
ATOM     12  O   UNL     1     -35.346  25.370   5.805  0.00  0.00    -0.379 OA
ATOM     13  H   UNL     1     -34.525  25.819   6.058  0.00  0.00    +0.211 HD
ENDBRANCH   4  12
BRANCH   6  14
ATOM     14  O   UNL     1     -37.637  27.028   2.370  0.00  0.00    -0.359 OA
ATOM     15  H   UNL     1     -37.861  26.851   3.296  0.00  0.00    +0.213 HD
ENDBRANCH   6  14
BRANCH   2  16
ATOM     16  O   UNL     1     -36.852  23.315   4.460  0.00  0.00    -0.343 OA
BRANCH  16  17
ATOM     17  C   UNL     1     -35.601  22.656   4.343  0.00  0.00    +0.213 C 
ATOM     18  C   UNL     1     -35.698  21.664   3.198  0.00  0.00    +0.044 C 
BRANCH  17  20
ATOM     19  O   UNL     1     -35.203  22.517   6.737  0.00  0.00    -0.248 OA
ATOM     20  C   UNL     1     -35.303  21.956   5.653  0.00  0.00    +0.341 C 
BRANCH  20  21
ATOM     21  O   UNL     1     -35.176  20.613   5.502  0.00  0.00    -0.479 OA
ATOM     22  H   UNL     1     -34.411  20.258   5.094  0.00  0.00    +0.295 HD
ENDBRANCH  20  21
ENDBRANCH  17  20
ENDBRANCH  16  17
ENDBRANCH   2  16
BRANCH   5  23
ATOM     23  C   UNL     1     -33.708  27.067   3.927  0.00  0.00    +0.169 C 
BRANCH  23  24
ATOM     24  O   UNL     1     -33.537  27.358   5.301  0.00  0.00    -0.379 OA
ATOM     25  H   UNL     1     -34.396  27.575   5.696  0.00  0.00    +0.211 HD
ENDBRANCH  23  24
ENDBRANCH   5  23
TORSDOF 9
ENDMDL
MODEL 5
REMARK VINA RESULT:      -5.1      2.565      5.661
REMARK  Name = 5462244
REMARK  9 active torsions:
REMARK  status: ('A' for Active; 'I' for Inactive)
REMARK    1  A    between atoms: C_2  and  O_16
REMARK    2  A    between atoms: C_3  and  N_8
REMARK    3  A    between atoms: C_4  and  O_12
REMARK    4  A    between atoms: C_5  and  C_23
REMARK    5  A    between atoms: C_6  and  O_14
REMARK    6  A    between atoms: O_16  and  C_17
REMARK    7  A    between atoms: C_17  and  C_20
REMARK    8  A    between atoms: C_20  and  O_21
REMARK    9  A    between atoms: C_23  and  O_24
REMARK                            x       y       z     vdW  Elec       q    Type
REMARK                         _______ _______ _______ _____ _____    ______ ____
ROOT
ATOM      1  O   UNL     1     -35.087  20.754   2.366  0.00  0.00    -0.327 OA
ATOM      2  C   UNL     1     -37.431  22.422   2.538  0.00  0.00    +0.168 C 
ATOM      3  C   UNL     1     -36.055  22.875   3.034  0.00  0.00    +0.158 C 
ATOM      4  C   UNL     1     -37.282  21.334   1.468  0.00  0.00    +0.169 C 
ATOM      5  C   UNL     1     -36.342  20.218   1.937  0.00  0.00    +0.176 C 
ATOM      6  C   UNL     1     -35.203  21.673   3.454  0.00  0.00    +0.253 C 
ENDROOT
BRANCH   3   8
ATOM      7  O   UNL     1     -34.189  24.986   3.733  0.00  0.00    -0.275 OA
ATOM      8  N   UNL     1     -36.174  23.832   4.110  0.00  0.00    -0.299 N 
ATOM      9  C   UNL     1     -35.226  24.808   4.366  0.00  0.00    +0.223 C 
ATOM     10  C   UNL     1     -35.609  25.686   5.526  0.00  0.00    +0.095 C 
ATOM     11  H   UNL     1     -36.969  23.788   4.690  0.00  0.00    +0.150 HD
ENDBRANCH   3   8
BRANCH   4  12
ATOM     12  O   UNL     1     -38.578  20.808   1.192  0.00  0.00    -0.379 OA
ATOM     13  H   UNL     1     -38.555  19.841   1.255  0.00  0.00    +0.211 HD
ENDBRANCH   4  12
BRANCH   6  14
ATOM     14  O   UNL     1     -35.749  21.057   4.618  0.00  0.00    -0.359 OA
ATOM     15  H   UNL     1     -35.849  21.720   5.318  0.00  0.00    +0.213 HD
ENDBRANCH   6  14
BRANCH   2  16
ATOM     16  O   UNL     1     -38.103  23.543   1.962  0.00  0.00    -0.343 OA
BRANCH  16  17
ATOM     17  C   UNL     1     -39.346  23.783   2.603  0.00  0.00    +0.213 C 
ATOM     18  C   UNL     1     -40.432  23.763   1.543  0.00  0.00    +0.044 C 
BRANCH  17  20
ATOM     19  O   UNL     1     -38.354  25.927   3.178  0.00  0.00    -0.248 OA
ATOM     20  C   UNL     1     -39.276  25.130   3.293  0.00  0.00    +0.341 C 
BRANCH  20  21
ATOM     21  O   UNL     1     -40.375  25.377   4.051  0.00  0.00    -0.479 OA
ATOM     22  H   UNL     1     -41.138  24.841   3.958  0.00  0.00    +0.295 HD
ENDBRANCH  20  21
ENDBRANCH  17  20
ENDBRANCH  16  17
ENDBRANCH   2  16
BRANCH   5  23
ATOM     23  C   UNL     1     -36.043  19.217   0.824  0.00  0.00    +0.169 C 
BRANCH  23  24
ATOM     24  O   UNL     1     -37.089  18.265   0.781  0.00  0.00    -0.379 OA
ATOM     25  H   UNL     1     -37.547  18.323  -0.071  0.00  0.00    +0.211 HD
ENDBRANCH  23  24
ENDBRANCH   5  23
TORSDOF 9
ENDMDL
MODEL 6
REMARK VINA RESULT:      -5.0      2.606      5.407
REMARK  Name = 5462244
REMARK  9 active torsions:
REMARK  status: ('A' for Active; 'I' for Inactive)
REMARK    1  A    between atoms: C_2  and  O_16
REMARK    2  A    between atoms: C_3  and  N_8
REMARK    3  A    between atoms: C_4  and  O_12
REMARK    4  A    between atoms: C_5  and  C_23
REMARK    5  A    between atoms: C_6  and  O_14
REMARK    6  A    between atoms: O_16  and  C_17
REMARK    7  A    between atoms: C_17  and  C_20
REMARK    8  A    between atoms: C_20  and  O_21
REMARK    9  A    between atoms: C_23  and  O_24
REMARK                            x       y       z     vdW  Elec       q    Type
REMARK                         _______ _______ _______ _____ _____    ______ ____
ROOT
ATOM      1  O   UNL     1     -34.736  24.415   3.935  0.00  0.00    -0.327 OA
ATOM      2  C   UNL     1     -37.310  23.899   2.746  0.00  0.00    +0.168 C 
ATOM      3  C   UNL     1     -36.232  22.822   2.884  0.00  0.00    +0.158 C 
ATOM      4  C   UNL     1     -37.102  25.001   3.791  0.00  0.00    +0.169 C 
ATOM      5  C   UNL     1     -35.654  25.504   3.790  0.00  0.00    +0.176 C 
ATOM      6  C   UNL     1     -34.832  23.445   2.890  0.00  0.00    +0.253 C 
ENDROOT
BRANCH   3   8
ATOM      7  O   UNL     1     -35.136  20.133   2.888  0.00  0.00    -0.275 OA
ATOM      8  N   UNL     1     -36.353  21.822   1.847  0.00  0.00    -0.299 N 
ATOM      9  C   UNL     1     -35.791  20.560   1.941  0.00  0.00    +0.223 C 
ATOM     10  C   UNL     1     -36.091  19.710   0.735  0.00  0.00    +0.095 C 
ATOM     11  H   UNL     1     -36.860  22.050   1.035  0.00  0.00    +0.150 HD
ENDBRANCH   3   8
BRANCH   4  12
ATOM     12  O   UNL     1     -37.998  26.068   3.490  0.00  0.00    -0.379 OA
ATOM     13  H   UNL     1     -38.585  26.221   4.246  0.00  0.00    +0.211 HD
ENDBRANCH   4  12
BRANCH   6  14
ATOM     14  O   UNL     1     -34.531  24.005   1.613  0.00  0.00    -0.359 OA
ATOM     15  H   UNL     1     -33.568  24.064   1.506  0.00  0.00    +0.213 HD
ENDBRANCH   6  14
BRANCH   2  16
ATOM     16  O   UNL     1     -38.588  23.299   2.960  0.00  0.00    -0.343 OA
BRANCH  16  17
ATOM     17  C   UNL     1     -39.352  23.274   1.764  0.00  0.00    +0.213 C 
ATOM     18  C   UNL     1     -40.504  24.251   1.922  0.00  0.00    +0.044 C 
BRANCH  17  20
ATOM     19  O   UNL     1     -40.717  21.546   0.737  0.00  0.00    -0.248 OA
ATOM     20  C   UNL     1     -39.855  21.862   1.546  0.00  0.00    +0.341 C 
BRANCH  20  21
ATOM     21  O   UNL     1     -39.223  20.962   2.342  0.00  0.00    -0.479 OA
ATOM     22  H   UNL     1     -39.267  21.050   3.274  0.00  0.00    +0.295 HD
ENDBRANCH  20  21
ENDBRANCH  17  20
ENDBRANCH  16  17
ENDBRANCH   2  16
BRANCH   5  23
ATOM     23  C   UNL     1     -35.383  26.472   4.937  0.00  0.00    +0.169 C 
BRANCH  23  24
ATOM     24  O   UNL     1     -36.550  26.564   5.734  0.00  0.00    -0.379 OA
ATOM     25  H   UNL     1     -36.946  27.442   5.628  0.00  0.00    +0.211 HD
ENDBRANCH  23  24
ENDBRANCH   5  23
TORSDOF 9
ENDMDL
MODEL 7
REMARK VINA RESULT:      -5.0      2.514      5.512
REMARK  Name = 5462244
REMARK  9 active torsions:
REMARK  status: ('A' for Active; 'I' for Inactive)
REMARK    1  A    between atoms: C_2  and  O_16
REMARK    2  A    between atoms: C_3  and  N_8
REMARK    3  A    between atoms: C_4  and  O_12
REMARK    4  A    between atoms: C_5  and  C_23
REMARK    5  A    between atoms: C_6  and  O_14
REMARK    6  A    between atoms: O_16  and  C_17
REMARK    7  A    between atoms: C_17  and  C_20
REMARK    8  A    between atoms: C_20  and  O_21
REMARK    9  A    between atoms: C_23  and  O_24
REMARK                            x       y       z     vdW  Elec       q    Type
REMARK                         _______ _______ _______ _____ _____    ______ ____
ROOT
ATOM      1  O   UNL     1     -34.869  24.938   5.571  0.00  0.00    -0.327 OA
ATOM      2  C   UNL     1     -36.447  24.796   3.164  0.00  0.00    +0.168 C 
ATOM      3  C   UNL     1     -35.520  25.973   3.476  0.00  0.00    +0.158 C 
ATOM      4  C   UNL     1     -35.987  23.539   3.911  0.00  0.00    +0.169 C 
ATOM      5  C   UNL     1     -35.757  23.830   5.398  0.00  0.00    +0.176 C 
ATOM      6  C   UNL     1     -35.353  26.151   4.989  0.00  0.00    +0.253 C 
ENDROOT
BRANCH   3   8
ATOM      7  O   UNL     1     -33.916  28.113   2.345  0.00  0.00    -0.275 OA
ATOM      8  N   UNL     1     -35.991  27.191   2.857  0.00  0.00    -0.299 N 
ATOM      9  C   UNL     1     -35.143  28.159   2.344  0.00  0.00    +0.223 C 
ATOM     10  C   UNL     1     -35.895  29.311   1.733  0.00  0.00    +0.095 C 
ATOM     11  H   UNL     1     -36.962  27.340   2.797  0.00  0.00    +0.150 HD
ENDBRANCH   3   8
BRANCH   4  12
ATOM     12  O   UNL     1     -36.990  22.540   3.750  0.00  0.00    -0.379 OA
ATOM     13  H   UNL     1     -37.264  22.214   4.621  0.00  0.00    +0.211 HD
ENDBRANCH   4  12
BRANCH   6  14
ATOM     14  O   UNL     1     -36.580  26.575   5.580  0.00  0.00    -0.359 OA
ATOM     15  H   UNL     1     -36.396  27.243   6.259  0.00  0.00    +0.213 HD
ENDBRANCH   6  14
BRANCH   2  16
ATOM     16  O   UNL     1     -36.403  24.538   1.759  0.00  0.00    -0.343 OA
BRANCH  16  17
ATOM     17  C   UNL     1     -35.102  24.146   1.349  0.00  0.00    +0.213 C 
ATOM     18  C   UNL     1     -34.654  25.088   0.247  0.00  0.00    +0.044 C 
BRANCH  17  20
ATOM     19  O   UNL     1     -36.194  22.057   0.754  0.00  0.00    -0.248 OA
ATOM     20  C   UNL     1     -35.166  22.715   0.857  0.00  0.00    +0.341 C 
BRANCH  20  21
ATOM     21  O   UNL     1     -33.944  22.233   0.515  0.00  0.00    -0.479 OA
ATOM     22  H   UNL     1     -33.209  22.812   0.466  0.00  0.00    +0.295 HD
ENDBRANCH  20  21
ENDBRANCH  17  20
ENDBRANCH  16  17
ENDBRANCH   2  16
BRANCH   5  23
ATOM     23  C   UNL     1     -35.132  22.641   6.123  0.00  0.00    +0.169 C 
BRANCH  23  24
ATOM     24  O   UNL     1     -36.155  21.711   6.427  0.00  0.00    -0.379 OA
ATOM     25  H   UNL     1     -37.021  22.123   6.285  0.00  0.00    +0.211 HD
ENDBRANCH  23  24
ENDBRANCH   5  23
TORSDOF 9
ENDMDL
MODEL 8
REMARK VINA RESULT:      -5.0      1.728      4.753
REMARK  Name = 5462244
REMARK  9 active torsions:
REMARK  status: ('A' for Active; 'I' for Inactive)
REMARK    1  A    between atoms: C_2  and  O_16
REMARK    2  A    between atoms: C_3  and  N_8
REMARK    3  A    between atoms: C_4  and  O_12
REMARK    4  A    between atoms: C_5  and  C_23
REMARK    5  A    between atoms: C_6  and  O_14
REMARK    6  A    between atoms: O_16  and  C_17
REMARK    7  A    between atoms: C_17  and  C_20
REMARK    8  A    between atoms: C_20  and  O_21
REMARK    9  A    between atoms: C_23  and  O_24
REMARK                            x       y       z     vdW  Elec       q    Type
REMARK                         _______ _______ _______ _____ _____    ______ ____
ROOT
ATOM      1  O   UNL     1     -36.751  22.857   4.413  0.00  0.00    -0.327 OA
ATOM      2  C   UNL     1     -35.406  25.285   3.635  0.00  0.00    +0.168 C 
ATOM      3  C   UNL     1     -36.867  25.000   3.283  0.00  0.00    +0.158 C 
ATOM      4  C   UNL     1     -34.988  24.483   4.874  0.00  0.00    +0.169 C 
ATOM      5  C   UNL     1     -35.363  23.004   4.731  0.00  0.00    +0.176 C 
ATOM      6  C   UNL     1     -37.124  23.493   3.188  0.00  0.00    +0.253 C 
ENDROOT
BRANCH   3   8
ATOM      7  O   UNL     1     -39.342  26.428   2.762  0.00  0.00    -0.275 OA
ATOM      8  N   UNL     1     -37.254  25.672   2.063  0.00  0.00    -0.299 N 
ATOM      9  C   UNL     1     -38.463  26.330   1.910  0.00  0.00    +0.223 C 
ATOM     10  C   UNL     1     -38.599  26.965   0.552  0.00  0.00    +0.095 C 
ATOM     11  H   UNL     1     -36.626  25.663   1.304  0.00  0.00    +0.150 HD
ENDBRANCH   3   8
BRANCH   4  12
ATOM     12  O   UNL     1     -33.579  24.625   5.035  0.00  0.00    -0.379 OA
ATOM     13  H   UNL     1     -33.147  24.566   4.168  0.00  0.00    +0.211 HD
ENDBRANCH   4  12
BRANCH   6  14
ATOM     14  O   UNL     1     -36.435  22.939   2.068  0.00  0.00    -0.359 OA
ATOM     15  H   UNL     1     -37.027  22.927   1.300  0.00  0.00    +0.213 HD
ENDBRANCH   6  14
BRANCH   2  16
ATOM     16  O   UNL     1     -35.266  26.677   3.922  0.00  0.00    -0.343 OA
BRANCH  16  17
ATOM     17  C   UNL     1     -34.327  27.290   3.052  0.00  0.00    +0.213 C 
ATOM     18  C   UNL     1     -33.840  26.239   2.071  0.00  0.00    +0.044 C 
BRANCH  17  20
ATOM     19  O   UNL     1     -32.239  27.170   4.292  0.00  0.00    -0.248 OA
ATOM     20  C   UNL     1     -33.185  27.834   3.886  0.00  0.00    +0.341 C 
BRANCH  20  21
ATOM     21  O   UNL     1     -33.310  29.164   4.125  0.00  0.00    -0.479 OA
ATOM     22  H   UNL     1     -33.385  29.477   5.005  0.00  0.00    +0.295 HD
ENDBRANCH  20  21
ENDBRANCH  17  20
ENDBRANCH  16  17
ENDBRANCH   2  16
BRANCH   5  23
ATOM     23  C   UNL     1     -35.116  22.224   6.019  0.00  0.00    +0.169 C 
BRANCH  23  24
ATOM     24  O   UNL     1     -35.329  20.849   5.762  0.00  0.00    -0.379 OA
ATOM     25  H   UNL     1     -36.120  20.549   6.237  0.00  0.00    +0.211 HD
ENDBRANCH  23  24
ENDBRANCH   5  23
TORSDOF 9
ENDMDL
MODEL 9
REMARK VINA RESULT:      -4.9      2.384      4.562
REMARK  Name = 5462244
REMARK  9 active torsions:
REMARK  status: ('A' for Active; 'I' for Inactive)
REMARK    1  A    between atoms: C_2  and  O_16
REMARK    2  A    between atoms: C_3  and  N_8
REMARK    3  A    between atoms: C_4  and  O_12
REMARK    4  A    between atoms: C_5  and  C_23
REMARK    5  A    between atoms: C_6  and  O_14
REMARK    6  A    between atoms: O_16  and  C_17
REMARK    7  A    between atoms: C_17  and  C_20
REMARK    8  A    between atoms: C_20  and  O_21
REMARK    9  A    between atoms: C_23  and  O_24
REMARK                            x       y       z     vdW  Elec       q    Type
REMARK                         _______ _______ _______ _____ _____    ______ ____
ROOT
ATOM      1  O   UNL     1     -36.024  21.385   0.783  0.00  0.00    -0.327 OA
ATOM      2  C   UNL     1     -37.880  22.557   2.650  0.00  0.00    +0.168 C 
ATOM      3  C   UNL     1     -36.420  22.268   3.007  0.00  0.00    +0.158 C 
ATOM      4  C   UNL     1     -38.039  22.719   1.134  0.00  0.00    +0.169 C 
ATOM      5  C   UNL     1     -37.386  21.555   0.379  0.00  0.00    +0.176 C 
ATOM      6  C   UNL     1     -35.875  21.102   2.176  0.00  0.00    +0.253 C 
ENDROOT
BRANCH   3   8
ATOM      7  O   UNL     1     -34.472  23.452   4.806  0.00  0.00    -0.275 OA
ATOM      8  N   UNL     1     -36.265  22.018   4.422  0.00  0.00    -0.299 N 
ATOM      9  C   UNL     1     -35.300  22.635   5.200  0.00  0.00    +0.223 C 
ATOM     10  C   UNL     1     -35.376  22.214   6.643  0.00  0.00    +0.095 C 
ATOM     11  H   UNL     1     -36.876  21.378   4.854  0.00  0.00    +0.150 HD
ENDBRANCH   3   8
BRANCH   4  12
ATOM     12  O   UNL     1     -39.433  22.781   0.842  0.00  0.00    -0.379 OA
ATOM     13  H   UNL     1     -39.895  22.078   1.323  0.00  0.00    +0.211 HD
ENDBRANCH   4  12
BRANCH   6  14
ATOM     14  O   UNL     1     -36.517  19.883   2.546  0.00  0.00    -0.359 OA
ATOM     15  H   UNL     1     -37.178  19.651   1.875  0.00  0.00    +0.213 HD
ENDBRANCH   6  14
BRANCH   2  16
ATOM     16  O   UNL     1     -38.276  23.774   3.286  0.00  0.00    -0.343 OA
BRANCH  16  17
ATOM     17  C   UNL     1     -37.807  24.905   2.568  0.00  0.00    +0.213 C 
ATOM     18  C   UNL     1     -36.776  25.613   3.429  0.00  0.00    +0.044 C 
BRANCH  17  20
ATOM     19  O   UNL     1     -39.560  25.873   1.191  0.00  0.00    -0.248 OA
ATOM     20  C   UNL     1     -38.988  25.806   2.271  0.00  0.00    +0.341 C 
BRANCH  20  21
ATOM     21  O   UNL     1     -39.366  26.533   3.354  0.00  0.00    -0.479 OA
ATOM     22  H   UNL     1     -38.717  26.908   3.916  0.00  0.00    +0.295 HD
ENDBRANCH  20  21
ENDBRANCH  17  20
ENDBRANCH  16  17
ENDBRANCH   2  16
BRANCH   5  23
ATOM     23  C   UNL     1     -37.379  21.785  -1.130  0.00  0.00    +0.169 C 
BRANCH  23  24
ATOM     24  O   UNL     1     -37.556  23.167  -1.375  0.00  0.00    -0.379 OA
ATOM     25  H   UNL     1     -38.491  23.347  -1.560  0.00  0.00    +0.211 HD
ENDBRANCH  23  24
ENDBRANCH   5  23
TORSDOF 9
ENDMDL
