MODEL 1
REMARK VINA RESULT:      -7.1      0.000      0.000
REMARK  Name = 57384025
REMARK  7 active torsions:
REMARK  status: ('A' for Active; 'I' for Inactive)
REMARK    1  A    between atoms: C_4  and  O_18
REMARK    2  A    between atoms: C_5  and  O_16
REMARK    3  A    between atoms: C_12  and  C_13
REMARK    4  A    between atoms: O_18  and  C_20
REMARK    5  A    between atoms: C_20  and  C_21
REMARK    6  A    between atoms: C_23  and  O_28
REMARK    7  A    between atoms: C_27  and  O_30
REMARK                            x       y       z     vdW  Elec       q    Type
REMARK                         _______ _______ _______ _____ _____    ______ ____
ROOT
ATOM      1  O   UNL     1     -32.785  25.901   3.375  0.00  0.00    -0.475 OA
ATOM      2  O   UNL     1     -38.948  24.445   3.426  0.00  0.00    -0.289 OA
ATOM      3  C   UNL     1     -34.781  24.461   3.322  0.00  0.00    +0.109 C 
ATOM      4  C   UNL     1     -35.602  23.486   2.458  0.00  0.00    +0.208 C 
ATOM      5  C   UNL     1     -36.938  23.125   3.131  0.00  0.00    +0.180 C 
ATOM      6  C   UNL     1     -35.620  25.626   3.799  0.00  0.00    -0.009 C 
ATOM      7  C   UNL     1     -33.566  25.013   2.561  0.00  0.00    +0.213 C 
ATOM      8  C   UNL     1     -37.718  24.398   3.444  0.00  0.00    +0.200 C 
ATOM      9  C   UNL     1     -36.960  25.611   3.847  0.00  0.00    +0.036 C 
ATOM     10  C   UNL     1     -37.759  22.159   2.275  0.00  0.00    +0.041 C 
ATOM     11  C   UNL     1     -34.862  26.795   4.202  0.00  0.00    +0.033 C 
ATOM     12  C   UNL     1     -33.533  26.873   4.014  0.00  0.00    +0.138 C 
ENDROOT
BRANCH  12  13
ATOM     13  C   UNL     1     -32.754  27.993   4.466  0.00  0.00    +0.032 C 
ATOM     14  C   UNL     1     -32.239  28.082   5.699  0.00  0.00    -0.023 C 
ATOM     15  C   UNL     1     -31.429  29.245   6.174  0.00  0.00    +0.031 C 
ENDBRANCH  12  13
BRANCH   5  16
ATOM     16  O   UNL     1     -36.684  22.512   4.394  0.00  0.00    -0.376 OA
ATOM     17  H   UNL     1     -36.870  23.146   5.104  0.00  0.00    +0.211 HD
ENDBRANCH   5  16
BRANCH   4  18
ATOM     18  O   UNL     1     -34.853  22.290   2.242  0.00  0.00    -0.446 OA
BRANCH  18  20
ATOM     19  O   UNL     1     -35.042  22.555  -0.036  0.00  0.00    -0.245 OA
ATOM     20  C   UNL     1     -34.613  21.967   0.944  0.00  0.00    +0.344 C 
BRANCH  20  21
ATOM     21  C   UNL     1     -33.736  20.772   0.858  0.00  0.00    +0.105 C 
ATOM     22  C   UNL     1     -32.538  20.830   0.146  0.00  0.00    -0.010 C 
ATOM     23  C   UNL     1     -34.115  19.588   1.491  0.00  0.00    +0.143 C 
ATOM     24  C   UNL     1     -31.719  19.703   0.066  0.00  0.00    +0.033 C 
ATOM     25  C   UNL     1     -33.296  18.462   1.412  0.00  0.00    +0.073 C 
ATOM     26  C   UNL     1     -32.107  22.084  -0.542  0.00  0.00    +0.031 C 
ATOM     27  C   UNL     1     -32.098  18.520   0.699  0.00  0.00    +0.136 C 
BRANCH  23  28
ATOM     28  O   UNL     1     -35.282  19.509   2.191  0.00  0.00    -0.505 OA
ATOM     29  H   UNL     1     -35.947  18.906   1.925  0.00  0.00    +0.292 HD
ENDBRANCH  23  28
BRANCH  27  30
ATOM     30  O   UNL     1     -31.299  17.420   0.624  0.00  0.00    -0.505 OA
ATOM     31  H   UNL     1     -31.147  16.899   1.388  0.00  0.00    +0.292 HD
ENDBRANCH  27  30
ENDBRANCH  20  21
ENDBRANCH  18  20
ENDBRANCH   4  18
TORSDOF 7
ENDMDL
MODEL 2
REMARK VINA RESULT:      -6.8      1.771      2.547
REMARK  Name = 57384025
REMARK  7 active torsions:
REMARK  status: ('A' for Active; 'I' for Inactive)
REMARK    1  A    between atoms: C_4  and  O_18
REMARK    2  A    between atoms: C_5  and  O_16
REMARK    3  A    between atoms: C_12  and  C_13
REMARK    4  A    between atoms: O_18  and  C_20
REMARK    5  A    between atoms: C_20  and  C_21
REMARK    6  A    between atoms: C_23  and  O_28
REMARK    7  A    between atoms: C_27  and  O_30
REMARK                            x       y       z     vdW  Elec       q    Type
REMARK                         _______ _______ _______ _____ _____    ______ ____
ROOT
ATOM      1  O   UNL     1     -34.998  23.575   3.867  0.00  0.00    -0.475 OA
ATOM      2  O   UNL     1     -40.727  23.376   1.176  0.00  0.00    -0.289 OA
ATOM      3  C   UNL     1     -36.901  22.609   2.640  0.00  0.00    +0.109 C 
ATOM      4  C   UNL     1     -37.366  22.055   1.281  0.00  0.00    +0.208 C 
ATOM      5  C   UNL     1     -38.884  21.805   1.265  0.00  0.00    +0.180 C 
ATOM      6  C   UNL     1     -37.767  23.760   3.100  0.00  0.00    -0.009 C 
ATOM      7  C   UNL     1     -35.440  23.084   2.593  0.00  0.00    +0.213 C 
ATOM      8  C   UNL     1     -39.622  23.089   1.635  0.00  0.00    +0.200 C 
ATOM      9  C   UNL     1     -39.005  23.994   2.639  0.00  0.00    +0.036 C 
ATOM     10  C   UNL     1     -39.352  21.258  -0.085  0.00  0.00    +0.041 C 
ATOM     11  C   UNL     1     -37.154  24.623   4.091  0.00  0.00    +0.033 C 
ATOM     12  C   UNL     1     -35.864  24.486   4.444  0.00  0.00    +0.138 C 
ENDROOT
BRANCH  12  13
ATOM     13  C   UNL     1     -35.255  25.287   5.470  0.00  0.00    +0.032 C 
ATOM     14  C   UNL     1     -34.029  25.816   5.361  0.00  0.00    -0.023 C 
ATOM     15  C   UNL     1     -33.391  26.648   6.426  0.00  0.00    +0.031 C 
ENDBRANCH  12  13
BRANCH   5  16
ATOM     16  O   UNL     1     -39.223  20.862   2.281  0.00  0.00    -0.376 OA
ATOM     17  H   UNL     1     -39.609  20.072   1.873  0.00  0.00    +0.211 HD
ENDBRANCH   5  16
BRANCH   4  18
ATOM     18  O   UNL     1     -36.691  20.827   1.008  0.00  0.00    -0.446 OA
BRANCH  18  20
ATOM     19  O   UNL     1     -35.990  21.439  -1.097  0.00  0.00    -0.245 OA
ATOM     20  C   UNL     1     -35.829  20.845  -0.043  0.00  0.00    +0.344 C 
BRANCH  20  21
ATOM     21  C   UNL     1     -34.626  20.028   0.256  0.00  0.00    +0.105 C 
ATOM     22  C   UNL     1     -33.364  20.624   0.291  0.00  0.00    -0.010 C 
ATOM     23  C   UNL     1     -34.759  18.662   0.501  0.00  0.00    +0.143 C 
ATOM     24  C   UNL     1     -32.237  19.851   0.570  0.00  0.00    +0.033 C 
ATOM     25  C   UNL     1     -33.632  17.889   0.780  0.00  0.00    +0.073 C 
ATOM     26  C   UNL     1     -33.190  22.084   0.034  0.00  0.00    +0.031 C 
ATOM     27  C   UNL     1     -32.370  18.484   0.815  0.00  0.00    +0.136 C 
BRANCH  23  28
ATOM     28  O   UNL     1     -35.982  18.060   0.470  0.00  0.00    -0.505 OA
ATOM     29  H   UNL     1     -36.139  17.348  -0.118  0.00  0.00    +0.292 HD
ENDBRANCH  23  28
BRANCH  27  30
ATOM     30  O   UNL     1     -31.271  17.729   1.089  0.00  0.00    -0.505 OA
ATOM     31  H   UNL     1     -31.174  16.884   0.695  0.00  0.00    +0.292 HD
ENDBRANCH  27  30
ENDBRANCH  20  21
ENDBRANCH  18  20
ENDBRANCH   4  18
TORSDOF 7
ENDMDL
MODEL 3
REMARK VINA RESULT:      -6.8      2.811      3.777
REMARK  Name = 57384025
REMARK  7 active torsions:
REMARK  status: ('A' for Active; 'I' for Inactive)
REMARK    1  A    between atoms: C_4  and  O_18
REMARK    2  A    between atoms: C_5  and  O_16
REMARK    3  A    between atoms: C_12  and  C_13
REMARK    4  A    between atoms: O_18  and  C_20
REMARK    5  A    between atoms: C_20  and  C_21
REMARK    6  A    between atoms: C_23  and  O_28
REMARK    7  A    between atoms: C_27  and  O_30
REMARK                            x       y       z     vdW  Elec       q    Type
REMARK                         _______ _______ _______ _____ _____    ______ ____
ROOT
ATOM      1  O   UNL     1     -35.163  22.603   3.626  0.00  0.00    -0.475 OA
ATOM      2  O   UNL     1     -40.929  23.698   1.248  0.00  0.00    -0.289 OA
ATOM      3  C   UNL     1     -37.316  22.081   2.552  0.00  0.00    +0.109 C 
ATOM      4  C   UNL     1     -37.985  21.604   1.251  0.00  0.00    +0.208 C 
ATOM      5  C   UNL     1     -39.517  21.731   1.326  0.00  0.00    +0.180 C 
ATOM      6  C   UNL     1     -37.849  23.426   2.994  0.00  0.00    -0.009 C 
ATOM      7  C   UNL     1     -35.790  22.184   2.405  0.00  0.00    +0.213 C 
ATOM      8  C   UNL     1     -39.899  23.169   1.665  0.00  0.00    +0.200 C 
ATOM      9  C   UNL     1     -39.020  23.936   2.585  0.00  0.00    +0.036 C 
ATOM     10  C   UNL     1     -40.187  21.262   0.034  0.00  0.00    +0.041 C 
ATOM     11  C   UNL     1     -36.984  24.152   3.904  0.00  0.00    +0.033 C 
ATOM     12  C   UNL     1     -35.745  23.719   4.197  0.00  0.00    +0.138 C 
ENDROOT
BRANCH  12  13
ATOM     13  C   UNL     1     -34.898  24.388   5.146  0.00  0.00    +0.032 C 
ATOM     14  C   UNL     1     -34.630  25.699   5.098  0.00  0.00    -0.023 C 
ATOM     15  C   UNL     1     -33.749  26.399   6.080  0.00  0.00    +0.031 C 
ENDBRANCH  12  13
BRANCH   5  16
ATOM     16  O   UNL     1     -40.008  20.940   2.408  0.00  0.00    -0.376 OA
ATOM     17  H   UNL     1     -40.378  21.521   3.091  0.00  0.00    +0.211 HD
ENDBRANCH   5  16
BRANCH   4  18
ATOM     18  O   UNL     1     -37.644  20.239   1.009  0.00  0.00    -0.446 OA
BRANCH  18  20
ATOM     19  O   UNL     1     -36.710  20.803  -1.017  0.00  0.00    -0.245 OA
ATOM     20  C   UNL     1     -36.958  19.993  -0.138  0.00  0.00    +0.344 C 
BRANCH  20  21
ATOM     21  C   UNL     1     -36.530  18.573  -0.194  0.00  0.00    +0.105 C 
ATOM     22  C   UNL     1     -35.178  18.242  -0.089  0.00  0.00    -0.010 C 
ATOM     23  C   UNL     1     -37.483  17.568  -0.355  0.00  0.00    +0.143 C 
ATOM     24  C   UNL     1     -34.781  16.906  -0.145  0.00  0.00    +0.033 C 
ATOM     25  C   UNL     1     -37.086  16.232  -0.412  0.00  0.00    +0.073 C 
ATOM     26  C   UNL     1     -34.135  19.296   0.085  0.00  0.00    +0.031 C 
ATOM     27  C   UNL     1     -35.735  15.901  -0.306  0.00  0.00    +0.136 C 
BRANCH  23  28
ATOM     28  O   UNL     1     -38.808  17.869  -0.462  0.00  0.00    -0.505 OA
ATOM     29  H   UNL     1     -39.078  18.639  -0.923  0.00  0.00    +0.292 HD
ENDBRANCH  23  28
BRANCH  27  30
ATOM     30  O   UNL     1     -35.349  14.596  -0.360  0.00  0.00    -0.505 OA
ATOM     31  H   UNL     1     -34.460  14.363  -0.175  0.00  0.00    +0.292 HD
ENDBRANCH  27  30
ENDBRANCH  20  21
ENDBRANCH  18  20
ENDBRANCH   4  18
TORSDOF 7
ENDMDL
MODEL 4
REMARK VINA RESULT:      -6.7      2.033      6.820
REMARK  Name = 57384025
REMARK  7 active torsions:
REMARK  status: ('A' for Active; 'I' for Inactive)
REMARK    1  A    between atoms: C_4  and  O_18
REMARK    2  A    between atoms: C_5  and  O_16
REMARK    3  A    between atoms: C_12  and  C_13
REMARK    4  A    between atoms: O_18  and  C_20
REMARK    5  A    between atoms: C_20  and  C_21
REMARK    6  A    between atoms: C_23  and  O_28
REMARK    7  A    between atoms: C_27  and  O_30
REMARK                            x       y       z     vdW  Elec       q    Type
REMARK                         _______ _______ _______ _____ _____    ______ ____
ROOT
ATOM      1  O   UNL     1     -34.437  20.960   1.945  0.00  0.00    -0.475 OA
ATOM      2  O   UNL     1     -40.470  20.791   0.030  0.00  0.00    -0.289 OA
ATOM      3  C   UNL     1     -36.627  21.844   1.253  0.00  0.00    +0.109 C 
ATOM      4  C   UNL     1     -37.863  22.638   1.715  0.00  0.00    +0.208 C 
ATOM      5  C   UNL     1     -38.985  22.597   0.663  0.00  0.00    +0.180 C 
ATOM      6  C   UNL     1     -37.006  20.473   0.739  0.00  0.00    -0.009 C 
ATOM      7  C   UNL     1     -35.600  21.677   2.383  0.00  0.00    +0.213 C 
ATOM      8  C   UNL     1     -39.333  21.148   0.337  0.00  0.00    +0.200 C 
ATOM      9  C   UNL     1     -38.239  20.142   0.331  0.00  0.00    +0.036 C 
ATOM     10  C   UNL     1     -40.216  23.382   1.119  0.00  0.00    +0.041 C 
ATOM     11  C   UNL     1     -35.921  19.509   0.726  0.00  0.00    +0.033 C 
ATOM     12  C   UNL     1     -34.725  19.786   1.274  0.00  0.00    +0.138 C 
ENDROOT
BRANCH  12  13
ATOM     13  C   UNL     1     -33.618  18.872   1.214  0.00  0.00    +0.032 C 
ATOM     14  C   UNL     1     -32.389  19.228   0.817  0.00  0.00    -0.023 C 
ATOM     15  C   UNL     1     -31.236  18.281   0.751  0.00  0.00    +0.031 C 
ENDBRANCH  12  13
BRANCH   5  16
ATOM     16  O   UNL     1     -38.512  23.161  -0.559  0.00  0.00    -0.376 OA
ATOM     17  H   UNL     1     -37.805  22.604  -0.920  0.00  0.00    +0.211 HD
ENDBRANCH   5  16
BRANCH   4  18
ATOM     18  O   UNL     1     -37.497  23.998   1.951  0.00  0.00    -0.446 OA
BRANCH  18  20
ATOM     19  O   UNL     1     -38.811  24.442   3.788  0.00  0.00    -0.245 OA
ATOM     20  C   UNL     1     -37.739  24.469   3.203  0.00  0.00    +0.344 C 
BRANCH  20  21
ATOM     21  C   UNL     1     -36.502  25.037   3.795  0.00  0.00    +0.105 C 
ATOM     22  C   UNL     1     -35.964  26.222   3.292  0.00  0.00    -0.010 C 
ATOM     23  C   UNL     1     -35.876  24.381   4.854  0.00  0.00    +0.143 C 
ATOM     24  C   UNL     1     -34.800  26.750   3.850  0.00  0.00    +0.033 C 
ATOM     25  C   UNL     1     -34.712  24.909   5.412  0.00  0.00    +0.073 C 
ATOM     26  C   UNL     1     -36.612  26.947   2.158  0.00  0.00    +0.031 C 
ATOM     27  C   UNL     1     -34.174  26.094   4.910  0.00  0.00    +0.136 C 
BRANCH  23  28
ATOM     28  O   UNL     1     -36.384  23.221   5.360  0.00  0.00    -0.505 OA
ATOM     29  H   UNL     1     -36.208  22.407   4.931  0.00  0.00    +0.292 HD
ENDBRANCH  23  28
BRANCH  27  30
ATOM     30  O   UNL     1     -33.038  26.610   5.456  0.00  0.00    -0.505 OA
ATOM     31  H   UNL     1     -32.208  26.217   5.268  0.00  0.00    +0.292 HD
ENDBRANCH  27  30
ENDBRANCH  20  21
ENDBRANCH  18  20
ENDBRANCH   4  18
TORSDOF 7
ENDMDL
MODEL 5
REMARK VINA RESULT:      -6.7      3.423      6.492
REMARK  Name = 57384025
REMARK  7 active torsions:
REMARK  status: ('A' for Active; 'I' for Inactive)
REMARK    1  A    between atoms: C_4  and  O_18
REMARK    2  A    between atoms: C_5  and  O_16
REMARK    3  A    between atoms: C_12  and  C_13
REMARK    4  A    between atoms: O_18  and  C_20
REMARK    5  A    between atoms: C_20  and  C_21
REMARK    6  A    between atoms: C_23  and  O_28
REMARK    7  A    between atoms: C_27  and  O_30
REMARK                            x       y       z     vdW  Elec       q    Type
REMARK                         _______ _______ _______ _____ _____    ______ ____
ROOT
ATOM      1  O   UNL     1     -40.068  26.138   3.407  0.00  0.00    -0.475 OA
ATOM      2  O   UNL     1     -40.519  21.558  -0.942  0.00  0.00    -0.289 OA
ATOM      3  C   UNL     1     -39.718  23.921   2.396  0.00  0.00    +0.109 C 
ATOM      4  C   UNL     1     -38.664  22.954   1.826  0.00  0.00    +0.208 C 
ATOM      5  C   UNL     1     -39.322  21.734   1.157  0.00  0.00    +0.180 C 
ATOM      6  C   UNL     1     -40.803  24.222   1.386  0.00  0.00    -0.009 C 
ATOM      7  C   UNL     1     -39.090  25.247   2.850  0.00  0.00    +0.213 C 
ATOM      8  C   UNL     1     -40.303  22.201   0.084  0.00  0.00    +0.200 C 
ATOM      9  C   UNL     1     -41.069  23.451   0.323  0.00  0.00    +0.036 C 
ATOM     10  C   UNL     1     -38.280  20.773   0.585  0.00  0.00    +0.041 C 
ATOM     11  C   UNL     1     -41.551  25.439   1.645  0.00  0.00    +0.033 C 
ATOM     12  C   UNL     1     -41.193  26.294   2.618  0.00  0.00    +0.138 C 
ENDROOT
BRANCH  12  13
ATOM     13  C   UNL     1     -41.957  27.469   2.933  0.00  0.00    +0.032 C 
ATOM     14  C   UNL     1     -42.353  27.779   4.174  0.00  0.00    -0.023 C 
ATOM     15  C   UNL     1     -43.150  28.999   4.507  0.00  0.00    +0.031 C 
ENDBRANCH  12  13
BRANCH   5  16
ATOM     16  O   UNL     1     -40.112  21.033   2.117  0.00  0.00    -0.376 OA
ATOM     17  H   UNL     1     -39.742  21.172   3.003  0.00  0.00    +0.211 HD
ENDBRANCH   5  16
BRANCH   4  18
ATOM     18  O   UNL     1     -37.811  22.502   2.877  0.00  0.00    -0.446 OA
BRANCH  18  20
ATOM     19  O   UNL     1     -35.841  21.933   1.831  0.00  0.00    -0.245 OA
ATOM     20  C   UNL     1     -36.476  22.595   2.637  0.00  0.00    +0.344 C 
BRANCH  20  21
ATOM     21  C   UNL     1     -35.862  23.632   3.503  0.00  0.00    +0.105 C 
ATOM     22  C   UNL     1     -35.411  24.831   2.949  0.00  0.00    -0.010 C 
ATOM     23  C   UNL     1     -35.734  23.406   4.873  0.00  0.00    +0.143 C 
ATOM     24  C   UNL     1     -34.832  25.802   3.766  0.00  0.00    +0.033 C 
ATOM     25  C   UNL     1     -35.156  24.377   5.690  0.00  0.00    +0.073 C 
ATOM     26  C   UNL     1     -35.534  25.102   1.485  0.00  0.00    +0.031 C 
ATOM     27  C   UNL     1     -34.705  25.575   5.136  0.00  0.00    +0.136 C 
BRANCH  23  28
ATOM     28  O   UNL     1     -36.167  22.241   5.434  0.00  0.00    -0.505 OA
ATOM     29  H   UNL     1     -36.025  21.427   4.992  0.00  0.00    +0.292 HD
ENDBRANCH  23  28
BRANCH  27  30
ATOM     30  O   UNL     1     -34.141  26.523   5.936  0.00  0.00    -0.505 OA
ATOM     31  H   UNL     1     -33.720  27.267   5.553  0.00  0.00    +0.292 HD
ENDBRANCH  27  30
ENDBRANCH  20  21
ENDBRANCH  18  20
ENDBRANCH   4  18
TORSDOF 7
ENDMDL
MODEL 6
REMARK VINA RESULT:      -6.3      2.868      6.831
REMARK  Name = 57384025
REMARK  7 active torsions:
REMARK  status: ('A' for Active; 'I' for Inactive)
REMARK    1  A    between atoms: C_4  and  O_18
REMARK    2  A    between atoms: C_5  and  O_16
REMARK    3  A    between atoms: C_12  and  C_13
REMARK    4  A    between atoms: O_18  and  C_20
REMARK    5  A    between atoms: C_20  and  C_21
REMARK    6  A    between atoms: C_23  and  O_28
REMARK    7  A    between atoms: C_27  and  O_30
REMARK                            x       y       z     vdW  Elec       q    Type
REMARK                         _______ _______ _______ _____ _____    ______ ____
ROOT
ATOM      1  O   UNL     1     -36.154  25.845   4.699  0.00  0.00    -0.475 OA
ATOM      2  O   UNL     1     -35.612  19.952   2.445  0.00  0.00    -0.289 OA
ATOM      3  C   UNL     1     -36.480  23.969   3.139  0.00  0.00    +0.109 C 
ATOM      4  C   UNL     1     -37.522  23.018   2.521  0.00  0.00    +0.208 C 
ATOM      5  C   UNL     1     -36.849  21.900   1.706  0.00  0.00    +0.180 C 
ATOM      6  C   UNL     1     -35.377  23.209   3.840  0.00  0.00    -0.009 C 
ATOM      7  C   UNL     1     -37.119  24.941   4.143  0.00  0.00    +0.213 C 
ATOM      8  C   UNL     1     -35.849  21.152   2.583  0.00  0.00    +0.200 C 
ATOM      9  C   UNL     1     -35.089  21.921   3.602  0.00  0.00    +0.036 C 
ATOM     10  C   UNL     1     -37.879  20.950   1.093  0.00  0.00    +0.041 C 
ATOM     11  C   UNL     1     -34.636  23.981   4.819  0.00  0.00    +0.033 C 
ATOM     12  C   UNL     1     -35.014  25.222   5.173  0.00  0.00    +0.138 C 
ENDROOT
BRANCH  12  13
ATOM     13  C   UNL     1     -34.258  26.028   6.091  0.00  0.00    +0.032 C 
ATOM     14  C   UNL     1     -33.208  26.774   5.723  0.00  0.00    -0.023 C 
ATOM     15  C   UNL     1     -32.417  27.612   6.675  0.00  0.00    +0.031 C 
ENDBRANCH  12  13
BRANCH   5  16
ATOM     16  O   UNL     1     -36.078  22.477   0.653  0.00  0.00    -0.376 OA
ATOM     17  H   UNL     1     -35.312  21.911   0.467  0.00  0.00    +0.211 HD
ENDBRANCH   5  16
BRANCH   4  18
ATOM     18  O   UNL     1     -38.395  23.755   1.666  0.00  0.00    -0.446 OA
BRANCH  18  20
ATOM     19  O   UNL     1     -40.312  22.580   2.158  0.00  0.00    -0.245 OA
ATOM     20  C   UNL     1     -39.724  23.623   1.920  0.00  0.00    +0.344 C 
BRANCH  20  21
ATOM     21  C   UNL     1     -40.397  24.945   1.872  0.00  0.00    +0.105 C 
ATOM     22  C   UNL     1     -40.745  25.513   0.645  0.00  0.00    -0.010 C 
ATOM     23  C   UNL     1     -40.680  25.622   3.058  0.00  0.00    +0.143 C 
ATOM     24  C   UNL     1     -41.375  26.756   0.606  0.00  0.00    +0.033 C 
ATOM     25  C   UNL     1     -41.310  26.866   3.019  0.00  0.00    +0.073 C 
ATOM     26  C   UNL     1     -40.455  24.811  -0.641  0.00  0.00    +0.031 C 
ATOM     27  C   UNL     1     -41.658  27.433   1.792  0.00  0.00    +0.136 C 
BRANCH  23  28
ATOM     28  O   UNL     1     -40.348  25.087   4.267  0.00  0.00    -0.505 OA
ATOM     29  H   UNL     1     -39.645  25.456   4.765  0.00  0.00    +0.292 HD
ENDBRANCH  23  28
BRANCH  27  30
ATOM     30  O   UNL     1     -42.274  28.647   1.755  0.00  0.00    -0.505 OA
ATOM     31  H   UNL     1     -42.547  29.008   0.935  0.00  0.00    +0.292 HD
ENDBRANCH  27  30
ENDBRANCH  20  21
ENDBRANCH  18  20
ENDBRANCH   4  18
TORSDOF 7
ENDMDL
MODEL 7
REMARK VINA RESULT:      -6.2      2.217      7.060
REMARK  Name = 57384025
REMARK  7 active torsions:
REMARK  status: ('A' for Active; 'I' for Inactive)
REMARK    1  A    between atoms: C_4  and  O_18
REMARK    2  A    between atoms: C_5  and  O_16
REMARK    3  A    between atoms: C_12  and  C_13
REMARK    4  A    between atoms: O_18  and  C_20
REMARK    5  A    between atoms: C_20  and  C_21
REMARK    6  A    between atoms: C_23  and  O_28
REMARK    7  A    between atoms: C_27  and  O_30
REMARK                            x       y       z     vdW  Elec       q    Type
REMARK                         _______ _______ _______ _____ _____    ______ ____
ROOT
ATOM      1  O   UNL     1     -34.912  21.220   0.082  0.00  0.00    -0.475 OA
ATOM      2  O   UNL     1     -35.902  23.207   6.012  0.00  0.00    -0.289 OA
ATOM      3  C   UNL     1     -35.803  22.640   1.885  0.00  0.00    +0.109 C 
ATOM      4  C   UNL     1     -35.772  24.050   2.502  0.00  0.00    +0.208 C 
ATOM      5  C   UNL     1     -36.523  24.093   3.844  0.00  0.00    +0.180 C 
ATOM      6  C   UNL     1     -35.419  21.581   2.893  0.00  0.00    -0.009 C 
ATOM      7  C   UNL     1     -34.863  22.526   0.674  0.00  0.00    +0.213 C 
ATOM      8  C   UNL     1     -35.944  23.047   4.793  0.00  0.00    +0.200 C 
ATOM      9  C   UNL     1     -35.469  21.761   4.221  0.00  0.00    +0.036 C 
ATOM     10  C   UNL     1     -36.492  25.491   4.464  0.00  0.00    +0.041 C 
ATOM     11  C   UNL     1     -34.973  20.327   2.316  0.00  0.00    +0.033 C 
ATOM     12  C   UNL     1     -34.776  20.189   0.993  0.00  0.00    +0.138 C 
ENDROOT
BRANCH  12  13
ATOM     13  C   UNL     1     -34.398  18.939   0.395  0.00  0.00    +0.032 C 
ATOM     14  C   UNL     1     -33.380  18.189   0.837  0.00  0.00    -0.023 C 
ATOM     15  C   UNL     1     -32.982  16.889   0.217  0.00  0.00    +0.031 C 
ENDBRANCH  12  13
BRANCH   5  16
ATOM     16  O   UNL     1     -37.883  23.714   3.642  0.00  0.00    -0.376 OA
ATOM     17  H   UNL     1     -38.227  23.299   4.449  0.00  0.00    +0.211 HD
ENDBRANCH   5  16
BRANCH   4  18
ATOM     18  O   UNL     1     -36.376  24.980   1.603  0.00  0.00    -0.446 OA
BRANCH  18  20
ATOM     19  O   UNL     1     -35.277  25.530  -0.342  0.00  0.00    -0.245 OA
ATOM     20  C   UNL     1     -35.520  25.710   0.840  0.00  0.00    +0.344 C 
BRANCH  20  21
ATOM     21  C   UNL     1     -34.896  26.789   1.645  0.00  0.00    +0.105 C 
ATOM     22  C   UNL     1     -33.543  26.721   1.983  0.00  0.00    -0.010 C 
ATOM     23  C   UNL     1     -35.666  27.873   2.067  0.00  0.00    +0.143 C 
ATOM     24  C   UNL     1     -32.963  27.737   2.742  0.00  0.00    +0.033 C 
ATOM     25  C   UNL     1     -35.085  28.889   2.826  0.00  0.00    +0.073 C 
ATOM     26  C   UNL     1     -32.694  25.574   1.545  0.00  0.00    +0.031 C 
ATOM     27  C   UNL     1     -33.733  28.821   3.163  0.00  0.00    +0.136 C 
BRANCH  23  28
ATOM     28  O   UNL     1     -36.989  27.958   1.750  0.00  0.00    -0.505 OA
ATOM     29  H   UNL     1     -37.368  27.344   1.152  0.00  0.00    +0.292 HD
ENDBRANCH  23  28
BRANCH  27  30
ATOM     30  O   UNL     1     -33.167  29.814   3.903  0.00  0.00    -0.505 OA
ATOM     31  H   UNL     1     -32.398  30.249   3.592  0.00  0.00    +0.292 HD
ENDBRANCH  27  30
ENDBRANCH  20  21
ENDBRANCH  18  20
ENDBRANCH   4  18
TORSDOF 7
ENDMDL
MODEL 8
REMARK VINA RESULT:      -6.1      2.696      7.627
REMARK  Name = 57384025
REMARK  7 active torsions:
REMARK  status: ('A' for Active; 'I' for Inactive)
REMARK    1  A    between atoms: C_4  and  O_18
REMARK    2  A    between atoms: C_5  and  O_16
REMARK    3  A    between atoms: C_12  and  C_13
REMARK    4  A    between atoms: O_18  and  C_20
REMARK    5  A    between atoms: C_20  and  C_21
REMARK    6  A    between atoms: C_23  and  O_28
REMARK    7  A    between atoms: C_27  and  O_30
REMARK                            x       y       z     vdW  Elec       q    Type
REMARK                         _______ _______ _______ _____ _____    ______ ____
ROOT
ATOM      1  O   UNL     1     -34.723  21.506   0.237  0.00  0.00    -0.475 OA
ATOM      2  O   UNL     1     -35.770  22.679   6.371  0.00  0.00    -0.289 OA
ATOM      3  C   UNL     1     -35.469  22.767   2.215  0.00  0.00    +0.109 C 
ATOM      4  C   UNL     1     -35.225  24.028   3.065  0.00  0.00    +0.208 C 
ATOM      5  C   UNL     1     -36.053  24.002   4.362  0.00  0.00    +0.180 C 
ATOM      6  C   UNL     1     -35.363  21.507   3.045  0.00  0.00    -0.009 C 
ATOM      7  C   UNL     1     -34.479  22.667   1.045  0.00  0.00    +0.213 C 
ATOM      8  C   UNL     1     -35.749  22.726   5.142  0.00  0.00    +0.200 C 
ATOM      9  C   UNL     1     -35.478  21.479   4.380  0.00  0.00    +0.036 C 
ATOM     10  C   UNL     1     -35.811  25.251   5.211  0.00  0.00    +0.041 C 
ATOM     11  C   UNL     1     -35.114  20.298   2.282  0.00  0.00    +0.033 C 
ATOM     12  C   UNL     1     -34.847  20.337   0.965  0.00  0.00    +0.138 C 
ENDROOT
BRANCH  12  13
ATOM     13  C   UNL     1     -34.662  19.148   0.179  0.00  0.00    +0.032 C 
ATOM     14  C   UNL     1     -33.853  18.145   0.541  0.00  0.00    -0.023 C 
ATOM     15  C   UNL     1     -33.656  16.908  -0.274  0.00  0.00    +0.031 C 
ENDBRANCH  12  13
BRANCH   5  16
ATOM     16  O   UNL     1     -37.441  23.931   4.039  0.00  0.00    -0.376 OA
ATOM     17  H   UNL     1     -37.725  24.771   3.645  0.00  0.00    +0.211 HD
ENDBRANCH   5  16
BRANCH   4  18
ATOM     18  O   UNL     1     -35.578  25.188   2.312  0.00  0.00    -0.446 OA
BRANCH  18  20
ATOM     19  O   UNL     1     -33.382  25.774   1.958  0.00  0.00    -0.245 OA
ATOM     20  C   UNL     1     -34.566  26.056   2.049  0.00  0.00    +0.344 C 
BRANCH  20  21
ATOM     21  C   UNL     1     -35.091  27.434   1.880  0.00  0.00    +0.105 C 
ATOM     22  C   UNL     1     -35.874  27.755   0.770  0.00  0.00    -0.010 C 
ATOM     23  C   UNL     1     -34.799  28.409   2.833  0.00  0.00    +0.143 C 
ATOM     24  C   UNL     1     -36.363  29.053   0.615  0.00  0.00    +0.033 C 
ATOM     25  C   UNL     1     -35.288  29.706   2.678  0.00  0.00    +0.073 C 
ATOM     26  C   UNL     1     -36.204  26.733  -0.266  0.00  0.00    +0.031 C 
ATOM     27  C   UNL     1     -36.071  30.028   1.569  0.00  0.00    +0.136 C 
BRANCH  23  28
ATOM     28  O   UNL     1     -34.035  28.117   3.924  0.00  0.00    -0.505 OA
ATOM     29  H   UNL     1     -33.973  28.730   4.630  0.00  0.00    +0.292 HD
ENDBRANCH  23  28
BRANCH  27  30
ATOM     30  O   UNL     1     -36.549  31.294   1.419  0.00  0.00    -0.505 OA
ATOM     31  H   UNL     1     -37.236  31.465   0.805  0.00  0.00    +0.292 HD
ENDBRANCH  27  30
ENDBRANCH  20  21
ENDBRANCH  18  20
ENDBRANCH   4  18
TORSDOF 7
ENDMDL
MODEL 9
REMARK VINA RESULT:      -6.1      2.057      7.295
REMARK  Name = 57384025
REMARK  7 active torsions:
REMARK  status: ('A' for Active; 'I' for Inactive)
REMARK    1  A    between atoms: C_4  and  O_18
REMARK    2  A    between atoms: C_5  and  O_16
REMARK    3  A    between atoms: C_12  and  C_13
REMARK    4  A    between atoms: O_18  and  C_20
REMARK    5  A    between atoms: C_20  and  C_21
REMARK    6  A    between atoms: C_23  and  O_28
REMARK    7  A    between atoms: C_27  and  O_30
REMARK                            x       y       z     vdW  Elec       q    Type
REMARK                         _______ _______ _______ _____ _____    ______ ____
ROOT
ATOM      1  O   UNL     1     -34.624  21.319   0.210  0.00  0.00    -0.475 OA
ATOM      2  O   UNL     1     -35.806  22.968   6.208  0.00  0.00    -0.289 OA
ATOM      3  C   UNL     1     -35.447  22.713   2.064  0.00  0.00    +0.109 C 
ATOM      4  C   UNL     1     -35.265  24.051   2.805  0.00  0.00    +0.208 C 
ATOM      5  C   UNL     1     -36.110  24.102   4.089  0.00  0.00    +0.180 C 
ATOM      6  C   UNL     1     -35.305  21.533   2.999  0.00  0.00    -0.009 C 
ATOM      7  C   UNL     1     -34.437  22.553   0.918  0.00  0.00    +0.213 C 
ATOM      8  C   UNL     1     -35.769  22.911   4.980  0.00  0.00    +0.200 C 
ATOM      9  C   UNL     1     -35.438  21.615   4.331  0.00  0.00    +0.036 C 
ATOM     10  C   UNL     1     -35.930  25.428   4.831  0.00  0.00    +0.041 C 
ATOM     11  C   UNL     1     -34.998  20.275   2.346  0.00  0.00    +0.033 C 
ATOM     12  C   UNL     1     -34.714  20.212   1.033  0.00  0.00    +0.138 C 
ENDROOT
BRANCH  12  13
ATOM     13  C   UNL     1     -34.472  18.969   0.354  0.00  0.00    +0.032 C 
ATOM     14  C   UNL     1     -33.554  18.078   0.754  0.00  0.00    -0.023 C 
ATOM     15  C   UNL     1     -33.298  16.785   0.050  0.00  0.00    +0.031 C 
ENDBRANCH  12  13
BRANCH   5  16
ATOM     16  O   UNL     1     -37.490  23.949   3.758  0.00  0.00    -0.376 OA
ATOM     17  H   UNL     1     -37.639  24.248   2.847  0.00  0.00    +0.211 HD
ENDBRANCH   5  16
BRANCH   4  18
ATOM     18  O   UNL     1     -35.652  25.127   1.951  0.00  0.00    -0.446 OA
BRANCH  18  20
ATOM     19  O   UNL     1     -34.078  25.479   0.310  0.00  0.00    -0.245 OA
ATOM     20  C   UNL     1     -34.637  25.800   1.347  0.00  0.00    +0.344 C 
BRANCH  20  21
ATOM     21  C   UNL     1     -34.278  27.011   2.126  0.00  0.00    +0.105 C 
ATOM     22  C   UNL     1     -35.116  28.126   2.115  0.00  0.00    -0.010 C 
ATOM     23  C   UNL     1     -33.097  27.033   2.868  0.00  0.00    +0.143 C 
ATOM     24  C   UNL     1     -34.772  29.263   2.847  0.00  0.00    +0.033 C 
ATOM     25  C   UNL     1     -32.753  28.169   3.600  0.00  0.00    +0.073 C 
ATOM     26  C   UNL     1     -36.386  28.132   1.330  0.00  0.00    +0.031 C 
ATOM     27  C   UNL     1     -33.592  29.285   3.589  0.00  0.00    +0.136 C 
BRANCH  23  28
ATOM     28  O   UNL     1     -32.263  25.955   2.891  0.00  0.00    -0.505 OA
ATOM     29  H   UNL     1     -31.409  26.032   3.268  0.00  0.00    +0.292 HD
ENDBRANCH  23  28
BRANCH  27  30
ATOM     30  O   UNL     1     -33.256  30.393   4.305  0.00  0.00    -0.505 OA
ATOM     31  H   UNL     1     -33.873  31.092   4.402  0.00  0.00    +0.292 HD
ENDBRANCH  27  30
ENDBRANCH  20  21
ENDBRANCH  18  20
ENDBRANCH   4  18
TORSDOF 7
ENDMDL
