MODEL 1
REMARK VINA RESULT:      -5.5      0.000      0.000
REMARK  Name = 195624
REMARK  5 active torsions:
REMARK  status: ('A' for Active; 'I' for Inactive)
REMARK    1  A    between atoms: C_1  and  O_2
REMARK    2  A    between atoms: C_1  and  C_4
REMARK    3  A    between atoms: C_1  and  C_11
REMARK    4  A    between atoms: C_4  and  N_7
REMARK    5  A    between atoms: C_11  and  N_14
REMARK                            x       y       z     vdW  Elec       q    Type
REMARK                         _______ _______ _______ _____ _____    ______ ____
ROOT
ATOM      1  C   UNL     1     -35.466  20.348   2.302  0.00  0.00    +0.150 C 
ENDROOT
BRANCH   1   2
ATOM      2  O   UNL     1     -36.740  19.763   2.566  0.00  0.00    -0.381 OA
ATOM      3  H   UNL     1     -36.671  18.797   2.503  0.00  0.00    +0.210 HD
ENDBRANCH   1   2
BRANCH   1   4
ATOM      4  C   UNL     1     -35.030  19.988   0.881  0.00  0.00    +0.128 C 
BRANCH   4   7
ATOM      5  O   UNL     1     -31.426  19.715   0.447  0.00  0.00    -0.433 OA
ATOM      6  O   UNL     1     -32.697  21.486  -0.242  0.00  0.00    -0.226 OA
ATOM      7  N   UNL     1     -33.634  19.616   0.798  0.00  0.00    -0.240 N 
ATOM      8  C   UNL     1     -33.123  18.446   1.446  0.00  0.00    +0.144 C 
ATOM      9  C   UNL     1     -31.707  18.390   0.928  0.00  0.00    +0.232 C 
ATOM     10  C   UNL     1     -32.614  20.382   0.280  0.00  0.00    +0.405 C 
ENDBRANCH   4   7
ENDBRANCH   1   4
BRANCH   1  11
ATOM     11  C   UNL     1     -35.555  21.861   2.524  0.00  0.00    +0.129 C 
BRANCH  11  14
ATOM     12  O   UNL     1     -37.250  25.294   4.264  0.00  0.00    -0.123 OA
ATOM     13  O   UNL     1     -36.006  24.686   2.560  0.00  0.00    -0.123 OA
ATOM     14  N   UNL     1     -35.565  22.215   3.944  0.00  0.00    -0.248 N 
ATOM     15  N   UNL     1     -35.834  23.396   5.784  0.00  0.00    -0.207 NA
ATOM     16  N   UNL     1     -36.419  24.497   3.741  0.00  0.00    +0.091 N 
ATOM     17  C   UNL     1     -35.952  23.400   4.475  0.00  0.00    +0.284 C 
ATOM     18  C   UNL     1     -35.172  21.395   4.950  0.00  0.00    +0.089 C 
ATOM     19  C   UNL     1     -35.348  22.148   6.087  0.00  0.00    +0.118 C 
ENDBRANCH  11  14
ENDBRANCH   1  11
TORSDOF 5
ENDMDL
MODEL 2
REMARK VINA RESULT:      -5.5      3.414      5.247
REMARK  Name = 195624
REMARK  5 active torsions:
REMARK  status: ('A' for Active; 'I' for Inactive)
REMARK    1  A    between atoms: C_1  and  O_2
REMARK    2  A    between atoms: C_1  and  C_4
REMARK    3  A    between atoms: C_1  and  C_11
REMARK    4  A    between atoms: C_4  and  N_7
REMARK    5  A    between atoms: C_11  and  N_14
REMARK                            x       y       z     vdW  Elec       q    Type
REMARK                         _______ _______ _______ _____ _____    ______ ____
ROOT
ATOM      1  C   UNL     1     -38.332  23.765   3.009  0.00  0.00    +0.150 C 
ENDROOT
BRANCH   1   2
ATOM      2  O   UNL     1     -38.616  24.858   3.880  0.00  0.00    -0.381 OA
ATOM      3  H   UNL     1     -37.855  25.459   3.904  0.00  0.00    +0.210 HD
ENDBRANCH   1   2
BRANCH   1   4
ATOM      4  C   UNL     1     -39.247  23.844   1.786  0.00  0.00    +0.128 C 
BRANCH   4   7
ATOM      5  O   UNL     1     -39.578  20.576   0.215  0.00  0.00    -0.433 OA
ATOM      6  O   UNL     1     -40.401  21.128   2.276  0.00  0.00    -0.226 OA
ATOM      7  N   UNL     1     -39.200  22.649   0.970  0.00  0.00    -0.240 N 
ATOM      8  C   UNL     1     -38.686  22.663  -0.365  0.00  0.00    +0.144 C 
ATOM      9  C   UNL     1     -38.676  21.196  -0.717  0.00  0.00    +0.232 C 
ATOM     10  C   UNL     1     -39.782  21.436   1.266  0.00  0.00    +0.405 C 
ENDBRANCH   4   7
ENDBRANCH   1   4
BRANCH   1  11
ATOM     11  C   UNL     1     -36.847  23.797   2.633  0.00  0.00    +0.129 C 
BRANCH  11  14
ATOM     12  O   UNL     1     -35.930  22.144   6.390  0.00  0.00    -0.123 OA
ATOM     13  O   UNL     1     -35.831  24.045   5.295  0.00  0.00    -0.123 OA
ATOM     14  N   UNL     1     -36.181  22.520   2.894  0.00  0.00    -0.248 N 
ATOM     15  N   UNL     1     -35.175  20.893   3.985  0.00  0.00    -0.207 NA
ATOM     16  N   UNL     1     -35.835  22.780   5.301  0.00  0.00    +0.091 N 
ATOM     17  C   UNL     1     -35.731  22.079   4.094  0.00  0.00    +0.284 C 
ATOM     18  C   UNL     1     -35.907  21.582   1.954  0.00  0.00    +0.089 C 
ATOM     19  C   UNL     1     -35.281  20.577   2.654  0.00  0.00    +0.118 C 
ENDBRANCH  11  14
ENDBRANCH   1  11
TORSDOF 5
ENDMDL
MODEL 3
REMARK VINA RESULT:      -5.4      3.546      6.724
REMARK  Name = 195624
REMARK  5 active torsions:
REMARK  status: ('A' for Active; 'I' for Inactive)
REMARK    1  A    between atoms: C_1  and  O_2
REMARK    2  A    between atoms: C_1  and  C_4
REMARK    3  A    between atoms: C_1  and  C_11
REMARK    4  A    between atoms: C_4  and  N_7
REMARK    5  A    between atoms: C_11  and  N_14
REMARK                            x       y       z     vdW  Elec       q    Type
REMARK                         _______ _______ _______ _____ _____    ______ ____
ROOT
ATOM      1  C   UNL     1     -37.745  24.401   2.965  0.00  0.00    +0.150 C 
ENDROOT
BRANCH   1   2
ATOM      2  O   UNL     1     -38.075  24.886   4.265  0.00  0.00    -0.381 OA
ATOM      3  H   UNL     1     -37.290  24.847   4.833  0.00  0.00    +0.210 HD
ENDBRANCH   1   2
BRANCH   1   4
ATOM      4  C   UNL     1     -38.257  25.387   1.914  0.00  0.00    +0.128 C 
BRANCH   4   7
ATOM      5  O   UNL     1     -41.888  25.635   1.827  0.00  0.00    -0.433 OA
ATOM      6  O   UNL     1     -40.539  26.705   3.330  0.00  0.00    -0.226 OA
ATOM      7  N   UNL     1     -39.683  25.279   1.689  0.00  0.00    -0.240 N 
ATOM      8  C   UNL     1     -40.221  24.589   0.557  0.00  0.00    +0.144 C 
ATOM      9  C   UNL     1     -41.699  24.591   0.857  0.00  0.00    +0.232 C 
ATOM     10  C   UNL     1     -40.671  25.944   2.381  0.00  0.00    +0.405 C 
ENDBRANCH   4   7
ENDBRANCH   1   4
BRANCH   1  11
ATOM     11  C   UNL     1     -36.230  24.186   2.880  0.00  0.00    +0.129 C 
BRANCH  11  14
ATOM     12  O   UNL     1     -35.990  22.043   6.491  0.00  0.00    -0.123 OA
ATOM     13  O   UNL     1     -35.418  23.974   5.614  0.00  0.00    -0.123 OA
ATOM     14  N   UNL     1     -35.858  22.780   3.046  0.00  0.00    -0.248 N 
ATOM     15  N   UNL     1     -35.296  20.887   4.020  0.00  0.00    -0.207 NA
ATOM     16  N   UNL     1     -35.676  22.742   5.484  0.00  0.00    +0.091 N 
ATOM     17  C   UNL     1     -35.610  22.147   4.218  0.00  0.00    +0.284 C 
ATOM     18  C   UNL     1     -35.698  21.895   2.031  0.00  0.00    +0.089 C 
ATOM     19  C   UNL     1     -35.349  20.723   2.658  0.00  0.00    +0.118 C 
ENDBRANCH  11  14
ENDBRANCH   1  11
TORSDOF 5
ENDMDL
MODEL 4
REMARK VINA RESULT:      -5.4      4.809      7.279
REMARK  Name = 195624
REMARK  5 active torsions:
REMARK  status: ('A' for Active; 'I' for Inactive)
REMARK    1  A    between atoms: C_1  and  O_2
REMARK    2  A    between atoms: C_1  and  C_4
REMARK    3  A    between atoms: C_1  and  C_11
REMARK    4  A    between atoms: C_4  and  N_7
REMARK    5  A    between atoms: C_11  and  N_14
REMARK                            x       y       z     vdW  Elec       q    Type
REMARK                         _______ _______ _______ _____ _____    ______ ____
ROOT
ATOM      1  C   UNL     1     -34.740  27.078   3.608  0.00  0.00    +0.150 C 
ENDROOT
BRANCH   1   2
ATOM      2  O   UNL     1     -35.065  28.467   3.636  0.00  0.00    -0.381 OA
ATOM      3  H   UNL     1     -34.403  28.964   3.131  0.00  0.00    +0.210 HD
ENDBRANCH   1   2
BRANCH   1   4
ATOM      4  C   UNL     1     -33.233  26.909   3.809  0.00  0.00    +0.128 C 
BRANCH   4   7
ATOM      5  O   UNL     1     -31.817  28.944   6.476  0.00  0.00    -0.433 OA
ATOM      6  O   UNL     1     -32.698  26.852   6.752  0.00  0.00    -0.226 OA
ATOM      7  N   UNL     1     -32.665  27.921   4.675  0.00  0.00    -0.240 N 
ATOM      8  C   UNL     1     -32.088  29.124   4.157  0.00  0.00    +0.144 C 
ATOM      9  C   UNL     1     -31.814  29.911   5.413  0.00  0.00    +0.232 C 
ATOM     10  C   UNL     1     -32.432  27.801   6.027  0.00  0.00    +0.405 C 
ENDBRANCH   4   7
ENDBRANCH   1   4
BRANCH   1  11
ATOM     11  C   UNL     1     -35.560  26.351   4.679  0.00  0.00    +0.129 C 
BRANCH  11  14
ATOM     12  O   UNL     1     -36.015  22.379   5.986  0.00  0.00    -0.123 OA
ATOM     13  O   UNL     1     -34.455  23.866   5.563  0.00  0.00    -0.123 OA
ATOM     14  N   UNL     1     -36.441  25.331   4.106  0.00  0.00    -0.248 N 
ATOM     15  N   UNL     1     -37.359  23.367   3.718  0.00  0.00    -0.207 NA
ATOM     16  N   UNL     1     -35.612  23.399   5.354  0.00  0.00    +0.091 N 
ATOM     17  C   UNL     1     -36.451  24.012   4.416  0.00  0.00    +0.284 C 
ATOM     18  C   UNL     1     -37.384  25.563   3.160  0.00  0.00    +0.089 C 
ATOM     19  C   UNL     1     -37.944  24.328   2.932  0.00  0.00    +0.118 C 
ENDBRANCH  11  14
ENDBRANCH   1  11
TORSDOF 5
ENDMDL
MODEL 5
REMARK VINA RESULT:      -5.4      4.310      6.087
REMARK  Name = 195624
REMARK  5 active torsions:
REMARK  status: ('A' for Active; 'I' for Inactive)
REMARK    1  A    between atoms: C_1  and  O_2
REMARK    2  A    between atoms: C_1  and  C_4
REMARK    3  A    between atoms: C_1  and  C_11
REMARK    4  A    between atoms: C_4  and  N_7
REMARK    5  A    between atoms: C_11  and  N_14
REMARK                            x       y       z     vdW  Elec       q    Type
REMARK                         _______ _______ _______ _____ _____    ______ ____
ROOT
ATOM      1  C   UNL     1     -36.258  23.413   4.468  0.00  0.00    +0.150 C 
ENDROOT
BRANCH   1   2
ATOM      2  O   UNL     1     -36.194  22.365   5.433  0.00  0.00    -0.381 OA
ATOM      3  H   UNL     1     -35.751  21.595   5.044  0.00  0.00    +0.210 HD
ENDBRANCH   1   2
BRANCH   1   4
ATOM      4  C   UNL     1     -34.849  23.955   4.217  0.00  0.00    +0.128 C 
BRANCH   4   7
ATOM      5  O   UNL     1     -34.587  27.585   4.150  0.00  0.00    -0.433 OA
ATOM      6  O   UNL     1     -34.366  26.291   6.021  0.00  0.00    -0.226 OA
ATOM      7  N   UNL     1     -34.835  25.372   3.925  0.00  0.00    -0.240 N 
ATOM      8  C   UNL     1     -34.900  25.871   2.585  0.00  0.00    +0.144 C 
ATOM      9  C   UNL     1     -35.040  27.356   2.805  0.00  0.00    +0.232 C 
ATOM     10  C   UNL     1     -34.581  26.387   4.821  0.00  0.00    +0.405 C 
ENDBRANCH   4   7
ENDBRANCH   1   4
BRANCH   1  11
ATOM     11  C   UNL     1     -36.918  22.880   3.192  0.00  0.00    +0.129 C 
BRANCH  11  14
ATOM     12  O   UNL     1     -40.425  21.017   1.809  0.00  0.00    -0.123 OA
ATOM     13  O   UNL     1     -38.264  21.076   1.427  0.00  0.00    -0.123 OA
ATOM     14  N   UNL     1     -38.207  23.519   2.925  0.00  0.00    -0.248 N 
ATOM     15  N   UNL     1     -40.276  23.797   2.223  0.00  0.00    -0.207 NA
ATOM     16  N   UNL     1     -39.323  21.636   1.834  0.00  0.00    +0.091 N 
ATOM     17  C   UNL     1     -39.274  22.951   2.313  0.00  0.00    +0.284 C 
ATOM     18  C   UNL     1     -38.521  24.798   3.249  0.00  0.00    +0.089 C 
ATOM     19  C   UNL     1     -39.813  24.951   2.804  0.00  0.00    +0.118 C 
ENDBRANCH  11  14
ENDBRANCH   1  11
TORSDOF 5
ENDMDL
MODEL 6
REMARK VINA RESULT:      -5.3      3.202      5.854
REMARK  Name = 195624
REMARK  5 active torsions:
REMARK  status: ('A' for Active; 'I' for Inactive)
REMARK    1  A    between atoms: C_1  and  O_2
REMARK    2  A    between atoms: C_1  and  C_4
REMARK    3  A    between atoms: C_1  and  C_11
REMARK    4  A    between atoms: C_4  and  N_7
REMARK    5  A    between atoms: C_11  and  N_14
REMARK                            x       y       z     vdW  Elec       q    Type
REMARK                         _______ _______ _______ _____ _____    ______ ____
ROOT
ATOM      1  C   UNL     1     -34.778  24.737   2.941  0.00  0.00    +0.150 C 
ENDROOT
BRANCH   1   2
ATOM      2  O   UNL     1     -34.704  24.225   1.612  0.00  0.00    -0.381 OA
ATOM      3  H   UNL     1     -35.593  24.206   1.224  0.00  0.00    +0.210 HD
ENDBRANCH   1   2
BRANCH   1   4
ATOM      4  C   UNL     1     -34.805  26.266   2.893  0.00  0.00    +0.128 C 
BRANCH   4   7
ATOM      5  O   UNL     1     -32.156  27.535   5.044  0.00  0.00    -0.433 OA
ATOM      6  O   UNL     1     -34.115  26.617   5.782  0.00  0.00    -0.226 OA
ATOM      7  N   UNL     1     -33.641  26.868   3.508  0.00  0.00    -0.240 N 
ATOM      8  C   UNL     1     -32.498  27.263   2.743  0.00  0.00    +0.144 C 
ATOM      9  C   UNL     1     -31.661  27.983   3.770  0.00  0.00    +0.232 C 
ATOM     10  C   UNL     1     -33.393  26.969   4.859  0.00  0.00    +0.405 C 
ENDBRANCH   4   7
ENDBRANCH   1   4
BRANCH   1  11
ATOM     11  C   UNL     1     -36.011  24.150   3.636  0.00  0.00    +0.129 C 
BRANCH  11  14
ATOM     12  O   UNL     1     -35.000  20.181   2.682  0.00  0.00    -0.123 OA
ATOM     13  O   UNL     1     -36.466  21.734   2.173  0.00  0.00    -0.123 OA
ATOM     14  N   UNL     1     -35.664  23.081   4.573  0.00  0.00    -0.248 N 
ATOM     15  N   UNL     1     -35.207  21.069   5.345  0.00  0.00    -0.207 NA
ATOM     16  N   UNL     1     -35.665  21.209   3.000  0.00  0.00    +0.091 N 
ATOM     17  C   UNL     1     -35.515  21.767   4.275  0.00  0.00    +0.284 C 
ATOM     18  C   UNL     1     -35.446  23.253   5.900  0.00  0.00    +0.089 C 
ATOM     19  C   UNL     1     -35.163  21.989   6.362  0.00  0.00    +0.118 C 
ENDBRANCH  11  14
ENDBRANCH   1  11
TORSDOF 5
ENDMDL
MODEL 7
REMARK VINA RESULT:      -5.3      3.188      6.376
REMARK  Name = 195624
REMARK  5 active torsions:
REMARK  status: ('A' for Active; 'I' for Inactive)
REMARK    1  A    between atoms: C_1  and  O_2
REMARK    2  A    between atoms: C_1  and  C_4
REMARK    3  A    between atoms: C_1  and  C_11
REMARK    4  A    between atoms: C_4  and  N_7
REMARK    5  A    between atoms: C_11  and  N_14
REMARK                            x       y       z     vdW  Elec       q    Type
REMARK                         _______ _______ _______ _____ _____    ______ ____
ROOT
ATOM      1  C   UNL     1     -37.075  25.051   3.859  0.00  0.00    +0.150 C 
ENDROOT
BRANCH   1   2
ATOM      2  O   UNL     1     -36.892  26.048   4.863  0.00  0.00    -0.381 OA
ATOM      3  H   UNL     1     -36.396  26.794   4.492  0.00  0.00    +0.210 HD
ENDBRANCH   1   2
BRANCH   1   4
ATOM      4  C   UNL     1     -37.612  25.710   2.587  0.00  0.00    +0.128 C 
BRANCH   4   7
ATOM      5  O   UNL     1     -41.102  24.971   1.857  0.00  0.00    -0.433 OA
ATOM      6  O   UNL     1     -40.376  26.690   3.179  0.00  0.00    -0.226 OA
ATOM      7  N   UNL     1     -38.897  25.182   2.181  0.00  0.00    -0.240 N 
ATOM      8  C   UNL     1     -39.013  24.121   1.227  0.00  0.00    +0.144 C 
ATOM      9  C   UNL     1     -40.488  23.810   1.275  0.00  0.00    +0.232 C 
ATOM     10  C   UNL     1     -40.131  25.713   2.483  0.00  0.00    +0.405 C 
ENDBRANCH   4   7
ENDBRANCH   1   4
BRANCH   1  11
ATOM     11  C   UNL     1     -35.746  24.325   3.627  0.00  0.00    +0.129 C 
BRANCH  11  14
ATOM     12  O   UNL     1     -35.108  20.271   2.709  0.00  0.00    -0.123 OA
ATOM     13  O   UNL     1     -36.393  21.962   2.151  0.00  0.00    -0.123 OA
ATOM     14  N   UNL     1     -35.540  23.230   4.576  0.00  0.00    -0.248 N 
ATOM     15  N   UNL     1     -35.314  21.185   5.363  0.00  0.00    -0.207 NA
ATOM     16  N   UNL     1     -35.677  21.362   3.004  0.00  0.00    +0.091 N 
ATOM     17  C   UNL     1     -35.514  21.907   4.283  0.00  0.00    +0.284 C 
ATOM     18  C   UNL     1     -35.350  23.384   5.910  0.00  0.00    +0.089 C 
ATOM     19  C   UNL     1     -35.211  22.100   6.381  0.00  0.00    +0.118 C 
ENDBRANCH  11  14
ENDBRANCH   1  11
TORSDOF 5
ENDMDL
MODEL 8
REMARK VINA RESULT:      -5.2      3.673      5.679
REMARK  Name = 195624
REMARK  5 active torsions:
REMARK  status: ('A' for Active; 'I' for Inactive)
REMARK    1  A    between atoms: C_1  and  O_2
REMARK    2  A    between atoms: C_1  and  C_4
REMARK    3  A    between atoms: C_1  and  C_11
REMARK    4  A    between atoms: C_4  and  N_7
REMARK    5  A    between atoms: C_11  and  N_14
REMARK                            x       y       z     vdW  Elec       q    Type
REMARK                         _______ _______ _______ _____ _____    ______ ____
ROOT
ATOM      1  C   UNL     1     -35.850  25.408   5.043  0.00  0.00    +0.150 C 
ENDROOT
BRANCH   1   2
ATOM      2  O   UNL     1     -36.561  26.617   5.305  0.00  0.00    -0.381 OA
ATOM      3  H   UNL     1     -36.792  27.044   4.465  0.00  0.00    +0.210 HD
ENDBRANCH   1   2
BRANCH   1   4
ATOM      4  C   UNL     1     -36.755  24.450   4.266  0.00  0.00    +0.128 C 
BRANCH   4   7
ATOM      5  O   UNL     1     -35.324  21.113   4.535  0.00  0.00    -0.433 OA
ATOM      6  O   UNL     1     -35.771  22.493   6.302  0.00  0.00    -0.226 OA
ATOM      7  N   UNL     1     -36.167  23.139   4.093  0.00  0.00    -0.240 N 
ATOM      8  C   UNL     1     -36.126  22.489   2.818  0.00  0.00    +0.144 C 
ATOM      9  C   UNL     1     -35.280  21.274   3.107  0.00  0.00    +0.232 C 
ATOM     10  C   UNL     1     -35.758  22.289   5.096  0.00  0.00    +0.405 C 
ENDBRANCH   4   7
ENDBRANCH   1   4
BRANCH   1  11
ATOM     11  C   UNL     1     -34.560  25.740   4.286  0.00  0.00    +0.129 C 
BRANCH  11  14
ATOM     12  O   UNL     1     -32.877  29.383   3.026  0.00  0.00    -0.123 OA
ATOM     13  O   UNL     1     -33.229  27.334   2.319  0.00  0.00    -0.123 OA
ATOM     14  N   UNL     1     -33.674  26.614   5.058  0.00  0.00    -0.248 N 
ATOM     15  N   UNL     1     -32.284  28.254   5.536  0.00  0.00    -0.207 NA
ATOM     16  N   UNL     1     -33.036  28.151   3.266  0.00  0.00    +0.091 N 
ATOM     17  C   UNL     1     -32.996  27.689   4.587  0.00  0.00    +0.284 C 
ATOM     18  C   UNL     1     -33.393  26.466   6.376  0.00  0.00    +0.089 C 
ATOM     19  C   UNL     1     -32.526  27.497   6.654  0.00  0.00    +0.118 C 
ENDBRANCH  11  14
ENDBRANCH   1  11
TORSDOF 5
ENDMDL
MODEL 9
REMARK VINA RESULT:      -5.2      3.513      6.572
REMARK  Name = 195624
REMARK  5 active torsions:
REMARK  status: ('A' for Active; 'I' for Inactive)
REMARK    1  A    between atoms: C_1  and  O_2
REMARK    2  A    between atoms: C_1  and  C_4
REMARK    3  A    between atoms: C_1  and  C_11
REMARK    4  A    between atoms: C_4  and  N_7
REMARK    5  A    between atoms: C_11  and  N_14
REMARK                            x       y       z     vdW  Elec       q    Type
REMARK                         _______ _______ _______ _____ _____    ______ ____
ROOT
ATOM      1  C   UNL     1     -36.068  25.848   4.253  0.00  0.00    +0.150 C 
ENDROOT
BRANCH   1   2
ATOM      2  O   UNL     1     -36.437  26.736   5.306  0.00  0.00    -0.381 OA
ATOM      3  H   UNL     1     -35.690  27.320   5.514  0.00  0.00    +0.210 HD
ENDBRANCH   1   2
BRANCH   1   4
ATOM      4  C   UNL     1     -34.543  25.733   4.202  0.00  0.00    +0.128 C 
BRANCH   4   7
ATOM      5  O   UNL     1     -32.532  28.737   4.636  0.00  0.00    -0.433 OA
ATOM      6  O   UNL     1     -32.630  27.000   6.120  0.00  0.00    -0.226 OA
ATOM      7  N   UNL     1     -33.884  27.020   4.149  0.00  0.00    -0.240 N 
ATOM      8  C   UNL     1     -33.947  27.857   2.990  0.00  0.00    +0.144 C 
ATOM      9  C   UNL     1     -33.286  29.123   3.475  0.00  0.00    +0.232 C 
ATOM     10  C   UNL     1     -32.993  27.520   5.074  0.00  0.00    +0.405 C 
ENDBRANCH   4   7
ENDBRANCH   1   4
BRANCH   1  11
ATOM     11  C   UNL     1     -36.752  24.496   4.476  0.00  0.00    +0.129 C 
BRANCH  11  14
ATOM     12  O   UNL     1     -35.147  20.701   5.318  0.00  0.00    -0.123 OA
ATOM     13  O   UNL     1     -34.978  22.799   5.943  0.00  0.00    -0.123 OA
ATOM     14  N   UNL     1     -36.319  23.488   3.506  0.00  0.00    -0.248 N 
ATOM     15  N   UNL     1     -35.400  21.663   2.685  0.00  0.00    -0.207 NA
ATOM     16  N   UNL     1     -35.242  21.935   5.058  0.00  0.00    +0.091 N 
ATOM     17  C   UNL     1     -35.641  22.347   3.781  0.00  0.00    +0.284 C 
ATOM     18  C   UNL     1     -36.531  23.558   2.169  0.00  0.00    +0.089 C 
ATOM     19  C   UNL     1     -35.952  22.412   1.676  0.00  0.00    +0.118 C 
ENDBRANCH  11  14
ENDBRANCH   1  11
TORSDOF 5
ENDMDL
