MODEL 1
REMARK VINA RESULT:      -6.2      0.000      0.000
REMARK  Name = 56641419
REMARK  7 active torsions:
REMARK  status: ('A' for Active; 'I' for Inactive)
REMARK    1  A    between atoms: C_3  and  C_12
REMARK    2  A    between atoms: C_3  and  O_29
REMARK    3  A    between atoms: C_5  and  C_32
REMARK    4  A    between atoms: C_6  and  C_26
REMARK    5  A    between atoms: C_18  and  O_24
REMARK    6  A    between atoms: C_32  and  C_33
REMARK    7  A    between atoms: C_33  and  C_35
REMARK                            x       y       z     vdW  Elec       q    Type
REMARK                         _______ _______ _______ _____ _____    ______ ____
ROOT
ATOM      1  O   UNL     1     -34.991  22.956  -0.164  0.00  0.00    -0.446 OA
ATOM      2  O   UNL     1     -33.029  21.810   0.292  0.00  0.00    -0.250 OA
ATOM      3  C   UNL     1     -36.327  21.884   1.396  0.00  0.00    +0.147 C 
ATOM      4  C   UNL     1     -35.249  20.907   0.888  0.00  0.00    +0.117 C 
ATOM      5  C   UNL     1     -36.370  22.573   0.026  0.00  0.00    +0.212 C 
ATOM      6  C   UNL     1     -36.647  21.449  -1.012  0.00  0.00    +0.065 C 
ATOM      7  C   UNL     1     -35.895  20.255  -0.359  0.00  0.00    +0.021 C 
ATOM      8  C   UNL     1     -34.243  21.903   0.329  0.00  0.00    +0.319 C 
ATOM      9  C   UNL     1     -34.680  19.924   1.885  0.00  0.00    +0.014 C 
ENDROOT
BRANCH   3  12
ATOM     10  O   UNL     1     -36.746  23.285   4.736  0.00  0.00    -0.456 OA
ATOM     11  O   UNL     1     -38.268  23.436   3.008  0.00  0.00    -0.250 OA
ATOM     12  C   UNL     1     -35.944  22.757   2.580  0.00  0.00    +0.119 C 
ATOM     13  C   UNL     1     -34.926  24.945   3.344  0.00  0.00    +0.029 C 
ATOM     14  C   UNL     1     -35.350  22.930   4.833  0.00  0.00    +0.137 C 
ATOM     15  C   UNL     1     -34.444  24.146   4.565  0.00  0.00    +0.039 C 
ATOM     16  C   UNL     1     -35.138  24.016   2.145  0.00  0.00    +0.016 C 
ATOM     17  C   UNL     1     -35.195  21.972   3.655  0.00  0.00    +0.053 C 
ATOM     18  C   UNL     1     -33.917  26.093   3.295  0.00  0.00    +0.088 C 
ATOM     19  C   UNL     1     -37.146  23.181   3.415  0.00  0.00    +0.318 C 
ATOM     20  C   UNL     1     -34.323  25.258   5.599  0.00  0.00    +0.006 C 
ATOM     21  C   UNL     1     -33.763  26.458   4.795  0.00  0.00    +0.027 C 
ATOM     22  C   UNL     1     -35.079  22.264   6.172  0.00  0.00    +0.044 C 
ATOM     23  C   UNL     1     -34.371  27.272   2.445  0.00  0.00    +0.029 C 
BRANCH  18  24
ATOM     24  O   UNL     1     -32.654  25.641   2.811  0.00  0.00    -0.387 OA
ATOM     25  H   UNL     1     -32.060  26.398   2.697  0.00  0.00    +0.210 HD
ENDBRANCH  18  24
ENDBRANCH   3  12
BRANCH   6  26
ATOM     26  C   UNL     1     -38.085  21.130  -1.274  0.00  0.00    -0.040 C 
ATOM     27  C   UNL     1     -38.725  21.857  -2.420  0.00  0.00    +0.026 C 
ATOM     28  C   UNL     1     -38.764  20.246  -0.528  0.00  0.00    -0.009 C 
ENDBRANCH   6  26
BRANCH   3  29
ATOM     29  O   UNL     1     -37.553  21.224   1.692  0.00  0.00    -0.382 OA
ATOM     30  H   UNL     1     -37.594  21.031   2.642  0.00  0.00    +0.210 HD
ENDBRANCH   3  29
BRANCH   5  32
ATOM     31  O   UNL     1     -38.379  23.801   0.340  0.00  0.00    -0.292 OA
ATOM     32  C   UNL     1     -37.226  23.792  -0.091  0.00  0.00    +0.189 C 
BRANCH  32  33
ATOM     33  C   UNL     1     -36.584  25.022  -0.727  0.00  0.00    +0.061 C 
ATOM     34  C   UNL     1     -36.950  25.047  -2.209  0.00  0.00    +0.008 C 
BRANCH  33  35
ATOM     35  C   UNL     1     -37.027  26.321  -0.038  0.00  0.00    +0.007 C 
ATOM     36  C   UNL     1     -36.527  27.565  -0.761  0.00  0.00    +0.000 C 
ENDBRANCH  33  35
ENDBRANCH  32  33
ENDBRANCH   5  32
TORSDOF 7
ENDMDL
MODEL 2
REMARK VINA RESULT:      -5.9      2.429      5.332
REMARK  Name = 56641419
REMARK  7 active torsions:
REMARK  status: ('A' for Active; 'I' for Inactive)
REMARK    1  A    between atoms: C_3  and  C_12
REMARK    2  A    between atoms: C_3  and  O_29
REMARK    3  A    between atoms: C_5  and  C_32
REMARK    4  A    between atoms: C_6  and  C_26
REMARK    5  A    between atoms: C_18  and  O_24
REMARK    6  A    between atoms: C_32  and  C_33
REMARK    7  A    between atoms: C_33  and  C_35
REMARK                            x       y       z     vdW  Elec       q    Type
REMARK                         _______ _______ _______ _____ _____    ______ ____
ROOT
ATOM      1  O   UNL     1     -36.529  28.008   2.078  0.00  0.00    -0.446 OA
ATOM      2  O   UNL     1     -35.110  29.499   3.141  0.00  0.00    -0.250 OA
ATOM      3  C   UNL     1     -34.893  26.672   1.127  0.00  0.00    +0.147 C 
ATOM      4  C   UNL     1     -34.375  28.119   1.230  0.00  0.00    +0.117 C 
ATOM      5  C   UNL     1     -36.323  27.182   0.911  0.00  0.00    +0.212 C 
ATOM      6  C   UNL     1     -36.253  28.159  -0.296  0.00  0.00    +0.065 C 
ATOM      7  C   UNL     1     -34.841  28.777  -0.092  0.00  0.00    +0.021 C 
ATOM      8  C   UNL     1     -35.327  28.658   2.288  0.00  0.00    +0.319 C 
ATOM      9  C   UNL     1     -32.909  28.311   1.542  0.00  0.00    +0.014 C 
ENDROOT
BRANCH   3  12
ATOM     10  O   UNL     1     -33.029  25.423   4.000  0.00  0.00    -0.456 OA
ATOM     11  O   UNL     1     -32.293  25.430   1.814  0.00  0.00    -0.250 OA
ATOM     12  C   UNL     1     -34.667  25.785   2.341  0.00  0.00    +0.119 C 
ATOM     13  C   UNL     1     -35.012  23.502   3.378  0.00  0.00    +0.029 C 
ATOM     14  C   UNL     1     -34.311  25.592   4.642  0.00  0.00    +0.137 C 
ATOM     15  C   UNL     1     -35.082  24.261   4.713  0.00  0.00    +0.039 C 
ATOM     16  C   UNL     1     -35.406  24.421   2.218  0.00  0.00    +0.016 C 
ATOM     17  C   UNL     1     -35.036  26.491   3.645  0.00  0.00    +0.053 C 
ATOM     18  C   UNL     1     -35.800  22.230   3.692  0.00  0.00    +0.088 C 
ATOM     19  C   UNL     1     -33.191  25.545   2.632  0.00  0.00    +0.318 C 
ATOM     20  C   UNL     1     -34.645  23.168   5.680  0.00  0.00    +0.006 C 
ATOM     21  C   UNL     1     -35.310  21.885   5.123  0.00  0.00    +0.027 C 
ATOM     22  C   UNL     1     -34.126  26.250   6.000  0.00  0.00    +0.044 C 
ATOM     23  C   UNL     1     -35.562  21.101   2.699  0.00  0.00    +0.029 C 
BRANCH  18  24
ATOM     24  O   UNL     1     -37.199  22.499   3.750  0.00  0.00    -0.387 OA
ATOM     25  H   UNL     1     -37.508  22.413   4.665  0.00  0.00    +0.210 HD
ENDBRANCH  18  24
ENDBRANCH   3  12
BRANCH   6  26
ATOM     26  C   UNL     1     -36.408  27.548  -1.653  0.00  0.00    -0.040 C 
ATOM     27  C   UNL     1     -37.805  27.488  -2.196  0.00  0.00    +0.026 C 
ATOM     28  C   UNL     1     -35.359  27.079  -2.344  0.00  0.00    -0.009 C 
ENDBRANCH   6  26
BRANCH   3  29
ATOM     29  O   UNL     1     -34.393  26.004  -0.026  0.00  0.00    -0.382 OA
ATOM     30  H   UNL     1     -35.059  26.034  -0.731  0.00  0.00    +0.210 HD
ENDBRANCH   3  29
BRANCH   5  32
ATOM     31  O   UNL     1     -37.272  25.128   0.190  0.00  0.00    -0.292 OA
ATOM     32  C   UNL     1     -37.407  26.154   0.855  0.00  0.00    +0.189 C 
BRANCH  32  33
ATOM     33  C   UNL     1     -38.654  26.427   1.692  0.00  0.00    +0.061 C 
ATOM     34  C   UNL     1     -39.874  26.362   0.776  0.00  0.00    +0.008 C 
BRANCH  33  35
ATOM     35  C   UNL     1     -38.795  25.431   2.852  0.00  0.00    +0.007 C 
ATOM     36  C   UNL     1     -39.907  24.417   2.619  0.00  0.00    +0.000 C 
ENDBRANCH  33  35
ENDBRANCH  32  33
ENDBRANCH   5  32
TORSDOF 7
ENDMDL
MODEL 3
REMARK VINA RESULT:      -5.7      2.245      6.474
REMARK  Name = 56641419
REMARK  7 active torsions:
REMARK  status: ('A' for Active; 'I' for Inactive)
REMARK    1  A    between atoms: C_3  and  C_12
REMARK    2  A    between atoms: C_3  and  O_29
REMARK    3  A    between atoms: C_5  and  C_32
REMARK    4  A    between atoms: C_6  and  C_26
REMARK    5  A    between atoms: C_18  and  O_24
REMARK    6  A    between atoms: C_32  and  C_33
REMARK    7  A    between atoms: C_33  and  C_35
REMARK                            x       y       z     vdW  Elec       q    Type
REMARK                         _______ _______ _______ _____ _____    ______ ____
ROOT
ATOM      1  O   UNL     1     -35.632  24.357   1.194  0.00  0.00    -0.446 OA
ATOM      2  O   UNL     1     -35.053  26.062  -0.265  0.00  0.00    -0.250 OA
ATOM      3  C   UNL     1     -37.020  25.604   2.567  0.00  0.00    +0.147 C 
ATOM      4  C   UNL     1     -35.905  26.509   2.009  0.00  0.00    +0.117 C 
ATOM      5  C   UNL     1     -36.065  24.404   2.570  0.00  0.00    +0.212 C 
ATOM      6  C   UNL     1     -34.823  24.846   3.394  0.00  0.00    +0.065 C 
ATOM      7  C   UNL     1     -34.753  26.356   3.033  0.00  0.00    +0.021 C 
ATOM      8  C   UNL     1     -35.473  25.676   0.811  0.00  0.00    +0.319 C 
ATOM      9  C   UNL     1     -36.270  27.939   1.687  0.00  0.00    +0.014 C 
ENDROOT
BRANCH   3  12
ATOM     10  O   UNL     1     -40.590  25.874   1.880  0.00  0.00    -0.456 OA
ATOM     11  O   UNL     1     -39.634  24.663   3.594  0.00  0.00    -0.250 OA
ATOM     12  C   UNL     1     -38.272  25.469   1.714  0.00  0.00    +0.119 C 
ATOM     13  C   UNL     1     -39.489  24.115  -0.044  0.00  0.00    +0.029 C 
ATOM     14  C   UNL     1     -40.098  26.478   0.664  0.00  0.00    +0.137 C 
ATOM     15  C   UNL     1     -40.073  25.464  -0.494  0.00  0.00    +0.039 C 
ATOM     16  C   UNL     1     -38.150  24.322   0.669  0.00  0.00    +0.016 C 
ATOM     17  C   UNL     1     -38.652  26.786   1.039  0.00  0.00    +0.053 C 
ATOM     18  C   UNL     1     -39.593  23.280  -1.321  0.00  0.00    +0.088 C 
ATOM     19  C   UNL     1     -39.535  25.276   2.544  0.00  0.00    +0.318 C 
ATOM     20  C   UNL     1     -41.371  25.005  -1.145  0.00  0.00    +0.006 C 
ATOM     21  C   UNL     1     -40.985  23.692  -1.870  0.00  0.00    +0.027 C 
ATOM     22  C   UNL     1     -40.902  27.729   0.347  0.00  0.00    +0.044 C 
ATOM     23  C   UNL     1     -39.472  21.781  -1.084  0.00  0.00    +0.029 C 
BRANCH  18  24
ATOM     24  O   UNL     1     -38.603  23.674  -2.268  0.00  0.00    -0.387 OA
ATOM     25  H   UNL     1     -39.025  24.150  -2.999  0.00  0.00    +0.210 HD
ENDBRANCH  18  24
ENDBRANCH   3  12
BRANCH   6  26
ATOM     26  C   UNL     1     -34.895  24.624   4.872  0.00  0.00    -0.040 C 
ATOM     27  C   UNL     1     -35.083  25.850   5.716  0.00  0.00    +0.026 C 
ATOM     28  C   UNL     1     -34.797  23.400   5.412  0.00  0.00    -0.009 C 
ENDBRANCH   6  26
BRANCH   3  29
ATOM     29  O   UNL     1     -37.404  25.975   3.886  0.00  0.00    -0.382 OA
ATOM     30  H   UNL     1     -37.204  26.913   4.029  0.00  0.00    +0.210 HD
ENDBRANCH   3  29
BRANCH   5  32
ATOM     31  O   UNL     1     -37.495  22.978   3.821  0.00  0.00    -0.292 OA
ATOM     32  C   UNL     1     -36.649  23.076   2.934  0.00  0.00    +0.189 C 
BRANCH  32  33
ATOM     33  C   UNL     1     -36.173  21.873   2.123  0.00  0.00    +0.061 C 
ATOM     34  C   UNL     1     -35.273  21.017   3.011  0.00  0.00    +0.008 C 
BRANCH  33  35
ATOM     35  C   UNL     1     -37.348  21.045   1.584  0.00  0.00    +0.007 C 
ATOM     36  C   UNL     1     -36.889  19.841   0.771  0.00  0.00    +0.000 C 
ENDBRANCH  33  35
ENDBRANCH  32  33
ENDBRANCH   5  32
TORSDOF 7
ENDMDL
MODEL 4
REMARK VINA RESULT:      -5.7      1.878      6.301
REMARK  Name = 56641419
REMARK  7 active torsions:
REMARK  status: ('A' for Active; 'I' for Inactive)
REMARK    1  A    between atoms: C_3  and  C_12
REMARK    2  A    between atoms: C_3  and  O_29
REMARK    3  A    between atoms: C_5  and  C_32
REMARK    4  A    between atoms: C_6  and  C_26
REMARK    5  A    between atoms: C_18  and  O_24
REMARK    6  A    between atoms: C_32  and  C_33
REMARK    7  A    between atoms: C_33  and  C_35
REMARK                            x       y       z     vdW  Elec       q    Type
REMARK                         _______ _______ _______ _____ _____    ______ ____
ROOT
ATOM      1  O   UNL     1     -34.980  24.191   1.489  0.00  0.00    -0.446 OA
ATOM      2  O   UNL     1     -33.658  25.663   0.283  0.00  0.00    -0.250 OA
ATOM      3  C   UNL     1     -36.258  25.778   2.591  0.00  0.00    +0.147 C 
ATOM      4  C   UNL     1     -34.847  26.343   2.337  0.00  0.00    +0.117 C 
ATOM      5  C   UNL     1     -35.682  24.364   2.738  0.00  0.00    +0.212 C 
ATOM      6  C   UNL     1     -34.583  24.460   3.835  0.00  0.00    +0.065 C 
ATOM      7  C   UNL     1     -34.036  25.892   3.578  0.00  0.00    +0.021 C 
ATOM      8  C   UNL     1     -34.395  25.414   1.219  0.00  0.00    +0.319 C 
ATOM      9  C   UNL     1     -34.738  27.816   2.019  0.00  0.00    +0.014 C 
ENDROOT
BRANCH   3  12
ATOM     10  O   UNL     1     -39.324  27.099   1.125  0.00  0.00    -0.456 OA
ATOM     11  O   UNL     1     -39.190  25.774   3.009  0.00  0.00    -0.250 OA
ATOM     12  C   UNL     1     -37.277  25.980   1.480  0.00  0.00    +0.119 C 
ATOM     13  C   UNL     1     -38.463  24.952  -0.505  0.00  0.00    +0.029 C 
ATOM     14  C   UNL     1     -38.419  27.431   0.050  0.00  0.00    +0.137 C 
ATOM     15  C   UNL     1     -38.475  26.380  -1.074  0.00  0.00    +0.039 C 
ATOM     16  C   UNL     1     -37.310  24.781   0.488  0.00  0.00    +0.016 C 
ATOM     17  C   UNL     1     -37.064  27.298   0.737  0.00  0.00    +0.053 C 
ATOM     18  C   UNL     1     -38.556  24.102  -1.773  0.00  0.00    +0.088 C 
ATOM     19  C   UNL     1     -38.680  26.250   2.008  0.00  0.00    +0.318 C 
ATOM     20  C   UNL     1     -39.684  26.304  -1.998  0.00  0.00    +0.006 C 
ATOM     21  C   UNL     1     -39.594  24.887  -2.618  0.00  0.00    +0.027 C 
ATOM     22  C   UNL     1     -38.694  28.844  -0.438  0.00  0.00    +0.044 C 
ATOM     23  C   UNL     1     -38.974  22.661  -1.516  0.00  0.00    +0.029 C 
BRANCH  18  24
ATOM     24  O   UNL     1     -37.316  24.099  -2.476  0.00  0.00    -0.387 OA
ATOM     25  H   UNL     1     -36.611  24.421  -1.893  0.00  0.00    +0.210 HD
ENDBRANCH  18  24
ENDBRANCH   3  12
BRANCH   6  26
ATOM     26  C   UNL     1     -35.041  24.279   5.248  0.00  0.00    -0.040 C 
ATOM     27  C   UNL     1     -35.325  25.535   6.017  0.00  0.00    +0.026 C 
ATOM     28  C   UNL     1     -35.187  23.063   5.796  0.00  0.00    -0.009 C 
ENDBRANCH   6  26
BRANCH   3  29
ATOM     29  O   UNL     1     -36.814  26.250   3.813  0.00  0.00    -0.382 OA
ATOM     30  H   UNL     1     -36.475  25.717   4.549  0.00  0.00    +0.210 HD
ENDBRANCH   3  29
BRANCH   5  32
ATOM     31  O   UNL     1     -37.663  23.377   3.600  0.00  0.00    -0.292 OA
ATOM     32  C   UNL     1     -36.663  23.247   2.895  0.00  0.00    +0.189 C 
BRANCH  32  33
ATOM     33  C   UNL     1     -36.379  21.970   2.110  0.00  0.00    +0.061 C 
ATOM     34  C   UNL     1     -35.563  21.029   2.993  0.00  0.00    +0.008 C 
BRANCH  33  35
ATOM     35  C   UNL     1     -37.672  21.286   1.641  0.00  0.00    +0.007 C 
ATOM     36  C   UNL     1     -37.410  20.158   0.652  0.00  0.00    +0.000 C 
ENDBRANCH  33  35
ENDBRANCH  32  33
ENDBRANCH   5  32
TORSDOF 7
ENDMDL
MODEL 5
REMARK VINA RESULT:      -5.5      2.363      6.354
REMARK  Name = 56641419
REMARK  7 active torsions:
REMARK  status: ('A' for Active; 'I' for Inactive)
REMARK    1  A    between atoms: C_3  and  C_12
REMARK    2  A    between atoms: C_3  and  O_29
REMARK    3  A    between atoms: C_5  and  C_32
REMARK    4  A    between atoms: C_6  and  C_26
REMARK    5  A    between atoms: C_18  and  O_24
REMARK    6  A    between atoms: C_32  and  C_33
REMARK    7  A    between atoms: C_33  and  C_35
REMARK                            x       y       z     vdW  Elec       q    Type
REMARK                         _______ _______ _______ _____ _____    ______ ____
ROOT
ATOM      1  O   UNL     1     -34.878  24.003   1.559  0.00  0.00    -0.446 OA
ATOM      2  O   UNL     1     -33.558  25.351   0.215  0.00  0.00    -0.250 OA
ATOM      3  C   UNL     1     -36.112  25.694   2.552  0.00  0.00    +0.147 C 
ATOM      4  C   UNL     1     -34.698  26.214   2.228  0.00  0.00    +0.117 C 
ATOM      5  C   UNL     1     -35.554  24.288   2.803  0.00  0.00    +0.212 C 
ATOM      6  C   UNL     1     -34.434  24.454   3.868  0.00  0.00    +0.065 C 
ATOM      7  C   UNL     1     -33.871  25.852   3.487  0.00  0.00    +0.021 C 
ATOM      8  C   UNL     1     -34.281  25.191   1.182  0.00  0.00    +0.319 C 
ATOM      9  C   UNL     1     -34.573  27.654   1.790  0.00  0.00    +0.014 C 
ENDROOT
BRANCH   3  12
ATOM     10  O   UNL     1     -37.562  27.151  -0.459  0.00  0.00    -0.456 OA
ATOM     11  O   UNL     1     -37.103  28.279   1.500  0.00  0.00    -0.250 OA
ATOM     12  C   UNL     1     -37.148  25.822   1.446  0.00  0.00    +0.119 C 
ATOM     13  C   UNL     1     -39.595  25.655   0.821  0.00  0.00    +0.029 C 
ATOM     14  C   UNL     1     -37.667  25.759  -0.831  0.00  0.00    +0.137 C 
ATOM     15  C   UNL     1     -39.080  25.212  -0.558  0.00  0.00    +0.039 C 
ATOM     16  C   UNL     1     -38.558  25.348   1.905  0.00  0.00    +0.016 C 
ATOM     17  C   UNL     1     -36.719  25.104   0.169  0.00  0.00    +0.053 C 
ATOM     18  C   UNL     1     -40.993  25.035   0.854  0.00  0.00    +0.088 C 
ATOM     19  C   UNL     1     -37.240  27.235   0.884  0.00  0.00    +0.318 C 
ATOM     20  C   UNL     1     -40.250  25.626  -1.441  0.00  0.00    +0.006 C 
ATOM     21  C   UNL     1     -41.500  25.292  -0.589  0.00  0.00    +0.027 C 
ATOM     22  C   UNL     1     -37.221  25.575  -2.272  0.00  0.00    +0.044 C 
ATOM     23  C   UNL     1     -41.904  25.636   1.916  0.00  0.00    +0.029 C 
BRANCH  18  24
ATOM     24  O   UNL     1     -40.919  23.626   1.060  0.00  0.00    -0.387 OA
ATOM     25  H   UNL     1     -41.240  23.411   1.949  0.00  0.00    +0.210 HD
ENDBRANCH  18  24
ENDBRANCH   3  12
BRANCH   6  26
ATOM     26  C   UNL     1     -34.867  24.395   5.300  0.00  0.00    -0.040 C 
ATOM     27  C   UNL     1     -34.946  23.027   5.910  0.00  0.00    +0.026 C 
ATOM     28  C   UNL     1     -35.168  25.500   5.997  0.00  0.00    -0.009 C 
ENDBRANCH   6  26
BRANCH   3  29
ATOM     29  O   UNL     1     -36.638  26.272   3.741  0.00  0.00    -0.382 OA
ATOM     30  H   UNL     1     -36.194  27.117   3.913  0.00  0.00    +0.210 HD
ENDBRANCH   3  29
BRANCH   5  32
ATOM     31  O   UNL     1     -37.437  23.350   3.905  0.00  0.00    -0.292 OA
ATOM     32  C   UNL     1     -36.548  23.203   3.067  0.00  0.00    +0.189 C 
BRANCH  32  33
ATOM     33  C   UNL     1     -36.424  21.939   2.221  0.00  0.00    +0.061 C 
ATOM     34  C   UNL     1     -35.603  20.914   3.000  0.00  0.00    +0.008 C 
BRANCH  33  35
ATOM     35  C   UNL     1     -37.798  21.362   1.849  0.00  0.00    +0.007 C 
ATOM     36  C   UNL     1     -38.188  21.669   0.409  0.00  0.00    +0.000 C 
ENDBRANCH  33  35
ENDBRANCH  32  33
ENDBRANCH   5  32
TORSDOF 7
ENDMDL
MODEL 6
REMARK VINA RESULT:      -5.5      1.728      5.299
REMARK  Name = 56641419
REMARK  7 active torsions:
REMARK  status: ('A' for Active; 'I' for Inactive)
REMARK    1  A    between atoms: C_3  and  C_12
REMARK    2  A    between atoms: C_3  and  O_29
REMARK    3  A    between atoms: C_5  and  C_32
REMARK    4  A    between atoms: C_6  and  C_26
REMARK    5  A    between atoms: C_18  and  O_24
REMARK    6  A    between atoms: C_32  and  C_33
REMARK    7  A    between atoms: C_33  and  C_35
REMARK                            x       y       z     vdW  Elec       q    Type
REMARK                         _______ _______ _______ _____ _____    ______ ____
ROOT
ATOM      1  O   UNL     1     -36.786  25.766   0.422  0.00  0.00    -0.446 OA
ATOM      2  O   UNL     1     -38.095  27.114   1.778  0.00  0.00    -0.250 OA
ATOM      3  C   UNL     1     -34.730  26.642   1.034  0.00  0.00    +0.147 C 
ATOM      4  C   UNL     1     -35.802  27.746   1.117  0.00  0.00    +0.117 C 
ATOM      5  C   UNL     1     -35.473  25.987  -0.137  0.00  0.00    +0.212 C 
ATOM      6  C   UNL     1     -35.648  27.098  -1.210  0.00  0.00    +0.065 C 
ATOM      7  C   UNL     1     -35.823  28.352  -0.309  0.00  0.00    +0.021 C 
ATOM      8  C   UNL     1     -37.054  26.884   1.191  0.00  0.00    +0.319 C 
ATOM      9  C   UNL     1     -35.667  28.762   2.227  0.00  0.00    +0.014 C 
ENDROOT
BRANCH   3  12
ATOM     10  O   UNL     1     -32.924  25.419   3.955  0.00  0.00    -0.456 OA
ATOM     11  O   UNL     1     -32.182  25.327   1.773  0.00  0.00    -0.250 OA
ATOM     12  C   UNL     1     -34.542  25.789   2.278  0.00  0.00    +0.119 C 
ATOM     13  C   UNL     1     -34.977  23.556   3.388  0.00  0.00    +0.029 C 
ATOM     14  C   UNL     1     -34.201  25.659   4.586  0.00  0.00    +0.137 C 
ATOM     15  C   UNL     1     -35.022  24.361   4.697  0.00  0.00    +0.039 C 
ATOM     16  C   UNL     1     -35.332  24.450   2.197  0.00  0.00    +0.016 C 
ATOM     17  C   UNL     1     -34.888  26.551   3.556  0.00  0.00    +0.053 C 
ATOM     18  C   UNL     1     -35.814  22.326   3.740  0.00  0.00    +0.088 C 
ATOM     19  C   UNL     1     -33.077  25.502   2.583  0.00  0.00    +0.318 C 
ATOM     20  C   UNL     1     -34.629  23.285   5.702  0.00  0.00    +0.006 C 
ATOM     21  C   UNL     1     -35.342  22.010   5.185  0.00  0.00    +0.027 C 
ATOM     22  C   UNL     1     -33.995  26.354   5.922  0.00  0.00    +0.044 C 
ATOM     23  C   UNL     1     -35.616  21.156   2.786  0.00  0.00    +0.029 C 
BRANCH  18  24
ATOM     24  O   UNL     1     -37.202  22.650   3.784  0.00  0.00    -0.387 OA
ATOM     25  H   UNL     1     -37.727  21.839   3.704  0.00  0.00    +0.210 HD
ENDBRANCH  18  24
ENDBRANCH   3  12
BRANCH   6  26
ATOM     26  C   UNL     1     -34.525  27.259  -2.186  0.00  0.00    -0.040 C 
ATOM     27  C   UNL     1     -34.649  26.494  -3.470  0.00  0.00    +0.026 C 
ATOM     28  C   UNL     1     -33.467  28.043  -1.927  0.00  0.00    -0.009 C 
ENDBRANCH   6  26
BRANCH   3  29
ATOM     29  O   UNL     1     -33.463  27.153   0.634  0.00  0.00    -0.382 OA
ATOM     30  H   UNL     1     -33.044  27.601   1.386  0.00  0.00    +0.210 HD
ENDBRANCH   3  29
BRANCH   5  32
ATOM     31  O   UNL     1     -33.728  24.507  -0.775  0.00  0.00    -0.292 OA
ATOM     32  C   UNL     1     -34.938  24.682  -0.632  0.00  0.00    +0.189 C 
BRANCH  32  33
ATOM     33  C   UNL     1     -35.959  23.581  -0.904  0.00  0.00    +0.061 C 
ATOM     34  C   UNL     1     -36.496  23.759  -2.323  0.00  0.00    +0.008 C 
BRANCH  33  35
ATOM     35  C   UNL     1     -35.354  22.181  -0.726  0.00  0.00    +0.007 C 
ATOM     36  C   UNL     1     -36.383  21.073  -0.908  0.00  0.00    +0.000 C 
ENDBRANCH  33  35
ENDBRANCH  32  33
ENDBRANCH   5  32
TORSDOF 7
ENDMDL
MODEL 7
REMARK VINA RESULT:      -5.5      1.971      5.265
REMARK  Name = 56641419
REMARK  7 active torsions:
REMARK  status: ('A' for Active; 'I' for Inactive)
REMARK    1  A    between atoms: C_3  and  C_12
REMARK    2  A    between atoms: C_3  and  O_29
REMARK    3  A    between atoms: C_5  and  C_32
REMARK    4  A    between atoms: C_6  and  C_26
REMARK    5  A    between atoms: C_18  and  O_24
REMARK    6  A    between atoms: C_32  and  C_33
REMARK    7  A    between atoms: C_33  and  C_35
REMARK                            x       y       z     vdW  Elec       q    Type
REMARK                         _______ _______ _______ _____ _____    ______ ____
ROOT
ATOM      1  O   UNL     1     -37.712  24.366   3.560  0.00  0.00    -0.446 OA
ATOM      2  O   UNL     1     -39.940  24.981   3.399  0.00  0.00    -0.250 OA
ATOM      3  C   UNL     1     -37.326  24.059   1.296  0.00  0.00    +0.147 C 
ATOM      4  C   UNL     1     -38.793  23.713   1.618  0.00  0.00    +0.117 C 
ATOM      5  C   UNL     1     -36.891  23.566   2.682  0.00  0.00    +0.212 C 
ATOM      6  C   UNL     1     -37.423  22.111   2.808  0.00  0.00    +0.065 C 
ATOM      7  C   UNL     1     -38.747  22.212   1.998  0.00  0.00    +0.021 C 
ATOM      8  C   UNL     1     -38.947  24.445   2.943  0.00  0.00    +0.319 C 
ATOM      9  C   UNL     1     -39.831  24.063   0.577  0.00  0.00    +0.014 C 
ENDROOT
BRANCH   3  12
ATOM     10  O   UNL     1     -37.064  26.968  -0.886  0.00  0.00    -0.456 OA
ATOM     11  O   UNL     1     -35.951  24.966  -1.165  0.00  0.00    -0.250 OA
ATOM     12  C   UNL     1     -37.032  25.515   0.974  0.00  0.00    +0.119 C 
ATOM     13  C   UNL     1     -35.573  27.527   1.453  0.00  0.00    +0.029 C 
ATOM     14  C   UNL     1     -37.783  27.588   0.201  0.00  0.00    +0.137 C 
ATOM     15  C   UNL     1     -36.830  28.353   1.139  0.00  0.00    +0.039 C 
ATOM     16  C   UNL     1     -35.958  26.122   1.924  0.00  0.00    +0.016 C 
ATOM     17  C   UNL     1     -38.297  26.370   0.963  0.00  0.00    +0.053 C 
ATOM     18  C   UNL     1     -34.781  28.480   2.350  0.00  0.00    +0.088 C 
ATOM     19  C   UNL     1     -36.612  25.726  -0.476  0.00  0.00    +0.318 C 
ATOM     20  C   UNL     1     -36.200  29.666   0.691  0.00  0.00    +0.006 C 
ATOM     21  C   UNL     1     -34.992  29.846   1.644  0.00  0.00    +0.027 C 
ATOM     22  C   UNL     1     -38.905  28.454  -0.349  0.00  0.00    +0.044 C 
ATOM     23  C   UNL     1     -33.311  28.110   2.491  0.00  0.00    +0.029 C 
BRANCH  18  24
ATOM     24  O   UNL     1     -35.360  28.554   3.651  0.00  0.00    -0.387 OA
ATOM     25  H   UNL     1     -36.052  27.880   3.736  0.00  0.00    +0.210 HD
ENDBRANCH  18  24
ENDBRANCH   3  12
BRANCH   6  26
ATOM     26  C   UNL     1     -36.528  21.031   2.287  0.00  0.00    -0.040 C 
ATOM     27  C   UNL     1     -36.957  20.376   1.008  0.00  0.00    +0.026 C 
ATOM     28  C   UNL     1     -35.406  20.669   2.928  0.00  0.00    -0.009 C 
ENDBRANCH   6  26
BRANCH   3  29
ATOM     29  O   UNL     1     -36.797  23.244   0.257  0.00  0.00    -0.382 OA
ATOM     30  H   UNL     1     -36.918  23.690  -0.596  0.00  0.00    +0.210 HD
ENDBRANCH   3  29
BRANCH   5  32
ATOM     31  O   UNL     1     -34.561  23.617   2.222  0.00  0.00    -0.292 OA
ATOM     32  C   UNL     1     -35.457  23.769   3.052  0.00  0.00    +0.189 C 
BRANCH  32  33
ATOM     33  C   UNL     1     -35.174  24.211   4.485  0.00  0.00    +0.061 C 
ATOM     34  C   UNL     1     -35.006  22.964   5.351  0.00  0.00    +0.008 C 
BRANCH  33  35
ATOM     35  C   UNL     1     -33.928  25.104   4.574  0.00  0.00    +0.007 C 
ATOM     36  C   UNL     1     -33.996  26.085   5.738  0.00  0.00    +0.000 C 
ENDBRANCH  33  35
ENDBRANCH  32  33
ENDBRANCH   5  32
TORSDOF 7
ENDMDL
MODEL 8
REMARK VINA RESULT:      -5.4      9.683     12.008
REMARK  Name = 56641419
REMARK  7 active torsions:
REMARK  status: ('A' for Active; 'I' for Inactive)
REMARK    1  A    between atoms: C_3  and  C_12
REMARK    2  A    between atoms: C_3  and  O_29
REMARK    3  A    between atoms: C_5  and  C_32
REMARK    4  A    between atoms: C_6  and  C_26
REMARK    5  A    between atoms: C_18  and  O_24
REMARK    6  A    between atoms: C_32  and  C_33
REMARK    7  A    between atoms: C_33  and  C_35
REMARK                            x       y       z     vdW  Elec       q    Type
REMARK                         _______ _______ _______ _____ _____    ______ ____
ROOT
ATOM      1  O   UNL     1     -45.998  28.242   2.035  0.00  0.00    -0.446 OA
ATOM      2  O   UNL     1     -46.841  29.954   0.721  0.00  0.00    -0.250 OA
ATOM      3  C   UNL     1     -43.993  29.260   2.594  0.00  0.00    +0.147 C 
ATOM      4  C   UNL     1     -44.428  29.722   1.190  0.00  0.00    +0.117 C 
ATOM      5  C   UNL     1     -44.636  27.888   2.358  0.00  0.00    +0.212 C 
ATOM      6  C   UNL     1     -44.014  27.342   1.042  0.00  0.00    +0.065 C 
ATOM      7  C   UNL     1     -43.816  28.660   0.242  0.00  0.00    +0.021 C 
ATOM      8  C   UNL     1     -45.909  29.379   1.253  0.00  0.00    +0.319 C 
ATOM      9  C   UNL     1     -44.126  31.152   0.806  0.00  0.00    +0.014 C 
ENDROOT
BRANCH   3  12
ATOM     10  O   UNL     1     -43.716  31.442   5.501  0.00  0.00    -0.456 OA
ATOM     11  O   UNL     1     -42.691  29.390   5.251  0.00  0.00    -0.250 OA
ATOM     12  C   UNL     1     -44.530  30.066   3.766  0.00  0.00    +0.119 C 
ATOM     13  C   UNL     1     -46.263  30.213   5.606  0.00  0.00    +0.029 C 
ATOM     14  C   UNL     1     -44.790  32.131   4.826  0.00  0.00    +0.137 C 
ATOM     15  C   UNL     1     -46.161  31.733   5.404  0.00  0.00    +0.039 C 
ATOM     16  C   UNL     1     -45.856  29.474   4.328  0.00  0.00    +0.016 C 
ATOM     17  C   UNL     1     -44.695  31.545   3.421  0.00  0.00    +0.053 C 
ATOM     18  C   UNL     1     -47.662  30.063   6.203  0.00  0.00    +0.088 C 
ATOM     19  C   UNL     1     -43.517  30.215   4.894  0.00  0.00    +0.318 C 
ATOM     20  C   UNL     1     -46.591  32.229   6.778  0.00  0.00    +0.006 C 
ATOM     21  C   UNL     1     -47.728  31.261   7.188  0.00  0.00    +0.027 C 
ATOM     22  C   UNL     1     -44.540  33.631   4.855  0.00  0.00    +0.044 C 
ATOM     23  C   UNL     1     -47.896  28.723   6.888  0.00  0.00    +0.029 C 
BRANCH  18  24
ATOM     24  O   UNL     1     -48.664  30.247   5.205  0.00  0.00    -0.387 OA
ATOM     25  H   UNL     1     -48.247  30.521   4.374  0.00  0.00    +0.210 HD
ENDBRANCH  18  24
ENDBRANCH   3  12
BRANCH   6  26
ATOM     26  C   UNL     1     -42.738  26.573   1.182  0.00  0.00    -0.040 C 
ATOM     27  C   UNL     1     -42.867  25.079   1.222  0.00  0.00    +0.026 C 
ATOM     28  C   UNL     1     -41.547  27.184   1.267  0.00  0.00    -0.009 C 
ENDBRANCH   6  26
BRANCH   3  29
ATOM     29  O   UNL     1     -42.578  29.165   2.714  0.00  0.00    -0.382 OA
ATOM     30  H   UNL     1     -42.163  29.887   2.217  0.00  0.00    +0.210 HD
ENDBRANCH   3  29
BRANCH   5  32
ATOM     31  O   UNL     1     -43.654  26.791   4.222  0.00  0.00    -0.292 OA
ATOM     32  C   UNL     1     -44.649  26.940   3.514  0.00  0.00    +0.189 C 
BRANCH  32  33
ATOM     33  C   UNL     1     -45.962  26.211   3.788  0.00  0.00    +0.061 C 
ATOM     34  C   UNL     1     -45.949  24.888   3.025  0.00  0.00    +0.008 C 
BRANCH  33  35
ATOM     35  C   UNL     1     -46.181  25.968   5.288  0.00  0.00    +0.007 C 
ATOM     36  C   UNL     1     -47.423  25.133   5.569  0.00  0.00    +0.000 C 
ENDBRANCH  33  35
ENDBRANCH  32  33
ENDBRANCH   5  32
TORSDOF 7
ENDMDL
MODEL 9
REMARK VINA RESULT:      -5.4      1.704      2.694
REMARK  Name = 56641419
REMARK  7 active torsions:
REMARK  status: ('A' for Active; 'I' for Inactive)
REMARK    1  A    between atoms: C_3  and  C_12
REMARK    2  A    between atoms: C_3  and  O_29
REMARK    3  A    between atoms: C_5  and  C_32
REMARK    4  A    between atoms: C_6  and  C_26
REMARK    5  A    between atoms: C_18  and  O_24
REMARK    6  A    between atoms: C_32  and  C_33
REMARK    7  A    between atoms: C_33  and  C_35
REMARK                            x       y       z     vdW  Elec       q    Type
REMARK                         _______ _______ _______ _____ _____    ______ ____
ROOT
ATOM      1  O   UNL     1     -35.048  22.045   0.976  0.00  0.00    -0.446 OA
ATOM      2  O   UNL     1     -35.992  20.371   2.270  0.00  0.00    -0.250 OA
ATOM      3  C   UNL     1     -36.697  23.638   1.307  0.00  0.00    +0.147 C 
ATOM      4  C   UNL     1     -37.327  22.233   1.350  0.00  0.00    +0.117 C 
ATOM      5  C   UNL     1     -35.658  23.158   0.287  0.00  0.00    +0.212 C 
ATOM      6  C   UNL     1     -36.464  22.541  -0.890  0.00  0.00    +0.065 C 
ATOM      7  C   UNL     1     -37.678  21.936  -0.129  0.00  0.00    +0.021 C 
ATOM      8  C   UNL     1     -36.083  21.401   1.629  0.00  0.00    +0.319 C 
ATOM      9  C   UNL     1     -38.465  22.013   2.319  0.00  0.00    +0.014 C 
ENDROOT
BRANCH   3  12
ATOM     10  O   UNL     1     -36.828  24.375   4.876  0.00  0.00    -0.456 OA
ATOM     11  O   UNL     1     -38.323  25.125   3.286  0.00  0.00    -0.250 OA
ATOM     12  C   UNL     1     -36.156  24.176   2.623  0.00  0.00    +0.119 C 
ATOM     13  C   UNL     1     -34.769  25.963   3.758  0.00  0.00    +0.029 C 
ATOM     14  C   UNL     1     -35.511  23.784   4.834  0.00  0.00    +0.137 C 
ATOM     15  C   UNL     1     -34.415  24.863   4.771  0.00  0.00    +0.039 C 
ATOM     16  C   UNL     1     -35.152  25.347   2.410  0.00  0.00    +0.016 C 
ATOM     17  C   UNL     1     -35.537  23.075   3.483  0.00  0.00    +0.053 C 
ATOM     18  C   UNL     1     -33.580  26.915   3.891  0.00  0.00    +0.088 C 
ATOM     19  C   UNL     1     -37.256  24.611   3.581  0.00  0.00    +0.318 C 
ATOM     20  C   UNL     1     -34.092  25.705   5.999  0.00  0.00    +0.006 C 
ATOM     21  C   UNL     1     -33.346  26.935   5.426  0.00  0.00    +0.027 C 
ATOM     22  C   UNL     1     -35.340  22.822   5.998  0.00  0.00    +0.044 C 
ATOM     23  C   UNL     1     -33.837  28.301   3.316  0.00  0.00    +0.029 C 
BRANCH  18  24
ATOM     24  O   UNL     1     -32.419  26.370   3.268  0.00  0.00    -0.387 OA
ATOM     25  H   UNL     1     -31.711  27.032   3.266  0.00  0.00    +0.210 HD
ENDBRANCH  18  24
ENDBRANCH   3  12
BRANCH   6  26
ATOM     26  C   UNL     1     -36.891  23.487  -1.968  0.00  0.00    -0.040 C 
ATOM     27  C   UNL     1     -35.964  23.615  -3.140  0.00  0.00    +0.026 C 
ATOM     28  C   UNL     1     -38.037  24.180  -1.891  0.00  0.00    -0.009 C 
ENDBRANCH   6  26
BRANCH   3  29
ATOM     29  O   UNL     1     -37.578  24.605   0.747  0.00  0.00    -0.382 OA
ATOM     30  H   UNL     1     -38.127  24.185   0.066  0.00  0.00    +0.210 HD
ENDBRANCH   3  29
BRANCH   5  32
ATOM     31  O   UNL     1     -34.866  25.278  -0.434  0.00  0.00    -0.292 OA
ATOM     32  C   UNL     1     -34.587  24.128  -0.095  0.00  0.00    +0.189 C 
BRANCH  32  33
ATOM     33  C   UNL     1     -33.146  23.632  -0.002  0.00  0.00    +0.061 C 
ATOM     34  C   UNL     1     -32.797  22.914  -1.303  0.00  0.00    +0.008 C 
BRANCH  33  35
ATOM     35  C   UNL     1     -32.162  24.780   0.265  0.00  0.00    +0.007 C 
ATOM     36  C   UNL     1     -31.250  25.055  -0.924  0.00  0.00    +0.000 C 
ENDBRANCH  33  35
ENDBRANCH  32  33
ENDBRANCH   5  32
TORSDOF 7
ENDMDL
