MODEL 1
REMARK VINA RESULT:      -5.8      0.000      0.000
REMARK  Name = 210905
REMARK  8 active torsions:
REMARK  status: ('A' for Active; 'I' for Inactive)
REMARK    1  A    between atoms: C_2  and  C_10
REMARK    2  A    between atoms: C_3  and  C_20
REMARK    3  A    between atoms: C_4  and  C_25
REMARK    4  A    between atoms: C_15  and  N_18
REMARK    5  A    between atoms: C_20  and  O_21
REMARK    6  A    between atoms: O_21  and  C_22
REMARK    7  A    between atoms: C_25  and  O_26
REMARK    8  A    between atoms: O_26  and  C_27
REMARK                            x       y       z     vdW  Elec       q    Type
REMARK                         _______ _______ _______ _____ _____    ______ ____
ROOT
ATOM      1  N   UNL     1     -35.547  21.393   4.091  0.00  0.00    -0.334 N 
ATOM      2  C   UNL     1     -34.770  23.839   2.894  0.00  0.00    +0.011 C 
ATOM      3  C   UNL     1     -35.040  23.684   4.394  0.00  0.00    +0.071 C 
ATOM      4  C   UNL     1     -35.129  22.585   2.088  0.00  0.00    +0.085 C 
ATOM      5  C   UNL     1     -35.382  22.488   4.924  0.00  0.00    +0.098 C 
ATOM      6  C   UNL     1     -35.479  21.432   2.707  0.00  0.00    +0.028 C 
ATOM      7  C   UNL     1     -35.616  22.215   6.385  0.00  0.00    +0.026 C 
ATOM      8  C   UNL     1     -35.808  20.136   2.018  0.00  0.00    +0.047 C 
ATOM      9  H   UNL     1     -35.728  20.523   4.513  0.00  0.00    +0.147 HD
ENDROOT
BRANCH   2  10
ATOM     10  C   UNL     1     -35.523  25.023   2.359  0.00  0.00    +0.000 C 
ATOM     11  C   UNL     1     -36.911  25.032   2.403  0.00  0.00    +0.002 C 
ATOM     12  C   UNL     1     -34.823  26.097   1.823  0.00  0.00    +0.002 C 
ATOM     13  C   UNL     1     -37.611  26.131   1.905  0.00  0.00    +0.024 C 
ATOM     14  C   UNL     1     -35.521  27.197   1.325  0.00  0.00    +0.024 C 
ATOM     15  C   UNL     1     -36.915  27.213   1.366  0.00  0.00    +0.143 C 
BRANCH  15  18
ATOM     16  O   UNL     1     -37.082  29.463   0.885  0.00  0.00    -0.126 OA
ATOM     17  O   UNL     1     -38.781  28.161   0.395  0.00  0.00    -0.126 OA
ATOM     18  N   UNL     1     -37.627  28.333   0.858  0.00  0.00    +0.058 N 
ENDBRANCH  15  18
ENDBRANCH   2  10
BRANCH   3  20
ATOM     19  O   UNL     1     -35.918  25.437   5.726  0.00  0.00    -0.245 OA
ATOM     20  C   UNL     1     -34.952  24.906   5.209  0.00  0.00    +0.339 C 
BRANCH  20  21
ATOM     21  O   UNL     1     -33.655  25.293   5.263  0.00  0.00    -0.446 OA
BRANCH  21  22
ATOM     22  C   UNL     1     -33.446  26.706   5.360  0.00  0.00    +0.209 C 
ATOM     23  C   UNL     1     -32.856  27.025   6.717  0.00  0.00    +0.051 C 
ENDBRANCH  21  22
ENDBRANCH  20  21
ENDBRANCH   3  20
BRANCH   4  25
ATOM     24  O   UNL     1     -36.146  22.790  -0.042  0.00  0.00    -0.245 OA
ATOM     25  C   UNL     1     -35.130  22.721   0.622  0.00  0.00    +0.342 C 
BRANCH  25  26
ATOM     26  O   UNL     1     -33.844  22.753   0.196  0.00  0.00    -0.445 OA
BRANCH  26  27
ATOM     27  C   UNL     1     -33.466  21.678  -0.672  0.00  0.00    +0.209 C 
ATOM     28  C   UNL     1     -32.561  20.729   0.084  0.00  0.00    +0.051 C 
ENDBRANCH  26  27
ENDBRANCH  25  26
ENDBRANCH   4  25
TORSDOF 8
ENDMDL
MODEL 2
REMARK VINA RESULT:      -5.5      3.104      4.707
REMARK  Name = 210905
REMARK  8 active torsions:
REMARK  status: ('A' for Active; 'I' for Inactive)
REMARK    1  A    between atoms: C_2  and  C_10
REMARK    2  A    between atoms: C_3  and  C_20
REMARK    3  A    between atoms: C_4  and  C_25
REMARK    4  A    between atoms: C_15  and  N_18
REMARK    5  A    between atoms: C_20  and  O_21
REMARK    6  A    between atoms: O_21  and  C_22
REMARK    7  A    between atoms: C_25  and  O_26
REMARK    8  A    between atoms: O_26  and  C_27
REMARK                            x       y       z     vdW  Elec       q    Type
REMARK                         _______ _______ _______ _____ _____    ______ ____
ROOT
ATOM      1  N   UNL     1     -35.525  23.694   5.261  0.00  0.00    -0.334 N 
ATOM      2  C   UNL     1     -36.158  23.449   2.513  0.00  0.00    +0.011 C 
ATOM      3  C   UNL     1     -36.423  24.719   3.327  0.00  0.00    +0.071 C 
ATOM      4  C   UNL     1     -35.677  22.275   3.373  0.00  0.00    +0.085 C 
ATOM      5  C   UNL     1     -36.078  24.798   4.633  0.00  0.00    +0.098 C 
ATOM      6  C   UNL     1     -35.370  22.444   4.680  0.00  0.00    +0.028 C 
ATOM      7  C   UNL     1     -36.244  26.010   5.508  0.00  0.00    +0.026 C 
ATOM      8  C   UNL     1     -34.852  21.375   5.602  0.00  0.00    +0.047 C 
ATOM      9  H   UNL     1     -35.221  23.804   6.191  0.00  0.00    +0.147 HD
ENDROOT
BRANCH   2  10
ATOM     10  C   UNL     1     -37.396  23.057   1.759  0.00  0.00    +0.000 C 
ATOM     11  C   UNL     1     -37.423  23.175   0.375  0.00  0.00    +0.002 C 
ATOM     12  C   UNL     1     -38.502  22.581   2.453  0.00  0.00    +0.002 C 
ATOM     13  C   UNL     1     -38.574  22.812  -0.326  0.00  0.00    +0.024 C 
ATOM     14  C   UNL     1     -39.652  22.217   1.753  0.00  0.00    +0.024 C 
ATOM     15  C   UNL     1     -39.688  22.333   0.363  0.00  0.00    +0.143 C 
BRANCH  15  18
ATOM     16  O   UNL     1     -41.230  22.669  -1.318  0.00  0.00    -0.126 OA
ATOM     17  O   UNL     1     -41.490  20.938   0.008  0.00  0.00    -0.126 OA
ATOM     18  N   UNL     1     -40.859  21.963  -0.350  0.00  0.00    +0.058 N 
ENDBRANCH  15  18
ENDBRANCH   2  10
BRANCH   3  20
ATOM     19  O   UNL     1     -36.572  26.520   1.794  0.00  0.00    -0.245 OA
ATOM     20  C   UNL     1     -37.110  25.818   2.631  0.00  0.00    +0.339 C 
BRANCH  20  21
ATOM     21  O   UNL     1     -38.385  25.882   3.085  0.00  0.00    -0.446 OA
BRANCH  21  22
ATOM     22  C   UNL     1     -39.373  26.151   2.085  0.00  0.00    +0.209 C 
ATOM     23  C   UNL     1     -40.720  25.667   2.579  0.00  0.00    +0.051 C 
ENDBRANCH  21  22
ENDBRANCH  20  21
ENDBRANCH   3  20
BRANCH   4  25
ATOM     24  O   UNL     1     -36.388  20.047   2.988  0.00  0.00    -0.245 OA
ATOM     25  C   UNL     1     -35.626  20.956   2.719  0.00  0.00    +0.342 C 
BRANCH  25  26
ATOM     26  O   UNL     1     -34.619  20.967   1.813  0.00  0.00    -0.445 OA
BRANCH  26  27
ATOM     27  C   UNL     1     -34.550  19.813   0.969  0.00  0.00    +0.209 C 
ATOM     28  C   UNL     1     -33.424  18.920   1.446  0.00  0.00    +0.051 C 
ENDBRANCH  26  27
ENDBRANCH  25  26
ENDBRANCH   4  25
TORSDOF 8
ENDMDL
MODEL 3
REMARK VINA RESULT:      -5.4      2.050      3.269
REMARK  Name = 210905
REMARK  8 active torsions:
REMARK  status: ('A' for Active; 'I' for Inactive)
REMARK    1  A    between atoms: C_2  and  C_10
REMARK    2  A    between atoms: C_3  and  C_20
REMARK    3  A    between atoms: C_4  and  C_25
REMARK    4  A    between atoms: C_15  and  N_18
REMARK    5  A    between atoms: C_20  and  O_21
REMARK    6  A    between atoms: O_21  and  C_22
REMARK    7  A    between atoms: C_25  and  O_26
REMARK    8  A    between atoms: O_26  and  C_27
REMARK                            x       y       z     vdW  Elec       q    Type
REMARK                         _______ _______ _______ _____ _____    ______ ____
ROOT
ATOM      1  N   UNL     1     -34.404  24.523   5.852  0.00  0.00    -0.334 N 
ATOM      2  C   UNL     1     -34.852  24.816   3.072  0.00  0.00    +0.011 C 
ATOM      3  C   UNL     1     -34.206  25.901   3.939  0.00  0.00    +0.071 C 
ATOM      4  C   UNL     1     -35.384  23.633   3.890  0.00  0.00    +0.085 C 
ATOM      5  C   UNL     1     -33.987  25.704   5.259  0.00  0.00    +0.098 C 
ATOM      6  C   UNL     1     -35.129  23.528   5.215  0.00  0.00    +0.028 C 
ATOM      7  C   UNL     1     -33.314  26.678   6.187  0.00  0.00    +0.026 C 
ATOM      8  C   UNL     1     -35.564  22.394   6.102  0.00  0.00    +0.047 C 
ATOM      9  H   UNL     1     -34.169  24.381   6.798  0.00  0.00    +0.147 HD
ENDROOT
BRANCH   2  10
ATOM     10  C   UNL     1     -35.961  25.409   2.251  0.00  0.00    +0.000 C 
ATOM     11  C   UNL     1     -35.819  25.505   0.873  0.00  0.00    +0.002 C 
ATOM     12  C   UNL     1     -37.117  25.858   2.879  0.00  0.00    +0.002 C 
ATOM     13  C   UNL     1     -36.848  26.057   0.110  0.00  0.00    +0.024 C 
ATOM     14  C   UNL     1     -38.147  26.409   2.117  0.00  0.00    +0.024 C 
ATOM     15  C   UNL     1     -38.012  26.509   0.733  0.00  0.00    +0.143 C 
BRANCH  15  18
ATOM     16  O   UNL     1     -39.944  27.752   0.531  0.00  0.00    -0.126 OA
ATOM     17  O   UNL     1     -39.073  26.873  -1.283  0.00  0.00    -0.126 OA
ATOM     18  N   UNL     1     -39.060  27.071  -0.043  0.00  0.00    +0.058 N 
ENDBRANCH  15  18
ENDBRANCH   2  10
BRANCH   3  20
ATOM     19  O   UNL     1     -32.944  27.310   2.509  0.00  0.00    -0.245 OA
ATOM     20  C   UNL     1     -33.883  27.172   3.272  0.00  0.00    +0.339 C 
BRANCH  20  21
ATOM     21  O   UNL     1     -34.792  28.101   3.659  0.00  0.00    -0.446 OA
BRANCH  21  22
ATOM     22  C   UNL     1     -34.749  29.332   2.930  0.00  0.00    +0.209 C 
ATOM     23  C   UNL     1     -35.758  29.274   1.803  0.00  0.00    +0.051 C 
ENDBRANCH  21  22
ENDBRANCH  20  21
ENDBRANCH   3  20
BRANCH   4  25
ATOM     24  O   UNL     1     -37.429  22.572   3.335  0.00  0.00    -0.245 OA
ATOM     25  C   UNL     1     -36.227  22.662   3.173  0.00  0.00    +0.342 C 
BRANCH  25  26
ATOM     26  O   UNL     1     -35.435  21.936   2.347  0.00  0.00    -0.445 OA
BRANCH  26  27
ATOM     27  C   UNL     1     -35.531  20.517   2.507  0.00  0.00    +0.209 C 
ATOM     28  C   UNL     1     -34.407  19.856   1.736  0.00  0.00    +0.051 C 
ENDBRANCH  26  27
ENDBRANCH  25  26
ENDBRANCH   4  25
TORSDOF 8
ENDMDL
MODEL 4
REMARK VINA RESULT:      -5.4      2.374      5.776
REMARK  Name = 210905
REMARK  8 active torsions:
REMARK  status: ('A' for Active; 'I' for Inactive)
REMARK    1  A    between atoms: C_2  and  C_10
REMARK    2  A    between atoms: C_3  and  C_20
REMARK    3  A    between atoms: C_4  and  C_25
REMARK    4  A    between atoms: C_15  and  N_18
REMARK    5  A    between atoms: C_20  and  O_21
REMARK    6  A    between atoms: O_21  and  C_22
REMARK    7  A    between atoms: C_25  and  O_26
REMARK    8  A    between atoms: O_26  and  C_27
REMARK                            x       y       z     vdW  Elec       q    Type
REMARK                         _______ _______ _______ _____ _____    ______ ____
ROOT
ATOM      1  N   UNL     1     -35.293  28.378   1.059  0.00  0.00    -0.334 N 
ATOM      2  C   UNL     1     -35.796  26.715   3.295  0.00  0.00    +0.011 C 
ATOM      3  C   UNL     1     -34.426  27.331   2.996  0.00  0.00    +0.071 C 
ATOM      4  C   UNL     1     -36.816  26.950   2.175  0.00  0.00    +0.085 C 
ATOM      5  C   UNL     1     -34.240  28.142   1.929  0.00  0.00    +0.098 C 
ATOM      6  C   UNL     1     -36.536  27.767   1.133  0.00  0.00    +0.028 C 
ATOM      7  C   UNL     1     -32.955  28.838   1.575  0.00  0.00    +0.026 C 
ATOM      8  C   UNL     1     -37.474  28.099   0.005  0.00  0.00    +0.047 C 
ATOM      9  H   UNL     1     -35.146  29.026   0.333  0.00  0.00    +0.147 HD
ENDROOT
BRANCH   2  10
ATOM     10  C   UNL     1     -35.650  25.243   3.554  0.00  0.00    +0.000 C 
ATOM     11  C   UNL     1     -35.210  24.407   2.536  0.00  0.00    +0.002 C 
ATOM     12  C   UNL     1     -35.957  24.732   4.809  0.00  0.00    +0.002 C 
ATOM     13  C   UNL     1     -35.075  23.039   2.775  0.00  0.00    +0.024 C 
ATOM     14  C   UNL     1     -35.821  23.365   5.050  0.00  0.00    +0.024 C 
ATOM     15  C   UNL     1     -35.381  22.519   4.032  0.00  0.00    +0.143 C 
BRANCH  15  18
ATOM     16  O   UNL     1     -35.258  20.334   3.304  0.00  0.00    -0.126 OA
ATOM     17  O   UNL     1     -35.112  20.727   5.460  0.00  0.00    -0.126 OA
ATOM     18  N   UNL     1     -35.244  21.127   4.277  0.00  0.00    +0.058 N 
ENDBRANCH  15  18
ENDBRANCH   2  10
BRANCH   3  20
ATOM     19  O   UNL     1     -32.524  26.074   3.645  0.00  0.00    -0.245 OA
ATOM     20  C   UNL     1     -33.323  26.957   3.896  0.00  0.00    +0.339 C 
BRANCH  20  21
ATOM     21  O   UNL     1     -33.379  27.750   4.994  0.00  0.00    -0.446 OA
BRANCH  21  22
ATOM     22  C   UNL     1     -32.111  28.193   5.488  0.00  0.00    +0.209 C 
ATOM     23  C   UNL     1     -32.017  29.696   5.329  0.00  0.00    +0.051 C 
ENDBRANCH  21  22
ENDBRANCH  20  21
ENDBRANCH   3  20
BRANCH   4  25
ATOM     24  O   UNL     1     -38.978  26.489   3.029  0.00  0.00    -0.245 OA
ATOM     25  C   UNL     1     -38.078  26.197   2.264  0.00  0.00    +0.342 C 
BRANCH  25  26
ATOM     26  O   UNL     1     -38.031  25.177   1.373  0.00  0.00    -0.445 OA
BRANCH  26  27
ATOM     27  C   UNL     1     -39.130  24.261   1.441  0.00  0.00    +0.209 C 
ATOM     28  C   UNL     1     -38.713  23.051   2.250  0.00  0.00    +0.051 C 
ENDBRANCH  26  27
ENDBRANCH  25  26
ENDBRANCH   4  25
TORSDOF 8
ENDMDL
MODEL 5
REMARK VINA RESULT:      -5.3      2.687      6.508
REMARK  Name = 210905
REMARK  8 active torsions:
REMARK  status: ('A' for Active; 'I' for Inactive)
REMARK    1  A    between atoms: C_2  and  C_10
REMARK    2  A    between atoms: C_3  and  C_20
REMARK    3  A    between atoms: C_4  and  C_25
REMARK    4  A    between atoms: C_15  and  N_18
REMARK    5  A    between atoms: C_20  and  O_21
REMARK    6  A    between atoms: O_21  and  C_22
REMARK    7  A    between atoms: C_25  and  O_26
REMARK    8  A    between atoms: O_26  and  C_27
REMARK                            x       y       z     vdW  Elec       q    Type
REMARK                         _______ _______ _______ _____ _____    ______ ____
ROOT
ATOM      1  N   UNL     1     -37.873  25.324   4.242  0.00  0.00    -0.334 N 
ATOM      2  C   UNL     1     -36.290  24.236   2.161  0.00  0.00    +0.011 C 
ATOM      3  C   UNL     1     -37.818  24.147   2.190  0.00  0.00    +0.071 C 
ATOM      4  C   UNL     1     -35.699  24.819   3.451  0.00  0.00    +0.085 C 
ATOM      5  C   UNL     1     -38.534  24.707   3.192  0.00  0.00    +0.098 C 
ATOM      6  C   UNL     1     -36.496  25.344   4.411  0.00  0.00    +0.028 C 
ATOM      7  C   UNL     1     -40.035  24.723   3.289  0.00  0.00    +0.026 C 
ATOM      8  C   UNL     1     -36.023  25.976   5.691  0.00  0.00    +0.047 C 
ATOM      9  H   UNL     1     -38.421  25.781   4.920  0.00  0.00    +0.147 HD
ENDROOT
BRANCH   2  10
ATOM     10  C   UNL     1     -35.703  22.879   1.898  0.00  0.00    +0.000 C 
ATOM     11  C   UNL     1     -35.842  21.875   2.847  0.00  0.00    +0.002 C 
ATOM     12  C   UNL     1     -35.025  22.643   0.708  0.00  0.00    +0.002 C 
ATOM     13  C   UNL     1     -35.296  20.614   2.604  0.00  0.00    +0.024 C 
ATOM     14  C   UNL     1     -34.480  21.382   0.463  0.00  0.00    +0.024 C 
ATOM     15  C   UNL     1     -34.615  20.369   1.411  0.00  0.00    +0.143 C 
BRANCH  15  18
ATOM     16  O   UNL     1     -34.600  18.344   0.307  0.00  0.00    -0.126 OA
ATOM     17  O   UNL     1     -33.040  18.730   1.804  0.00  0.00    -0.126 OA
ATOM     18  N   UNL     1     -34.059  19.086   1.163  0.00  0.00    +0.058 N 
ENDBRANCH  15  18
ENDBRANCH   2  10
BRANCH   3  20
ATOM     19  O   UNL     1     -38.547  23.800  -0.039  0.00  0.00    -0.245 OA
ATOM     20  C   UNL     1     -38.455  23.387   1.103  0.00  0.00    +0.339 C 
BRANCH  20  21
ATOM     21  O   UNL     1     -38.890  22.206   1.604  0.00  0.00    -0.446 OA
BRANCH  21  22
ATOM     22  C   UNL     1     -39.342  21.261   0.628  0.00  0.00    +0.209 C 
ATOM     23  C   UNL     1     -38.184  20.374   0.226  0.00  0.00    +0.051 C 
ENDBRANCH  21  22
ENDBRANCH  20  21
ENDBRANCH   3  20
BRANCH   4  25
ATOM     24  O   UNL     1     -33.704  24.169   4.552  0.00  0.00    -0.245 OA
ATOM     25  C   UNL     1     -34.239  24.722   3.610  0.00  0.00    +0.342 C 
BRANCH  25  26
ATOM     26  O   UNL     1     -33.652  25.337   2.554  0.00  0.00    -0.445 OA
BRANCH  26  27
ATOM     27  C   UNL     1     -32.638  26.288   2.893  0.00  0.00    +0.209 C 
ATOM     28  C   UNL     1     -33.296  27.529   3.460  0.00  0.00    +0.051 C 
ENDBRANCH  26  27
ENDBRANCH  25  26
ENDBRANCH   4  25
TORSDOF 8
ENDMDL
MODEL 6
REMARK VINA RESULT:      -5.3      2.562      5.758
REMARK  Name = 210905
REMARK  8 active torsions:
REMARK  status: ('A' for Active; 'I' for Inactive)
REMARK    1  A    between atoms: C_2  and  C_10
REMARK    2  A    between atoms: C_3  and  C_20
REMARK    3  A    between atoms: C_4  and  C_25
REMARK    4  A    between atoms: C_15  and  N_18
REMARK    5  A    between atoms: C_20  and  O_21
REMARK    6  A    between atoms: O_21  and  C_22
REMARK    7  A    between atoms: C_25  and  O_26
REMARK    8  A    between atoms: O_26  and  C_27
REMARK                            x       y       z     vdW  Elec       q    Type
REMARK                         _______ _______ _______ _____ _____    ______ ____
ROOT
ATOM      1  N   UNL     1     -33.088  26.084   2.024  0.00  0.00    -0.334 N 
ATOM      2  C   UNL     1     -34.621  23.746   2.470  0.00  0.00    +0.011 C 
ATOM      3  C   UNL     1     -33.921  24.052   1.143  0.00  0.00    +0.071 C 
ATOM      4  C   UNL     1     -34.550  24.909   3.468  0.00  0.00    +0.085 C 
ATOM      5  C   UNL     1     -33.176  25.171   0.986  0.00  0.00    +0.098 C 
ATOM      6  C   UNL     1     -33.789  26.000   3.217  0.00  0.00    +0.028 C 
ATOM      7  C   UNL     1     -32.407  25.540  -0.252  0.00  0.00    +0.026 C 
ATOM      8  C   UNL     1     -33.614  27.174   4.140  0.00  0.00    +0.047 C 
ATOM      9  H   UNL     1     -32.484  26.852   1.904  0.00  0.00    +0.147 HD
ENDROOT
BRANCH   2  10
ATOM     10  C   UNL     1     -36.054  23.375   2.219  0.00  0.00    +0.000 C 
ATOM     11  C   UNL     1     -36.499  22.098   2.536  0.00  0.00    +0.002 C 
ATOM     12  C   UNL     1     -36.921  24.313   1.672  0.00  0.00    +0.002 C 
ATOM     13  C   UNL     1     -37.830  21.752   2.302  0.00  0.00    +0.024 C 
ATOM     14  C   UNL     1     -38.253  23.969   1.439  0.00  0.00    +0.024 C 
ATOM     15  C   UNL     1     -38.706  22.688   1.753  0.00  0.00    +0.143 C 
BRANCH  15  18
ATOM     16  O   UNL     1     -40.870  23.232   1.169  0.00  0.00    -0.126 OA
ATOM     17  O   UNL     1     -40.413  21.140   1.655  0.00  0.00    -0.126 OA
ATOM     18  N   UNL     1     -40.062  22.337   1.515  0.00  0.00    +0.058 N 
ENDBRANCH  15  18
ENDBRANCH   2  10
BRANCH   3  20
ATOM     19  O   UNL     1     -34.829  23.341  -0.928  0.00  0.00    -0.245 OA
ATOM     20  C   UNL     1     -34.140  23.097   0.046  0.00  0.00    +0.339 C 
BRANCH  20  21
ATOM     21  O   UNL     1     -33.459  21.959   0.326  0.00  0.00    -0.446 OA
BRANCH  21  22
ATOM     22  C   UNL     1     -34.151  20.745   0.019  0.00  0.00    +0.209 C 
ATOM     23  C   UNL     1     -33.970  19.770   1.162  0.00  0.00    +0.051 C 
ENDBRANCH  21  22
ENDBRANCH  20  21
ENDBRANCH   3  20
BRANCH   4  25
ATOM     24  O   UNL     1     -36.446  25.391   4.805  0.00  0.00    -0.245 OA
ATOM     25  C   UNL     1     -35.392  24.798   4.670  0.00  0.00    +0.342 C 
BRANCH  25  26
ATOM     26  O   UNL     1     -34.788  23.952   5.539  0.00  0.00    -0.445 OA
BRANCH  26  27
ATOM     27  C   UNL     1     -35.606  22.871   6.000  0.00  0.00    +0.209 C 
ATOM     28  C   UNL     1     -34.811  21.584   5.924  0.00  0.00    +0.051 C 
ENDBRANCH  26  27
ENDBRANCH  25  26
ENDBRANCH   4  25
TORSDOF 8
ENDMDL
MODEL 7
REMARK VINA RESULT:      -5.3      3.690      6.254
REMARK  Name = 210905
REMARK  8 active torsions:
REMARK  status: ('A' for Active; 'I' for Inactive)
REMARK    1  A    between atoms: C_2  and  C_10
REMARK    2  A    between atoms: C_3  and  C_20
REMARK    3  A    between atoms: C_4  and  C_25
REMARK    4  A    between atoms: C_15  and  N_18
REMARK    5  A    between atoms: C_20  and  O_21
REMARK    6  A    between atoms: O_21  and  C_22
REMARK    7  A    between atoms: C_25  and  O_26
REMARK    8  A    between atoms: O_26  and  C_27
REMARK                            x       y       z     vdW  Elec       q    Type
REMARK                         _______ _______ _______ _____ _____    ______ ____
ROOT
ATOM      1  N   UNL     1     -38.525  21.946   1.201  0.00  0.00    -0.334 N 
ATOM      2  C   UNL     1     -36.257  20.314   1.658  0.00  0.00    +0.011 C 
ATOM      3  C   UNL     1     -36.532  21.608   2.430  0.00  0.00    +0.071 C 
ATOM      4  C   UNL     1     -37.239  20.085   0.503  0.00  0.00    +0.085 C 
ATOM      5  C   UNL     1     -37.645  22.341   2.195  0.00  0.00    +0.098 C 
ATOM      6  C   UNL     1     -38.320  20.883   0.334  0.00  0.00    +0.028 C 
ATOM      7  C   UNL     1     -38.036  23.593   2.930  0.00  0.00    +0.026 C 
ATOM      8  C   UNL     1     -39.365  20.725  -0.735  0.00  0.00    +0.047 C 
ATOM      9  H   UNL     1     -39.359  22.460   1.101  0.00  0.00    +0.147 HD
ENDROOT
BRANCH   2  10
ATOM     10  C   UNL     1     -34.848  20.318   1.138  0.00  0.00    +0.000 C 
ATOM     11  C   UNL     1     -33.996  19.268   1.457  0.00  0.00    +0.002 C 
ATOM     12  C   UNL     1     -34.411  21.372   0.344  0.00  0.00    +0.002 C 
ATOM     13  C   UNL     1     -32.687  19.271   0.975  0.00  0.00    +0.024 C 
ATOM     14  C   UNL     1     -33.102  21.375  -0.138  0.00  0.00    +0.024 C 
ATOM     15  C   UNL     1     -32.240  20.325   0.178  0.00  0.00    +0.143 C 
BRANCH  15  18
ATOM     16  O   UNL     1     -30.470  21.362  -0.875  0.00  0.00    -0.126 OA
ATOM     17  O   UNL     1     -30.204  19.300  -0.170  0.00  0.00    -0.126 OA
ATOM     18  N   UNL     1     -30.908  20.329  -0.313  0.00  0.00    +0.058 N 
ENDBRANCH  15  18
ENDBRANCH   2  10
BRANCH   3  20
ATOM     19  O   UNL     1     -34.896  23.080   3.311  0.00  0.00    -0.245 OA
ATOM     20  C   UNL     1     -35.506  22.030   3.397  0.00  0.00    +0.339 C 
BRANCH  20  21
ATOM     21  O   UNL     1     -35.389  21.068   4.344  0.00  0.00    -0.446 OA
BRANCH  21  22
ATOM     22  C   UNL     1     -34.753  21.483   5.557  0.00  0.00    +0.209 C 
ATOM     23  C   UNL     1     -35.766  22.197   6.426  0.00  0.00    +0.051 C 
ENDBRANCH  21  22
ENDBRANCH  20  21
ENDBRANCH   3  20
BRANCH   4  25
ATOM     24  O   UNL     1     -36.322  19.179  -1.486  0.00  0.00    -0.245 OA
ATOM     25  C   UNL     1     -36.911  19.000  -0.437  0.00  0.00    +0.342 C 
BRANCH  25  26
ATOM     26  O   UNL     1     -37.370  17.834   0.080  0.00  0.00    -0.445 OA
BRANCH  26  27
ATOM     27  C   UNL     1     -38.324  17.144  -0.734  0.00  0.00    +0.209 C 
ATOM     28  C   UNL     1     -38.376  15.692  -0.310  0.00  0.00    +0.051 C 
ENDBRANCH  26  27
ENDBRANCH  25  26
ENDBRANCH   4  25
TORSDOF 8
ENDMDL
MODEL 8
REMARK VINA RESULT:      -5.2      2.055      5.833
REMARK  Name = 210905
REMARK  8 active torsions:
REMARK  status: ('A' for Active; 'I' for Inactive)
REMARK    1  A    between atoms: C_2  and  C_10
REMARK    2  A    between atoms: C_3  and  C_20
REMARK    3  A    between atoms: C_4  and  C_25
REMARK    4  A    between atoms: C_15  and  N_18
REMARK    5  A    between atoms: C_20  and  O_21
REMARK    6  A    between atoms: O_21  and  C_22
REMARK    7  A    between atoms: C_25  and  O_26
REMARK    8  A    between atoms: O_26  and  C_27
REMARK                            x       y       z     vdW  Elec       q    Type
REMARK                         _______ _______ _______ _____ _____    ______ ____
ROOT
ATOM      1  N   UNL     1     -35.161  28.788   1.794  0.00  0.00    -0.334 N 
ATOM      2  C   UNL     1     -36.032  26.451   3.133  0.00  0.00    +0.011 C 
ATOM      3  C   UNL     1     -34.679  27.117   3.398  0.00  0.00    +0.071 C 
ATOM      4  C   UNL     1     -36.788  27.076   1.954  0.00  0.00    +0.085 C 
ATOM      5  C   UNL     1     -34.317  28.249   2.752  0.00  0.00    +0.098 C 
ATOM      6  C   UNL     1     -36.340  28.205   1.356  0.00  0.00    +0.028 C 
ATOM      7  C   UNL     1     -33.040  29.011   2.974  0.00  0.00    +0.026 C 
ATOM      8  C   UNL     1     -37.021  28.923   0.224  0.00  0.00    +0.047 C 
ATOM      9  H   UNL     1     -34.902  29.649   1.392  0.00  0.00    +0.147 HD
ENDROOT
BRANCH   2  10
ATOM     10  C   UNL     1     -35.841  24.980   2.896  0.00  0.00    +0.000 C 
ATOM     11  C   UNL     1     -36.435  24.063   3.754  0.00  0.00    +0.002 C 
ATOM     12  C   UNL     1     -35.072  24.552   1.821  0.00  0.00    +0.002 C 
ATOM     13  C   UNL     1     -36.258  22.697   3.534  0.00  0.00    +0.024 C 
ATOM     14  C   UNL     1     -34.895  23.186   1.600  0.00  0.00    +0.024 C 
ATOM     15  C   UNL     1     -35.487  22.259   2.458  0.00  0.00    +0.143 C 
BRANCH  15  18
ATOM     16  O   UNL     1     -34.257  20.475   1.667  0.00  0.00    -0.126 OA
ATOM     17  O   UNL     1     -36.199  20.070   2.610  0.00  0.00    -0.126 OA
ATOM     18  N   UNL     1     -35.306  20.868   2.233  0.00  0.00    +0.058 N 
ENDBRANCH  15  18
ENDBRANCH   2  10
BRANCH   3  20
ATOM     19  O   UNL     1     -32.866  25.714   4.004  0.00  0.00    -0.245 OA
ATOM     20  C   UNL     1     -33.784  26.437   4.348  0.00  0.00    +0.339 C 
BRANCH  20  21
ATOM     21  O   UNL     1     -34.168  26.763   5.606  0.00  0.00    -0.446 OA
BRANCH  21  22
ATOM     22  C   UNL     1     -33.136  26.687   6.595  0.00  0.00    +0.209 C 
ATOM     23  C   UNL     1     -32.232  27.893   6.459  0.00  0.00    +0.051 C 
ENDBRANCH  21  22
ENDBRANCH  20  21
ENDBRANCH   3  20
BRANCH   4  25
ATOM     24  O   UNL     1     -37.953  25.548   0.567  0.00  0.00    -0.245 OA
ATOM     25  C   UNL     1     -37.979  26.354   1.478  0.00  0.00    +0.342 C 
BRANCH  25  26
ATOM     26  O   UNL     1     -39.043  26.750   2.219  0.00  0.00    -0.445 OA
BRANCH  26  27
ATOM     27  C   UNL     1     -39.768  25.690   2.852  0.00  0.00    +0.209 C 
ATOM     28  C   UNL     1     -41.112  26.216   3.308  0.00  0.00    +0.051 C 
ENDBRANCH  26  27
ENDBRANCH  25  26
ENDBRANCH   4  25
TORSDOF 8
ENDMDL
MODEL 9
REMARK VINA RESULT:      -5.2      2.087      5.131
REMARK  Name = 210905
REMARK  8 active torsions:
REMARK  status: ('A' for Active; 'I' for Inactive)
REMARK    1  A    between atoms: C_2  and  C_10
REMARK    2  A    between atoms: C_3  and  C_20
REMARK    3  A    between atoms: C_4  and  C_25
REMARK    4  A    between atoms: C_15  and  N_18
REMARK    5  A    between atoms: C_20  and  O_21
REMARK    6  A    between atoms: O_21  and  C_22
REMARK    7  A    between atoms: C_25  and  O_26
REMARK    8  A    between atoms: O_26  and  C_27
REMARK                            x       y       z     vdW  Elec       q    Type
REMARK                         _______ _______ _______ _____ _____    ______ ____
ROOT
ATOM      1  N   UNL     1     -35.772  21.434   4.078  0.00  0.00    -0.334 N 
ATOM      2  C   UNL     1     -36.281  24.030   3.071  0.00  0.00    +0.011 C 
ATOM      3  C   UNL     1     -36.314  22.769   2.202  0.00  0.00    +0.071 C 
ATOM      4  C   UNL     1     -35.778  23.764   4.495  0.00  0.00    +0.085 C 
ATOM      5  C   UNL     1     -36.091  21.546   2.735  0.00  0.00    +0.098 C 
ATOM      6  C   UNL     1     -35.565  22.503   4.937  0.00  0.00    +0.028 C 
ATOM      7  C   UNL     1     -36.153  20.243   1.985  0.00  0.00    +0.026 C 
ATOM      8  C   UNL     1     -35.114  22.127   6.322  0.00  0.00    +0.047 C 
ATOM      9  H   UNL     1     -35.684  20.527   4.451  0.00  0.00    +0.147 HD
ENDROOT
BRANCH   2  10
ATOM     10  C   UNL     1     -35.429  25.080   2.416  0.00  0.00    +0.000 C 
ATOM     11  C   UNL     1     -35.974  26.325   2.129  0.00  0.00    +0.002 C 
ATOM     12  C   UNL     1     -34.106  24.795   2.103  0.00  0.00    +0.002 C 
ATOM     13  C   UNL     1     -35.184  27.301   1.520  0.00  0.00    +0.024 C 
ATOM     14  C   UNL     1     -33.315  25.770   1.495  0.00  0.00    +0.024 C 
ATOM     15  C   UNL     1     -33.855  27.022   1.203  0.00  0.00    +0.143 C 
BRANCH  15  18
ATOM     16  O   UNL     1     -33.213  28.255  -0.638  0.00  0.00    -0.126 OA
ATOM     17  O   UNL     1     -32.198  28.625   1.274  0.00  0.00    -0.126 OA
ATOM     18  N   UNL     1     -33.050  28.014   0.583  0.00  0.00    +0.058 N 
ENDBRANCH  15  18
ENDBRANCH   2  10
BRANCH   3  20
ATOM     19  O   UNL     1     -35.693  22.814  -0.085  0.00  0.00    -0.245 OA
ATOM     20  C   UNL     1     -36.553  22.965   0.763  0.00  0.00    +0.339 C 
BRANCH  20  21
ATOM     21  O   UNL     1     -37.848  23.326   0.590  0.00  0.00    -0.446 OA
BRANCH  21  22
ATOM     22  C   UNL     1     -38.707  22.290   0.103  0.00  0.00    +0.209 C 
ATOM     23  C   UNL     1     -39.684  21.906   1.193  0.00  0.00    +0.051 C 
ENDBRANCH  21  22
ENDBRANCH  20  21
ENDBRANCH   3  20
BRANCH   4  25
ATOM     24  O   UNL     1     -36.350  25.662   5.794  0.00  0.00    -0.245 OA
ATOM     25  C   UNL     1     -35.487  24.946   5.322  0.00  0.00    +0.342 C 
BRANCH  25  26
ATOM     26  O   UNL     1     -34.142  25.062   5.443  0.00  0.00    -0.445 OA
BRANCH  26  27
ATOM     27  C   UNL     1     -33.687  26.300   6.000  0.00  0.00    +0.209 C 
ATOM     28  C   UNL     1     -33.192  27.192   4.881  0.00  0.00    +0.051 C 
ENDBRANCH  26  27
ENDBRANCH  25  26
ENDBRANCH   4  25
TORSDOF 8
ENDMDL
