MODEL 1
REMARK VINA RESULT:      -6.2      0.000      0.000
REMARK  Name = 5492102
REMARK  11 active torsions:
REMARK  status: ('A' for Active; 'I' for Inactive)
REMARK    1  A    between atoms: CA_1  and  C_8
REMARK    2  A    between atoms: CA_1  and  N_14
REMARK    3  A    between atoms: CA_1  and  CB_29
REMARK    4  A    between atoms: CA_4  and  C_10
REMARK    5  A    between atoms: C_10  and  O_11
REMARK    6  A    between atoms: C_15  and  C_17
REMARK    7  A    between atoms: C_17  and  N_18
REMARK    8  A    between atoms: C_17  and  C_22
REMARK    9  A    between atoms: C_22  and  O_24
REMARK   10  A    between atoms: O_24  and  C_25
REMARK   11  A    between atoms: CB_29  and  CG_30
REMARK                            x       y       z     vdW  Elec       q    Type
REMARK                         _______ _______ _______ _____ _____    ______ ____
ROOT
ATOM      1  CA  PHE A   2     -34.831  26.257   3.452  0.00  0.00    +0.153 C 
ENDROOT
BRANCH   1   8
ATOM      2  O   PHE A   2     -36.696  26.261   4.932  0.00  0.00    -0.273 OA
ATOM      3  N   PRO A   3     -37.138  25.996   2.675  0.00  0.00    -0.270 N 
ATOM      4  CA  PRO A   3     -38.590  26.059   2.782  0.00  0.00    +0.175 C 
ATOM      5  CB  PRO A   3     -39.074  26.275   1.352  0.00  0.00    +0.033 C 
ATOM      6  CG  PRO A   3     -37.994  25.606   0.507  0.00  0.00    +0.024 C 
ATOM      7  CD  PRO A   3     -36.716  25.892   1.281  0.00  0.00    +0.094 C 
ATOM      8  C   PHE A   2     -36.303  26.177   3.767  0.00  0.00    +0.244 C 
BRANCH   4  10
ATOM      9  OXT PRO A   3     -38.527  23.664   3.099  0.00  0.00    -0.248 OA
ATOM     10  C   PRO A   3     -39.050  24.743   3.332  0.00  0.00    +0.332 C 
BRANCH  10  11
ATOM     11  O   PRO A   3     -40.135  24.909   4.126  0.00  0.00    -0.479 OA
ATOM     12  H   PRO A   3     -40.997  24.830   3.766  0.00  0.00    +0.295 HD
ENDBRANCH  10  11
ENDBRANCH   4  10
ENDBRANCH   1   8
BRANCH   1  14
ATOM     13  O   UNK A   1     -33.764  27.953   1.404  0.00  0.00    -0.277 OA
ATOM     14  N   PHE A   2     -34.538  27.657   3.569  0.00  0.00    -0.300 N 
ATOM     15  C   UNK A   1     -34.019  28.408   2.517  0.00  0.00    +0.205 C 
ATOM     16  H   PHE A   2     -34.712  28.105   4.428  0.00  0.00    +0.150 HD
BRANCH  15  17
ATOM     17  C   UNK A   1     -33.805  29.876   2.890  0.00  0.00    +0.041 C 
BRANCH  17  18
ATOM     18  N   UNK A   1     -34.990  30.325   3.622  0.00  0.00    +0.389 N 
ATOM     19  H   UNK A   1     -34.703  30.754   4.501  0.00  0.00    -0.088 HD
ATOM     20  H   UNK A   1     -35.594  29.525   3.814  0.00  0.00    -0.088 HD
ATOM     21  H   UNK A   1     -35.498  31.007   3.060  0.00  0.00    -0.088 HD
ENDBRANCH  17  18
BRANCH  17  22
ATOM     22  C   UNK A   1     -32.527  30.093   3.719  0.00  0.00    +0.104 C 
ATOM     23  C   UNK A   1     -31.993  31.522   3.703  0.00  0.00    +0.030 C 
BRANCH  22  24
ATOM     24  O   UNK A   1     -32.776  29.701   5.068  0.00  0.00    -0.363 OA
BRANCH  24  25
ATOM     25  C   UNK A   1     -31.710  28.917   5.582  0.00  0.00    +0.093 C 
ATOM     26  C   UNK A   1     -30.812  29.815   6.431  0.00  0.00    +0.030 C 
ATOM     27  C   UNK A   1     -32.324  27.809   6.434  0.00  0.00    +0.030 C 
ATOM     28  C   UNK A   1     -30.932  28.324   4.407  0.00  0.00    +0.030 C 
ENDBRANCH  24  25
ENDBRANCH  22  24
ENDBRANCH  17  22
ENDBRANCH  15  17
ENDBRANCH   1  14
BRANCH   1  29
ATOM     29  CB  PHE A   2     -34.038  25.393   4.423  0.00  0.00    +0.055 C 
BRANCH  29  30
ATOM     30  CG  PHE A   2     -34.567  23.981   4.491  0.00  0.00    -0.020 C 
ATOM     31  CD1 PHE A   2     -34.912  23.326   3.319  0.00  0.00    -0.004 C 
ATOM     32  CD2 PHE A   2     -34.700  23.364   5.725  0.00  0.00    -0.004 C 
ATOM     33  CE1 PHE A   2     -35.401  22.022   3.382  0.00  0.00    -0.000 C 
ATOM     34  CE2 PHE A   2     -35.190  22.059   5.789  0.00  0.00    -0.000 C 
ATOM     35  CZ  PHE A   2     -35.541  21.388   4.617  0.00  0.00    -0.000 C 
ENDBRANCH  29  30
ENDBRANCH   1  29
TORSDOF 11
ENDMDL
MODEL 2
REMARK VINA RESULT:      -6.2      3.104      7.206
REMARK  Name = 5492102
REMARK  11 active torsions:
REMARK  status: ('A' for Active; 'I' for Inactive)
REMARK    1  A    between atoms: CA_1  and  C_8
REMARK    2  A    between atoms: CA_1  and  N_14
REMARK    3  A    between atoms: CA_1  and  CB_29
REMARK    4  A    between atoms: CA_4  and  C_10
REMARK    5  A    between atoms: C_10  and  O_11
REMARK    6  A    between atoms: C_15  and  C_17
REMARK    7  A    between atoms: C_17  and  N_18
REMARK    8  A    between atoms: C_17  and  C_22
REMARK    9  A    between atoms: C_22  and  O_24
REMARK   10  A    between atoms: O_24  and  C_25
REMARK   11  A    between atoms: CB_29  and  CG_30
REMARK                            x       y       z     vdW  Elec       q    Type
REMARK                         _______ _______ _______ _____ _____    ______ ____
ROOT
ATOM      1  CA  PHE A   2     -35.475  22.776   1.398  0.00  0.00    +0.153 C 
ENDROOT
BRANCH   1   8
ATOM      2  O   PHE A   2     -35.259  25.132   1.139  0.00  0.00    -0.273 OA
ATOM      3  N   PRO A   3     -35.416  24.317   3.299  0.00  0.00    -0.270 N 
ATOM      4  CA  PRO A   3     -35.494  25.613   3.962  0.00  0.00    +0.175 C 
ATOM      5  CB  PRO A   3     -35.976  25.298   5.373  0.00  0.00    +0.033 C 
ATOM      6  CG  PRO A   3     -35.444  23.890   5.624  0.00  0.00    +0.024 C 
ATOM      7  CD  PRO A   3     -35.554  23.226   4.260  0.00  0.00    +0.094 C 
ATOM      8  C   PHE A   2     -35.377  24.186   1.920  0.00  0.00    +0.244 C 
BRANCH   4  10
ATOM      9  OXT PRO A   3     -33.083  25.555   3.795  0.00  0.00    -0.248 OA
ATOM     10  C   PRO A   3     -34.112  26.193   3.962  0.00  0.00    +0.332 C 
BRANCH  10  11
ATOM     11  O   PRO A   3     -34.154  27.530   4.178  0.00  0.00    -0.479 OA
ATOM     12  H   PRO A   3     -33.553  27.927   4.777  0.00  0.00    +0.295 HD
ENDBRANCH  10  11
ENDBRANCH   4  10
ENDBRANCH   1   8
BRANCH   1  14
ATOM     13  O   UNK A   1     -37.350  20.814   2.319  0.00  0.00    -0.277 OA
ATOM     14  N   PHE A   2     -36.851  22.658   1.006  0.00  0.00    -0.300 N 
ATOM     15  C   UNK A   1     -37.695  21.670   1.507  0.00  0.00    +0.205 C 
ATOM     16  H   PHE A   2     -37.212  23.304   0.357  0.00  0.00    +0.150 HD
BRANCH  15  17
ATOM     17  C   UNK A   1     -39.113  21.765   0.942  0.00  0.00    +0.041 C 
BRANCH  17  18
ATOM     18  N   UNK A   1     -40.035  21.293   1.976  0.00  0.00    +0.389 N 
ATOM     19  H   UNK A   1     -39.876  21.816   2.837  0.00  0.00    -0.088 HD
ATOM     20  H   UNK A   1     -39.875  20.300   2.146  0.00  0.00    -0.088 HD
ATOM     21  H   UNK A   1     -40.996  21.435   1.665  0.00  0.00    -0.088 HD
ENDBRANCH  17  18
BRANCH  17  22
ATOM     22  C   UNK A   1     -39.473  23.191   0.488  0.00  0.00    +0.104 C 
ATOM     23  C   UNK A   1     -40.126  23.275  -0.888  0.00  0.00    +0.030 C 
BRANCH  22  24
ATOM     24  O   UNK A   1     -40.341  23.781   1.455  0.00  0.00    -0.363 OA
BRANCH  24  25
ATOM     25  C   UNK A   1     -39.788  24.976   1.982  0.00  0.00    +0.093 C 
ATOM     26  C   UNK A   1     -38.802  25.547   0.964  0.00  0.00    +0.030 C 
ATOM     27  C   UNK A   1     -40.940  25.950   2.220  0.00  0.00    +0.030 C 
ATOM     28  C   UNK A   1     -39.082  24.647   3.298  0.00  0.00    +0.030 C 
ENDBRANCH  24  25
ENDBRANCH  22  24
ENDBRANCH  17  22
ENDBRANCH  15  17
ENDBRANCH   1  14
BRANCH   1  29
ATOM     29  CB  PHE A   2     -34.501  22.571   0.246  0.00  0.00    +0.055 C 
BRANCH  29  30
ATOM     30  CG  PHE A   2     -33.672  21.322   0.417  0.00  0.00    -0.020 C 
ATOM     31  CD1 PHE A   2     -32.424  21.246  -0.181  0.00  0.00    -0.004 C 
ATOM     32  CD2 PHE A   2     -34.172  20.272   1.170  0.00  0.00    -0.004 C 
ATOM     33  CE1 PHE A   2     -31.657  20.092  -0.023  0.00  0.00    -0.000 C 
ATOM     34  CE2 PHE A   2     -33.406  19.117   1.329  0.00  0.00    -0.000 C 
ATOM     35  CZ  PHE A   2     -32.148  19.027   0.732  0.00  0.00    -0.000 C 
ENDBRANCH  29  30
ENDBRANCH   1  29
TORSDOF 11
ENDMDL
MODEL 3
REMARK VINA RESULT:      -6.0      1.613      2.136
REMARK  Name = 5492102
REMARK  11 active torsions:
REMARK  status: ('A' for Active; 'I' for Inactive)
REMARK    1  A    between atoms: CA_1  and  C_8
REMARK    2  A    between atoms: CA_1  and  N_14
REMARK    3  A    between atoms: CA_1  and  CB_29
REMARK    4  A    between atoms: CA_4  and  C_10
REMARK    5  A    between atoms: C_10  and  O_11
REMARK    6  A    between atoms: C_15  and  C_17
REMARK    7  A    between atoms: C_17  and  N_18
REMARK    8  A    between atoms: C_17  and  C_22
REMARK    9  A    between atoms: C_22  and  O_24
REMARK   10  A    between atoms: O_24  and  C_25
REMARK   11  A    between atoms: CB_29  and  CG_30
REMARK                            x       y       z     vdW  Elec       q    Type
REMARK                         _______ _______ _______ _____ _____    ______ ____
ROOT
ATOM      1  CA  PHE A   2     -36.629  25.681   2.996  0.00  0.00    +0.153 C 
ENDROOT
BRANCH   1   8
ATOM      2  O   PHE A   2     -38.885  26.442   3.015  0.00  0.00    -0.273 OA
ATOM      3  N   PRO A   3     -38.268  25.007   1.307  0.00  0.00    -0.270 N 
ATOM      4  CA  PRO A   3     -39.515  25.091   0.559  0.00  0.00    +0.175 C 
ATOM      5  CB  PRO A   3     -39.187  24.504  -0.810  0.00  0.00    +0.033 C 
ATOM      6  CG  PRO A   3     -38.073  23.505  -0.509  0.00  0.00    +0.024 C 
ATOM      7  CD  PRO A   3     -37.288  24.182   0.605  0.00  0.00    +0.094 C 
ATOM      8  C   PHE A   2     -38.031  25.757   2.448  0.00  0.00    +0.244 C 
BRANCH   4  10
ATOM      9  OXT PRO A   3     -40.544  23.043   1.324  0.00  0.00    -0.248 OA
ATOM     10  C   PRO A   3     -40.527  24.264   1.292  0.00  0.00    +0.332 C 
BRANCH  10  11
ATOM     11  O   PRO A   3     -41.432  25.056   1.917  0.00  0.00    -0.479 OA
ATOM     12  H   PRO A   3     -41.159  25.616   2.618  0.00  0.00    +0.295 HD
ENDBRANCH  10  11
ENDBRANCH   4  10
ENDBRANCH   1   8
BRANCH   1  14
ATOM     13  O   UNK A   1     -34.515  26.417   1.207  0.00  0.00    -0.277 OA
ATOM     14  N   PHE A   2     -36.113  27.003   2.781  0.00  0.00    -0.300 N 
ATOM     15  C   UNK A   1     -35.079  27.272   1.887  0.00  0.00    +0.205 C 
ATOM     16  H   PHE A   2     -36.507  27.751   3.286  0.00  0.00    +0.150 HD
BRANCH  15  17
ATOM     17  C   UNK A   1     -34.720  28.757   1.832  0.00  0.00    +0.041 C 
BRANCH  17  18
ATOM     18  N   UNK A   1     -35.894  29.515   2.266  0.00  0.00    +0.389 N 
ATOM     19  H   UNK A   1     -36.451  28.943   2.900  0.00  0.00    -0.088 HD
ATOM     20  H   UNK A   1     -36.456  29.767   1.452  0.00  0.00    -0.088 HD
ATOM     21  H   UNK A   1     -35.593  30.362   2.747  0.00  0.00    -0.088 HD
ENDBRANCH  17  18
BRANCH  17  22
ATOM     22  C   UNK A   1     -33.491  29.100   2.693  0.00  0.00    +0.104 C 
ATOM     23  C   UNK A   1     -33.067  30.564   2.645  0.00  0.00    +0.030 C 
BRANCH  22  24
ATOM     24  O   UNK A   1     -33.755  28.732   4.046  0.00  0.00    -0.363 OA
BRANCH  24  25
ATOM     25  C   UNK A   1     -32.728  27.901   4.565  0.00  0.00    +0.093 C 
ATOM     26  C   UNK A   1     -33.372  26.661   5.182  0.00  0.00    +0.030 C 
ATOM     27  C   UNK A   1     -31.819  27.513   3.401  0.00  0.00    +0.030 C 
ATOM     28  C   UNK A   1     -31.948  28.690   5.617  0.00  0.00    +0.030 C 
ENDBRANCH  24  25
ENDBRANCH  22  24
ENDBRANCH  17  22
ENDBRANCH  15  17
ENDBRANCH   1  14
BRANCH   1  29
ATOM     29  CB  PHE A   2     -36.658  25.278   4.464  0.00  0.00    +0.055 C 
BRANCH  29  30
ATOM     30  CG  PHE A   2     -36.086  23.899   4.687  0.00  0.00    -0.020 C 
ATOM     31  CD1 PHE A   2     -36.125  22.972   3.658  0.00  0.00    -0.004 C 
ATOM     32  CD2 PHE A   2     -35.529  23.585   5.916  0.00  0.00    -0.004 C 
ATOM     33  CE1 PHE A   2     -35.596  21.698   3.863  0.00  0.00    -0.000 C 
ATOM     34  CE2 PHE A   2     -34.999  22.311   6.123  0.00  0.00    -0.000 C 
ATOM     35  CZ  PHE A   2     -35.034  21.367   5.095  0.00  0.00    -0.000 C 
ENDBRANCH  29  30
ENDBRANCH   1  29
TORSDOF 11
ENDMDL
MODEL 4
REMARK VINA RESULT:      -6.0      4.610      8.085
REMARK  Name = 5492102
REMARK  11 active torsions:
REMARK  status: ('A' for Active; 'I' for Inactive)
REMARK    1  A    between atoms: CA_1  and  C_8
REMARK    2  A    between atoms: CA_1  and  N_14
REMARK    3  A    between atoms: CA_1  and  CB_29
REMARK    4  A    between atoms: CA_4  and  C_10
REMARK    5  A    between atoms: C_10  and  O_11
REMARK    6  A    between atoms: C_15  and  C_17
REMARK    7  A    between atoms: C_17  and  N_18
REMARK    8  A    between atoms: C_17  and  C_22
REMARK    9  A    between atoms: C_22  and  O_24
REMARK   10  A    between atoms: O_24  and  C_25
REMARK   11  A    between atoms: CB_29  and  CG_30
REMARK                            x       y       z     vdW  Elec       q    Type
REMARK                         _______ _______ _______ _____ _____    ______ ____
ROOT
ATOM      1  CA  PHE A   2     -36.046  21.037   1.735  0.00  0.00    +0.153 C 
ENDROOT
BRANCH   1   8
ATOM      2  O   PHE A   2     -36.518  18.885   0.832  0.00  0.00    -0.273 OA
ATOM      3  N   PRO A   3     -34.403  19.748   0.457  0.00  0.00    -0.270 N 
ATOM      4  CA  PRO A   3     -33.950  18.694  -0.442  0.00  0.00    +0.175 C 
ATOM      5  CB  PRO A   3     -32.700  19.262  -1.105  0.00  0.00    +0.033 C 
ATOM      6  CG  PRO A   3     -32.143  20.217  -0.053  0.00  0.00    +0.024 C 
ATOM      7  CD  PRO A   3     -33.394  20.794   0.592  0.00  0.00    +0.094 C 
ATOM      8  C   PHE A   2     -35.692  19.789   0.966  0.00  0.00    +0.244 C 
BRANCH   4  10
ATOM      9  OXT PRO A   3     -32.607  17.337   1.040  0.00  0.00    -0.248 OA
ATOM     10  C   PRO A   3     -33.637  17.497   0.403  0.00  0.00    +0.332 C 
BRANCH  10  11
ATOM     11  O   PRO A   3     -34.656  16.604   0.364  0.00  0.00    -0.479 OA
ATOM     12  H   PRO A   3     -34.964  16.280  -0.460  0.00  0.00    +0.295 HD
ENDBRANCH  10  11
ENDBRANCH   4  10
ENDBRANCH   1   8
BRANCH   1  14
ATOM     13  O   UNK A   1     -37.443  22.901   0.067  0.00  0.00    -0.277 OA
ATOM     14  N   PHE A   2     -37.468  21.138   1.573  0.00  0.00    -0.300 N 
ATOM     15  C   UNK A   1     -38.065  22.079   0.736  0.00  0.00    +0.205 C 
ATOM     16  H   PHE A   2     -38.045  20.517   2.073  0.00  0.00    +0.150 HD
BRANCH  15  17
ATOM     17  C   UNK A   1     -39.591  21.976   0.729  0.00  0.00    +0.041 C 
BRANCH  17  18
ATOM     18  N   UNK A   1     -39.995  21.278   1.950  0.00  0.00    +0.389 N 
ATOM     19  H   UNK A   1     -39.164  20.990   2.467  0.00  0.00    -0.088 HD
ATOM     20  H   UNK A   1     -40.546  20.455   1.705  0.00  0.00    -0.088 HD
ATOM     21  H   UNK A   1     -40.556  21.903   2.529  0.00  0.00    -0.088 HD
ENDBRANCH  17  18
BRANCH  17  22
ATOM     22  C   UNK A   1     -40.275  23.350   0.624  0.00  0.00    +0.104 C 
ATOM     23  C   UNK A   1     -41.531  23.373  -0.241  0.00  0.00    +0.030 C 
BRANCH  22  24
ATOM     24  O   UNK A   1     -40.601  23.807   1.936  0.00  0.00    -0.363 OA
BRANCH  24  25
ATOM     25  C   UNK A   1     -39.922  25.014   2.245  0.00  0.00    +0.093 C 
ATOM     26  C   UNK A   1     -39.400  25.625   0.946  0.00  0.00    +0.030 C 
ATOM     27  C   UNK A   1     -40.927  25.949   2.913  0.00  0.00    +0.030 C 
ATOM     28  C   UNK A   1     -38.770  24.695   3.198  0.00  0.00    +0.030 C 
ENDBRANCH  24  25
ENDBRANCH  22  24
ENDBRANCH  17  22
ENDBRANCH  15  17
ENDBRANCH   1  14
BRANCH   1  29
ATOM     29  CB  PHE A   2     -35.614  20.899   3.189  0.00  0.00    +0.055 C 
BRANCH  29  30
ATOM     30  CG  PHE A   2     -35.391  22.240   3.845  0.00  0.00    -0.020 C 
ATOM     31  CD1 PHE A   2     -35.121  23.347   3.056  0.00  0.00    -0.004 C 
ATOM     32  CD2 PHE A   2     -35.461  22.341   5.226  0.00  0.00    -0.004 C 
ATOM     33  CE1 PHE A   2     -34.915  24.586   3.662  0.00  0.00    -0.000 C 
ATOM     34  CE2 PHE A   2     -35.255  23.580   5.833  0.00  0.00    -0.000 C 
ATOM     35  CZ  PHE A   2     -34.981  24.703   5.050  0.00  0.00    -0.000 C 
ENDBRANCH  29  30
ENDBRANCH   1  29
TORSDOF 11
ENDMDL
MODEL 5
REMARK VINA RESULT:      -6.0      1.824      2.543
REMARK  Name = 5492102
REMARK  11 active torsions:
REMARK  status: ('A' for Active; 'I' for Inactive)
REMARK    1  A    between atoms: CA_1  and  C_8
REMARK    2  A    between atoms: CA_1  and  N_14
REMARK    3  A    between atoms: CA_1  and  CB_29
REMARK    4  A    between atoms: CA_4  and  C_10
REMARK    5  A    between atoms: C_10  and  O_11
REMARK    6  A    between atoms: C_15  and  C_17
REMARK    7  A    between atoms: C_17  and  N_18
REMARK    8  A    between atoms: C_17  and  C_22
REMARK    9  A    between atoms: C_22  and  O_24
REMARK   10  A    between atoms: O_24  and  C_25
REMARK   11  A    between atoms: CB_29  and  CG_30
REMARK                            x       y       z     vdW  Elec       q    Type
REMARK                         _______ _______ _______ _____ _____    ______ ____
ROOT
ATOM      1  CA  PHE A   2     -34.057  26.231   4.361  0.00  0.00    +0.153 C 
ENDROOT
BRANCH   1   8
ATOM      2  O   PHE A   2     -36.294  26.934   4.775  0.00  0.00    -0.273 OA
ATOM      3  N   PRO A   3     -35.648  26.712   2.563  0.00  0.00    -0.270 N 
ATOM      4  CA  PRO A   3     -36.865  27.260   1.978  0.00  0.00    +0.175 C 
ATOM      5  CB  PRO A   3     -36.500  27.550   0.526  0.00  0.00    +0.033 C 
ATOM      6  CG  PRO A   3     -35.421  26.515   0.218  0.00  0.00    +0.024 C 
ATOM      7  CD  PRO A   3     -34.663  26.400   1.532  0.00  0.00    +0.094 C 
ATOM      8  C   PHE A   2     -35.436  26.663   3.932  0.00  0.00    +0.244 C 
BRANCH   4  10
ATOM      9  OXT PRO A   3     -38.065  25.272   1.310  0.00  0.00    -0.248 OA
ATOM     10  C   PRO A   3     -37.922  26.204   2.087  0.00  0.00    +0.332 C 
BRANCH  10  11
ATOM     11  O   PRO A   3     -38.709  26.423   3.168  0.00  0.00    -0.479 OA
ATOM     12  H   PRO A   3     -39.481  25.909   3.298  0.00  0.00    +0.295 HD
ENDBRANCH  10  11
ENDBRANCH   4  10
ENDBRANCH   1   8
BRANCH   1  14
ATOM     13  O   UNK A   1     -31.570  27.156   3.281  0.00  0.00    -0.277 OA
ATOM     14  N   PHE A   2     -33.399  27.468   4.670  0.00  0.00    -0.300 N 
ATOM     15  C   UNK A   1     -32.186  27.840   4.095  0.00  0.00    +0.205 C 
ATOM     16  H   PHE A   2     -33.823  28.079   5.315  0.00  0.00    +0.150 HD
BRANCH  15  17
ATOM     17  C   UNK A   1     -31.699  29.206   4.580  0.00  0.00    +0.041 C 
BRANCH  17  18
ATOM     18  N   UNK A   1     -32.870  30.072   4.717  0.00  0.00    +0.389 N 
ATOM     19  H   UNK A   1     -33.718  29.506   4.671  0.00  0.00    -0.088 HD
ATOM     20  H   UNK A   1     -32.877  30.757   3.961  0.00  0.00    -0.088 HD
ATOM     21  H   UNK A   1     -32.833  30.555   5.614  0.00  0.00    -0.088 HD
ENDBRANCH  17  18
BRANCH  17  22
ATOM     22  C   UNK A   1     -30.917  29.119   5.902  0.00  0.00    +0.104 C 
ATOM     23  C   UNK A   1     -31.764  29.301   7.158  0.00  0.00    +0.030 C 
BRANCH  22  24
ATOM     24  O   UNK A   1     -30.251  27.858   5.965  0.00  0.00    -0.363 OA
BRANCH  24  25
ATOM     25  C   UNK A   1     -28.842  28.019   5.973  0.00  0.00    +0.093 C 
ATOM     26  C   UNK A   1     -28.247  27.055   6.999  0.00  0.00    +0.030 C 
ATOM     27  C   UNK A   1     -28.334  27.691   4.571  0.00  0.00    +0.030 C 
ATOM     28  C   UNK A   1     -28.519  29.468   6.337  0.00  0.00    +0.030 C 
ENDBRANCH  24  25
ENDBRANCH  22  24
ENDBRANCH  17  22
ENDBRANCH  15  17
ENDBRANCH   1  14
BRANCH   1  29
ATOM     29  CB  PHE A   2     -34.148  25.283   5.550  0.00  0.00    +0.055 C 
BRANCH  29  30
ATOM     30  CG  PHE A   2     -34.642  23.915   5.150  0.00  0.00    -0.020 C 
ATOM     31  CD1 PHE A   2     -34.927  22.980   6.132  0.00  0.00    -0.004 C 
ATOM     32  CD2 PHE A   2     -34.803  23.616   3.806  0.00  0.00    -0.004 C 
ATOM     33  CE1 PHE A   2     -35.383  21.715   5.763  0.00  0.00    -0.000 C 
ATOM     34  CE2 PHE A   2     -35.259  22.351   3.435  0.00  0.00    -0.000 C 
ATOM     35  CZ  PHE A   2     -35.549  21.400   4.414  0.00  0.00    -0.000 C 
ENDBRANCH  29  30
ENDBRANCH   1  29
TORSDOF 11
ENDMDL
MODEL 6
REMARK VINA RESULT:      -6.0      2.342      7.928
REMARK  Name = 5492102
REMARK  11 active torsions:
REMARK  status: ('A' for Active; 'I' for Inactive)
REMARK    1  A    between atoms: CA_1  and  C_8
REMARK    2  A    between atoms: CA_1  and  N_14
REMARK    3  A    between atoms: CA_1  and  CB_29
REMARK    4  A    between atoms: CA_4  and  C_10
REMARK    5  A    between atoms: C_10  and  O_11
REMARK    6  A    between atoms: C_15  and  C_17
REMARK    7  A    between atoms: C_17  and  N_18
REMARK    8  A    between atoms: C_17  and  C_22
REMARK    9  A    between atoms: C_22  and  O_24
REMARK   10  A    between atoms: O_24  and  C_25
REMARK   11  A    between atoms: CB_29  and  CG_30
REMARK                            x       y       z     vdW  Elec       q    Type
REMARK                         _______ _______ _______ _____ _____    ______ ____
ROOT
ATOM      1  CA  PHE A   2     -32.522  28.158   4.539  0.00  0.00    +0.153 C 
ENDROOT
BRANCH   1   8
ATOM      2  O   PHE A   2     -31.976  28.441   6.839  0.00  0.00    -0.273 OA
ATOM      3  N   PRO A   3     -30.215  28.188   5.358  0.00  0.00    -0.270 N 
ATOM      4  CA  PRO A   3     -29.161  28.118   6.363  0.00  0.00    +0.175 C 
ATOM      5  CB  PRO A   3     -27.947  27.579   5.614  0.00  0.00    +0.033 C 
ATOM      6  CG  PRO A   3     -28.166  28.068   4.185  0.00  0.00    +0.024 C 
ATOM      7  CD  PRO A   3     -29.676  27.990   4.016  0.00  0.00    +0.094 C 
ATOM      8  C   PHE A   2     -31.558  28.272   5.692  0.00  0.00    +0.244 C 
BRANCH   4  10
ATOM      9  OXT PRO A   3     -28.887  30.510   6.159  0.00  0.00    -0.248 OA
ATOM     10  C   PRO A   3     -28.933  29.512   6.862  0.00  0.00    +0.332 C 
BRANCH  10  11
ATOM     11  O   PRO A   3     -28.780  29.520   8.208  0.00  0.00    -0.479 OA
ATOM     12  H   PRO A   3     -28.703  30.334   8.667  0.00  0.00    +0.295 HD
ENDBRANCH  10  11
ENDBRANCH   4  10
ENDBRANCH   1   8
BRANCH   1  14
ATOM     13  O   UNK A   1     -33.243  25.463   3.885  0.00  0.00    -0.277 OA
ATOM     14  N   PHE A   2     -33.615  27.409   5.089  0.00  0.00    -0.300 N 
ATOM     15  C   UNK A   1     -33.895  26.097   4.712  0.00  0.00    +0.205 C 
ATOM     16  H   PHE A   2     -34.191  27.841   5.760  0.00  0.00    +0.150 HD
BRANCH  15  17
ATOM     17  C   UNK A   1     -35.103  25.518   5.449  0.00  0.00    +0.041 C 
BRANCH  17  18
ATOM     18  N   UNK A   1     -36.210  26.462   5.297  0.00  0.00    +0.389 N 
ATOM     19  H   UNK A   1     -36.072  27.251   5.928  0.00  0.00    -0.088 HD
ATOM     20  H   UNK A   1     -37.089  25.995   5.523  0.00  0.00    -0.088 HD
ATOM     21  H   UNK A   1     -36.241  26.798   4.335  0.00  0.00    -0.088 HD
ENDBRANCH  17  18
BRANCH  17  22
ATOM     22  C   UNK A   1     -35.492  24.120   4.936  0.00  0.00    +0.104 C 
ATOM     23  C   UNK A   1     -35.480  23.025   5.997  0.00  0.00    +0.030 C 
BRANCH  22  24
ATOM     24  O   UNK A   1     -36.791  24.187   4.346  0.00  0.00    -0.363 OA
BRANCH  24  25
ATOM     25  C   UNK A   1     -36.751  23.841   2.971  0.00  0.00    +0.093 C 
ATOM     26  C   UNK A   1     -35.490  23.019   2.712  0.00  0.00    +0.030 C 
ATOM     27  C   UNK A   1     -38.001  23.020   2.667  0.00  0.00    +0.030 C 
ATOM     28  C   UNK A   1     -36.739  25.128   2.146  0.00  0.00    +0.030 C 
ENDBRANCH  24  25
ENDBRANCH  22  24
ENDBRANCH  17  22
ENDBRANCH  15  17
ENDBRANCH   1  14
BRANCH   1  29
ATOM     29  CB  PHE A   2     -32.925  29.543   4.051  0.00  0.00    +0.055 C 
BRANCH  29  30
ATOM     30  CG  PHE A   2     -33.897  29.479   2.898  0.00  0.00    -0.020 C 
ATOM     31  CD1 PHE A   2     -35.012  30.303   2.902  0.00  0.00    -0.004 C 
ATOM     32  CD2 PHE A   2     -33.659  28.597   1.856  0.00  0.00    -0.004 C 
ATOM     33  CE1 PHE A   2     -35.911  30.244   1.837  0.00  0.00    -0.000 C 
ATOM     34  CE2 PHE A   2     -34.557  28.538   0.790  0.00  0.00    -0.000 C 
ATOM     35  CZ  PHE A   2     -35.684  29.361   0.781  0.00  0.00    -0.000 C 
ENDBRANCH  29  30
ENDBRANCH   1  29
TORSDOF 11
ENDMDL
MODEL 7
REMARK VINA RESULT:      -5.9      3.115      4.687
REMARK  Name = 5492102
REMARK  11 active torsions:
REMARK  status: ('A' for Active; 'I' for Inactive)
REMARK    1  A    between atoms: CA_1  and  C_8
REMARK    2  A    between atoms: CA_1  and  N_14
REMARK    3  A    between atoms: CA_1  and  CB_29
REMARK    4  A    between atoms: CA_4  and  C_10
REMARK    5  A    between atoms: C_10  and  O_11
REMARK    6  A    between atoms: C_15  and  C_17
REMARK    7  A    between atoms: C_17  and  N_18
REMARK    8  A    between atoms: C_17  and  C_22
REMARK    9  A    between atoms: C_22  and  O_24
REMARK   10  A    between atoms: O_24  and  C_25
REMARK   11  A    between atoms: CB_29  and  CG_30
REMARK                            x       y       z     vdW  Elec       q    Type
REMARK                         _______ _______ _______ _____ _____    ______ ____
ROOT
ATOM      1  CA  PHE A   2     -36.816  22.884   1.541  0.00  0.00    +0.153 C 
ENDROOT
BRANCH   1   8
ATOM      2  O   PHE A   2     -39.007  22.338   2.296  0.00  0.00    -0.273 OA
ATOM      3  N   PRO A   3     -38.681  22.477   0.009  0.00  0.00    -0.270 N 
ATOM      4  CA  PRO A   3     -40.080  22.321  -0.369  0.00  0.00    +0.175 C 
ATOM      5  CB  PRO A   3     -40.138  22.755  -1.830  0.00  0.00    +0.033 C 
ATOM      6  CG  PRO A   3     -38.743  22.421  -2.354  0.00  0.00    +0.024 C 
ATOM      7  CD  PRO A   3     -37.843  22.714  -1.163  0.00  0.00    +0.094 C 
ATOM      8  C   PHE A   2     -38.269  22.545   1.331  0.00  0.00    +0.244 C 
BRANCH   4  10
ATOM      9  OXT PRO A   3     -39.631  19.947  -0.309  0.00  0.00    -0.248 OA
ATOM     10  C   PRO A   3     -40.423  20.872  -0.205  0.00  0.00    +0.332 C 
BRANCH  10  11
ATOM     11  O   PRO A   3     -41.740  20.720   0.074  0.00  0.00    -0.479 OA
ATOM     12  H   PRO A   3     -42.271  21.472   0.252  0.00  0.00    +0.295 HD
ENDBRANCH  10  11
ENDBRANCH   4  10
ENDBRANCH   1   8
BRANCH   1  14
ATOM     13  O   UNK A   1     -36.193  25.423   0.369  0.00  0.00    -0.277 OA
ATOM     14  N   PHE A   2     -36.860  24.160   2.196  0.00  0.00    -0.300 N 
ATOM     15  C   UNK A   1     -36.540  25.350   1.546  0.00  0.00    +0.205 C 
ATOM     16  H   PHE A   2     -37.128  24.196   3.142  0.00  0.00    +0.150 HD
BRANCH  15  17
ATOM     17  C   UNK A   1     -36.675  26.572   2.456  0.00  0.00    +0.041 C 
BRANCH  17  18
ATOM     18  N   UNK A   1     -37.730  26.286   3.429  0.00  0.00    +0.389 N 
ATOM     19  H   UNK A   1     -37.789  25.279   3.580  0.00  0.00    -0.088 HD
ATOM     20  H   UNK A   1     -38.622  26.630   3.075  0.00  0.00    -0.088 HD
ATOM     21  H   UNK A   1     -37.513  26.750   4.312  0.00  0.00    -0.088 HD
ENDBRANCH  17  18
BRANCH  17  22
ATOM     22  C   UNK A   1     -35.355  26.934   3.159  0.00  0.00    +0.104 C 
ATOM     23  C   UNK A   1     -34.878  28.364   2.925  0.00  0.00    +0.030 C 
BRANCH  22  24
ATOM     24  O   UNK A   1     -35.500  26.712   4.562  0.00  0.00    -0.363 OA
BRANCH  24  25
ATOM     25  C   UNK A   1     -34.615  25.703   5.019  0.00  0.00    +0.093 C 
ATOM     26  C   UNK A   1     -33.727  25.270   3.853  0.00  0.00    +0.030 C 
ATOM     27  C   UNK A   1     -33.773  26.304   6.142  0.00  0.00    +0.030 C 
ATOM     28  C   UNK A   1     -35.443  24.527   5.538  0.00  0.00    +0.030 C 
ENDBRANCH  24  25
ENDBRANCH  22  24
ENDBRANCH  17  22
ENDBRANCH  15  17
ENDBRANCH   1  14
BRANCH   1  29
ATOM     29  CB  PHE A   2     -36.139  21.803   2.375  0.00  0.00    +0.055 C 
BRANCH  29  30
ATOM     30  CG  PHE A   2     -34.957  21.193   1.663  0.00  0.00    -0.020 C 
ATOM     31  CD1 PHE A   2     -34.252  21.951   0.740  0.00  0.00    -0.004 C 
ATOM     32  CD2 PHE A   2     -34.594  19.885   1.944  0.00  0.00    -0.004 C 
ATOM     33  CE1 PHE A   2     -33.160  21.387   0.082  0.00  0.00    -0.000 C 
ATOM     34  CE2 PHE A   2     -33.501  19.321   1.287  0.00  0.00    -0.000 C 
ATOM     35  CZ  PHE A   2     -32.784  20.072   0.355  0.00  0.00    -0.000 C 
ENDBRANCH  29  30
ENDBRANCH   1  29
TORSDOF 11
ENDMDL
MODEL 8
REMARK VINA RESULT:      -5.8      5.511      7.972
REMARK  Name = 5492102
REMARK  11 active torsions:
REMARK  status: ('A' for Active; 'I' for Inactive)
REMARK    1  A    between atoms: CA_1  and  C_8
REMARK    2  A    between atoms: CA_1  and  N_14
REMARK    3  A    between atoms: CA_1  and  CB_29
REMARK    4  A    between atoms: CA_4  and  C_10
REMARK    5  A    between atoms: C_10  and  O_11
REMARK    6  A    between atoms: C_15  and  C_17
REMARK    7  A    between atoms: C_17  and  N_18
REMARK    8  A    between atoms: C_17  and  C_22
REMARK    9  A    between atoms: C_22  and  O_24
REMARK   10  A    between atoms: O_24  and  C_25
REMARK   11  A    between atoms: CB_29  and  CG_30
REMARK                            x       y       z     vdW  Elec       q    Type
REMARK                         _______ _______ _______ _____ _____    ______ ____
ROOT
ATOM      1  CA  PHE A   2     -35.162  19.841   0.569  0.00  0.00    +0.153 C 
ENDROOT
BRANCH   1   8
ATOM      2  O   PHE A   2     -37.120  18.499   0.753  0.00  0.00    -0.273 OA
ATOM      3  N   PRO A   3     -35.560  17.880  -0.841  0.00  0.00    -0.270 N 
ATOM      4  CA  PRO A   3     -36.356  16.821  -1.450  0.00  0.00    +0.175 C 
ATOM      5  CB  PRO A   3     -35.656  16.523  -2.772  0.00  0.00    +0.033 C 
ATOM      6  CG  PRO A   3     -34.197  16.868  -2.487  0.00  0.00    +0.024 C 
ATOM      7  CD  PRO A   3     -34.297  18.063  -1.551  0.00  0.00    +0.094 C 
ATOM      8  C   PHE A   2     -36.047  18.686   0.176  0.00  0.00    +0.244 C 
BRANCH   4  10
ATOM      9  OXT PRO A   3     -35.510  14.730  -0.584  0.00  0.00    -0.248 OA
ATOM     10  C   PRO A   3     -36.315  15.647  -0.521  0.00  0.00    +0.332 C 
BRANCH  10  11
ATOM     11  O   PRO A   3     -37.300  15.734   0.406  0.00  0.00    -0.479 OA
ATOM     12  H   PRO A   3     -38.171  15.957   0.143  0.00  0.00    +0.295 HD
ENDBRANCH  10  11
ENDBRANCH   4  10
ENDBRANCH   1   8
BRANCH   1  14
ATOM     13  O   UNK A   1     -34.643  22.622   1.022  0.00  0.00    -0.277 OA
ATOM     14  N   PHE A   2     -36.084  20.807   1.093  0.00  0.00    -0.300 N 
ATOM     15  C   UNK A   1     -35.746  22.146   1.282  0.00  0.00    +0.205 C 
ATOM     16  H   PHE A   2     -36.993  20.512   1.329  0.00  0.00    +0.150 HD
BRANCH  15  17
ATOM     17  C   UNK A   1     -36.905  22.972   1.842  0.00  0.00    +0.041 C 
BRANCH  17  18
ATOM     18  N   UNK A   1     -37.716  22.089   2.680  0.00  0.00    +0.389 N 
ATOM     19  H   UNK A   1     -38.323  22.650   3.277  0.00  0.00    -0.088 HD
ATOM     20  H   UNK A   1     -37.105  21.514   3.260  0.00  0.00    -0.088 HD
ATOM     21  H   UNK A   1     -38.286  21.487   2.086  0.00  0.00    -0.088 HD
ENDBRANCH  17  18
BRANCH  17  22
ATOM     22  C   UNK A   1     -36.424  24.200   2.635  0.00  0.00    +0.104 C 
ATOM     23  C   UNK A   1     -36.978  25.534   2.143  0.00  0.00    +0.030 C 
BRANCH  22  24
ATOM     24  O   UNK A   1     -36.767  24.029   4.010  0.00  0.00    -0.363 OA
BRANCH  24  25
ATOM     25  C   UNK A   1     -35.652  24.265   4.853  0.00  0.00    +0.093 C 
ATOM     26  C   UNK A   1     -34.405  24.413   3.982  0.00  0.00    +0.030 C 
ATOM     27  C   UNK A   1     -35.924  25.553   5.626  0.00  0.00    +0.030 C 
ATOM     28  C   UNK A   1     -35.507  23.084   5.812  0.00  0.00    +0.030 C 
ENDBRANCH  24  25
ENDBRANCH  22  24
ENDBRANCH  17  22
ENDBRANCH  15  17
ENDBRANCH   1  14
BRANCH   1  29
ATOM     29  CB  PHE A   2     -34.123  19.386   1.585  0.00  0.00    +0.055 C 
BRANCH  29  30
ATOM     30  CG  PHE A   2     -32.744  19.285   0.982  0.00  0.00    -0.020 C 
ATOM     31  CD1 PHE A   2     -31.973  18.160   1.229  0.00  0.00    -0.004 C 
ATOM     32  CD2 PHE A   2     -32.270  20.320   0.191  0.00  0.00    -0.004 C 
ATOM     33  CE1 PHE A   2     -30.698  18.066   0.672  0.00  0.00    -0.000 C 
ATOM     34  CE2 PHE A   2     -30.995  20.228  -0.367  0.00  0.00    -0.000 C 
ATOM     35  CZ  PHE A   2     -30.209  19.100  -0.126  0.00  0.00    -0.000 C 
ENDBRANCH  29  30
ENDBRANCH   1  29
TORSDOF 11
ENDMDL
MODEL 9
REMARK VINA RESULT:      -5.8      4.167      8.169
REMARK  Name = 5492102
REMARK  11 active torsions:
REMARK  status: ('A' for Active; 'I' for Inactive)
REMARK    1  A    between atoms: CA_1  and  C_8
REMARK    2  A    between atoms: CA_1  and  N_14
REMARK    3  A    between atoms: CA_1  and  CB_29
REMARK    4  A    between atoms: CA_4  and  C_10
REMARK    5  A    between atoms: C_10  and  O_11
REMARK    6  A    between atoms: C_15  and  C_17
REMARK    7  A    between atoms: C_17  and  N_18
REMARK    8  A    between atoms: C_17  and  C_22
REMARK    9  A    between atoms: C_22  and  O_24
REMARK   10  A    between atoms: O_24  and  C_25
REMARK   11  A    between atoms: CB_29  and  CG_30
REMARK                            x       y       z     vdW  Elec       q    Type
REMARK                         _______ _______ _______ _____ _____    ______ ____
ROOT
ATOM      1  CA  PHE A   2     -36.159  21.891   1.848  0.00  0.00    +0.153 C 
ENDROOT
BRANCH   1   8
ATOM      2  O   PHE A   2     -36.639  24.109   2.565  0.00  0.00    -0.273 OA
ATOM      3  N   PRO A   3     -35.697  22.677   4.120  0.00  0.00    -0.270 N 
ATOM      4  CA  PRO A   3     -35.806  23.576   5.262  0.00  0.00    +0.175 C 
ATOM      5  CB  PRO A   3     -35.577  22.686   6.479  0.00  0.00    +0.033 C 
ATOM      6  CG  PRO A   3     -34.668  21.582   5.945  0.00  0.00    +0.024 C 
ATOM      7  CD  PRO A   3     -35.164  21.378   4.521  0.00  0.00    +0.094 C 
ATOM      8  C   PHE A   2     -36.197  23.000   2.868  0.00  0.00    +0.244 C 
BRANCH   4  10
ATOM      9  OXT PRO A   3     -33.647  24.421   4.578  0.00  0.00    -0.248 OA
ATOM     10  C   PRO A   3     -34.728  24.607   5.116  0.00  0.00    +0.332 C 
BRANCH  10  11
ATOM     11  O   PRO A   3     -35.114  25.783   5.668  0.00  0.00    -0.479 OA
ATOM     12  H   PRO A   3     -34.608  26.164   6.359  0.00  0.00    +0.295 HD
ENDBRANCH  10  11
ENDBRANCH   4  10
ENDBRANCH   1   8
BRANCH   1  14
ATOM     13  O   UNK A   1     -37.456  19.713   0.511  0.00  0.00    -0.277 OA
ATOM     14  N   PHE A   2     -37.485  21.893   1.300  0.00  0.00    -0.300 N 
ATOM     15  C   UNK A   1     -38.039  20.785   0.664  0.00  0.00    +0.205 C 
ATOM     16  H   PHE A   2     -38.026  22.712   1.377  0.00  0.00    +0.150 HD
BRANCH  15  17
ATOM     17  C   UNK A   1     -39.468  21.037   0.178  0.00  0.00    +0.041 C 
BRANCH  17  18
ATOM     18  N   UNK A   1     -40.241  21.539   1.315  0.00  0.00    +0.389 N 
ATOM     19  H   UNK A   1     -41.036  20.922   1.483  0.00  0.00    -0.088 HD
ATOM     20  H   UNK A   1     -40.578  22.479   1.108  0.00  0.00    -0.088 HD
ATOM     21  H   UNK A   1     -39.649  21.564   2.144  0.00  0.00    -0.088 HD
ENDBRANCH  17  18
BRANCH  17  22
ATOM     22  C   UNK A   1     -39.523  22.018  -1.006  0.00  0.00    +0.104 C 
ATOM     23  C   UNK A   1     -40.343  23.279  -0.751  0.00  0.00    +0.030 C 
BRANCH  22  24
ATOM     24  O   UNK A   1     -38.192  22.389  -1.364  0.00  0.00    -0.363 OA
BRANCH  24  25
ATOM     25  C   UNK A   1     -37.892  22.007  -2.697  0.00  0.00    +0.093 C 
ATOM     26  C   UNK A   1     -36.518  21.337  -2.713  0.00  0.00    +0.030 C 
ATOM     27  C   UNK A   1     -38.973  21.029  -3.150  0.00  0.00    +0.030 C 
ATOM     28  C   UNK A   1     -37.897  23.258  -3.575  0.00  0.00    +0.030 C 
ENDBRANCH  24  25
ENDBRANCH  22  24
ENDBRANCH  17  22
ENDBRANCH  15  17
ENDBRANCH   1  14
BRANCH   1  29
ATOM     29  CB  PHE A   2     -35.078  22.166   0.810  0.00  0.00    +0.055 C 
BRANCH  29  30
ATOM     30  CG  PHE A   2     -34.039  21.073   0.768  0.00  0.00    -0.020 C 
ATOM     31  CD1 PHE A   2     -32.873  21.270   0.046  0.00  0.00    -0.004 C 
ATOM     32  CD2 PHE A   2     -34.268  19.890   1.454  0.00  0.00    -0.004 C 
ATOM     33  CE1 PHE A   2     -31.912  20.260   0.007  0.00  0.00    -0.000 C 
ATOM     34  CE2 PHE A   2     -33.308  18.879   1.415  0.00  0.00    -0.000 C 
ATOM     35  CZ  PHE A   2     -32.129  19.064   0.691  0.00  0.00    -0.000 C 
ENDBRANCH  29  30
ENDBRANCH   1  29
TORSDOF 11
ENDMDL
