MODEL 1
REMARK VINA RESULT:      -6.3      0.000      0.000
REMARK  Name = 5484400
REMARK  7 active torsions:
REMARK  status: ('A' for Active; 'I' for Inactive)
REMARK    1  A    between atoms: S_1  and  C_4
REMARK    2  A    between atoms: S_1  and  N_14
REMARK    3  A    between atoms: C_6  and  O_10
REMARK    4  A    between atoms: C_8  and  O_12
REMARK    5  A    between atoms: N_14  and  N_15
REMARK    6  A    between atoms: N_15  and  C_19
REMARK    7  A    between atoms: N_16  and  O_23
REMARK                            x       y       z     vdW  Elec       q    Type
REMARK                         _______ _______ _______ _____ _____    ______ ____
ROOT
ATOM      1  S   UNL     1     -33.310  27.087   4.272  0.00  0.00    +0.095 S 
ATOM      2  O   UNL     1     -32.156  26.634   3.516  0.00  0.00    -0.150 OA
ATOM      3  O   UNL     1     -33.956  28.344   3.941  0.00  0.00    -0.150 OA
ENDROOT
BRANCH   1   4
ATOM      4  C   UNL     1     -34.527  25.816   4.072  0.00  0.00    +0.128 C 
ATOM      5  C   UNL     1     -34.761  24.939   5.115  0.00  0.00    +0.060 C 
ATOM      6  C   UNL     1     -35.720  23.938   4.957  0.00  0.00    +0.174 C 
ATOM      7  C   UNL     1     -35.217  25.728   2.877  0.00  0.00    +0.023 C 
ATOM      8  C   UNL     1     -36.427  23.831   3.759  0.00  0.00    +0.172 C 
ATOM      9  C   UNL     1     -36.175  24.727   2.719  0.00  0.00    +0.041 C 
BRANCH   6  10
ATOM     10  O   UNL     1     -35.957  23.070   5.980  0.00  0.00    -0.468 OA
ATOM     11  C   UNL     1     -35.143  21.901   6.039  0.00  0.00    +0.253 C 
ENDBRANCH   6  10
BRANCH   8  12
ATOM     12  O   UNL     1     -37.365  22.858   3.592  0.00  0.00    -0.468 OA
ATOM     13  C   UNL     1     -37.410  22.212   2.322  0.00  0.00    +0.253 C 
ENDBRANCH   8  12
ENDBRANCH   1   4
BRANCH   1  14
ATOM     14  N   UNL     1     -32.994  27.055   5.875  0.00  0.00    +0.038 NA
BRANCH  14  15
ATOM     15  N   UNL     1     -32.655  28.168   6.323  0.00  0.00    -0.123 NA
BRANCH  15  19
ATOM     16  N   UNL     1     -29.145  29.290   6.660  0.00  0.00    -0.219 N 
ATOM     17  C   UNL     1     -30.494  29.198   6.285  0.00  0.00    +0.105 C 
ATOM     18  C   UNL     1     -30.976  30.245   5.369  0.00  0.00    +0.021 C 
ATOM     19  C   UNL     1     -31.349  28.246   6.694  0.00  0.00    +0.123 C 
ATOM     20  C   UNL     1     -28.330  30.308   6.193  0.00  0.00    +0.105 C 
ATOM     21  C   UNL     1     -30.155  31.219   4.934  0.00  0.00    +0.003 C 
ATOM     22  C   UNL     1     -28.771  31.263   5.359  0.00  0.00    +0.021 C 
BRANCH  16  23
ATOM     23  O   UNL     1     -28.597  28.348   7.523  0.00  0.00    -0.282 OA
ATOM     24  H   UNL     1     -28.684  28.657   8.438  0.00  0.00    +0.245 HD
ENDBRANCH  16  23
ENDBRANCH  15  19
ENDBRANCH  14  15
ENDBRANCH   1  14
TORSDOF 7
ENDMDL
MODEL 2
REMARK VINA RESULT:      -5.9      4.813      7.917
REMARK  Name = 5484400
REMARK  7 active torsions:
REMARK  status: ('A' for Active; 'I' for Inactive)
REMARK    1  A    between atoms: S_1  and  C_4
REMARK    2  A    between atoms: S_1  and  N_14
REMARK    3  A    between atoms: C_6  and  O_10
REMARK    4  A    between atoms: C_8  and  O_12
REMARK    5  A    between atoms: N_14  and  N_15
REMARK    6  A    between atoms: N_15  and  C_19
REMARK    7  A    between atoms: N_16  and  O_23
REMARK                            x       y       z     vdW  Elec       q    Type
REMARK                         _______ _______ _______ _____ _____    ______ ____
ROOT
ATOM      1  S   UNL     1     -38.652  25.546   2.354  0.00  0.00    +0.095 S 
ATOM      2  O   UNL     1     -39.522  26.439   3.099  0.00  0.00    -0.150 OA
ATOM      3  O   UNL     1     -38.375  25.793   0.951  0.00  0.00    -0.150 OA
ENDROOT
BRANCH   1   4
ATOM      4  C   UNL     1     -37.098  25.595   3.201  0.00  0.00    +0.128 C 
ATOM      5  C   UNL     1     -36.836  24.656   4.182  0.00  0.00    +0.060 C 
ATOM      6  C   UNL     1     -35.610  24.695   4.848  0.00  0.00    +0.174 C 
ATOM      7  C   UNL     1     -36.179  26.572   2.863  0.00  0.00    +0.023 C 
ATOM      8  C   UNL     1     -34.670  25.673   4.523  0.00  0.00    +0.172 C 
ATOM      9  C   UNL     1     -34.954  26.611   3.530  0.00  0.00    +0.041 C 
BRANCH   6  10
ATOM     10  O   UNL     1     -35.345  23.774   5.816  0.00  0.00    -0.468 OA
ATOM     11  C   UNL     1     -35.506  22.401   5.464  0.00  0.00    +0.253 C 
ENDBRANCH   6  10
BRANCH   8  12
ATOM     12  O   UNL     1     -33.471  25.722   5.167  0.00  0.00    -0.468 OA
ATOM     13  C   UNL     1     -33.337  26.678   6.217  0.00  0.00    +0.253 C 
ENDBRANCH   8  12
ENDBRANCH   1   4
BRANCH   1  14
ATOM     14  N   UNL     1     -39.130  23.994   2.538  0.00  0.00    +0.038 NA
BRANCH  14  15
ATOM     15  N   UNL     1     -38.799  23.269   1.580  0.00  0.00    -0.123 NA
BRANCH  15  19
ATOM     16  N   UNL     1     -36.254  20.619   2.022  0.00  0.00    -0.219 N 
ATOM     17  C   UNL     1     -36.903  21.807   1.655  0.00  0.00    +0.105 C 
ATOM     18  C   UNL     1     -36.091  22.773   0.899  0.00  0.00    +0.021 C 
ATOM     19  C   UNL     1     -38.181  22.113   1.941  0.00  0.00    +0.123 C 
ATOM     20  C   UNL     1     -34.931  20.383   1.689  0.00  0.00    +0.105 C 
ATOM     21  C   UNL     1     -34.807  22.510   0.591  0.00  0.00    +0.003 C 
ATOM     22  C   UNL     1     -34.190  21.265   0.999  0.00  0.00    +0.021 C 
BRANCH  16  23
ATOM     23  O   UNL     1     -36.939  19.645   2.740  0.00  0.00    -0.282 OA
ATOM     24  H   UNL     1     -36.314  18.971   3.049  0.00  0.00    +0.245 HD
ENDBRANCH  16  23
ENDBRANCH  15  19
ENDBRANCH  14  15
ENDBRANCH   1  14
TORSDOF 7
ENDMDL
MODEL 3
REMARK VINA RESULT:      -5.9      1.859      2.778
REMARK  Name = 5484400
REMARK  7 active torsions:
REMARK  status: ('A' for Active; 'I' for Inactive)
REMARK    1  A    between atoms: S_1  and  C_4
REMARK    2  A    between atoms: S_1  and  N_14
REMARK    3  A    between atoms: C_6  and  O_10
REMARK    4  A    between atoms: C_8  and  O_12
REMARK    5  A    between atoms: N_14  and  N_15
REMARK    6  A    between atoms: N_15  and  C_19
REMARK    7  A    between atoms: N_16  and  O_23
REMARK                            x       y       z     vdW  Elec       q    Type
REMARK                         _______ _______ _______ _____ _____    ______ ____
ROOT
ATOM      1  S   UNL     1     -34.721  27.688   2.590  0.00  0.00    +0.095 S 
ATOM      2  O   UNL     1     -35.566  27.543   1.418  0.00  0.00    -0.150 OA
ATOM      3  O   UNL     1     -34.832  28.865   3.433  0.00  0.00    -0.150 OA
ENDROOT
BRANCH   1   4
ATOM      4  C   UNL     1     -35.092  26.288   3.610  0.00  0.00    +0.128 C 
ATOM      5  C   UNL     1     -36.155  25.472   3.270  0.00  0.00    +0.060 C 
ATOM      6  C   UNL     1     -36.447  24.369   4.074  0.00  0.00    +0.174 C 
ATOM      7  C   UNL     1     -34.311  26.042   4.724  0.00  0.00    +0.023 C 
ATOM      8  C   UNL     1     -35.671  24.103   5.203  0.00  0.00    +0.172 C 
ATOM      9  C   UNL     1     -34.603  24.941   5.527  0.00  0.00    +0.041 C 
BRANCH   6  10
ATOM     10  O   UNL     1     -37.492  23.560   3.746  0.00  0.00    -0.468 OA
ATOM     11  C   UNL     1     -37.255  22.566   2.751  0.00  0.00    +0.253 C 
ENDBRANCH   6  10
BRANCH   8  12
ATOM     12  O   UNL     1     -35.946  23.031   5.995  0.00  0.00    -0.468 OA
ATOM     13  C   UNL     1     -34.997  21.966   5.998  0.00  0.00    +0.253 C 
ENDBRANCH   8  12
ENDBRANCH   1   4
BRANCH   1  14
ATOM     14  N   UNL     1     -33.151  27.460   2.197  0.00  0.00    +0.038 NA
BRANCH  14  15
ATOM     15  N   UNL     1     -32.431  28.430   2.503  0.00  0.00    -0.123 NA
BRANCH  15  19
ATOM     16  N   UNL     1     -29.884  28.227   5.181  0.00  0.00    -0.219 N 
ATOM     17  C   UNL     1     -31.028  28.562   4.439  0.00  0.00    +0.105 C 
ATOM     18  C   UNL     1     -31.962  29.494   5.089  0.00  0.00    +0.021 C 
ATOM     19  C   UNL     1     -31.318  28.099   3.211  0.00  0.00    +0.123 C 
ATOM     20  C   UNL     1     -29.662  28.748   6.444  0.00  0.00    +0.105 C 
ATOM     21  C   UNL     1     -31.713  29.982   6.319  0.00  0.00    +0.003 C 
ATOM     22  C   UNL     1     -30.515  29.598   7.037  0.00  0.00    +0.021 C 
BRANCH  16  23
ATOM     23  O   UNL     1     -28.943  27.352   4.651  0.00  0.00    -0.282 OA
ATOM     24  H   UNL     1     -28.067  27.767   4.673  0.00  0.00    +0.245 HD
ENDBRANCH  16  23
ENDBRANCH  15  19
ENDBRANCH  14  15
ENDBRANCH   1  14
TORSDOF 7
ENDMDL
MODEL 4
REMARK VINA RESULT:      -5.9      1.276      2.218
REMARK  Name = 5484400
REMARK  7 active torsions:
REMARK  status: ('A' for Active; 'I' for Inactive)
REMARK    1  A    between atoms: S_1  and  C_4
REMARK    2  A    between atoms: S_1  and  N_14
REMARK    3  A    between atoms: C_6  and  O_10
REMARK    4  A    between atoms: C_8  and  O_12
REMARK    5  A    between atoms: N_14  and  N_15
REMARK    6  A    between atoms: N_15  and  C_19
REMARK    7  A    between atoms: N_16  and  O_23
REMARK                            x       y       z     vdW  Elec       q    Type
REMARK                         _______ _______ _______ _____ _____    ______ ____
ROOT
ATOM      1  S   UNL     1     -32.858  27.719   4.397  0.00  0.00    +0.095 S 
ATOM      2  O   UNL     1     -31.641  27.307   3.720  0.00  0.00    -0.150 OA
ATOM      3  O   UNL     1     -33.740  28.699   3.790  0.00  0.00    -0.150 OA
ENDROOT
BRANCH   1   4
ATOM      4  C   UNL     1     -33.802  26.235   4.603  0.00  0.00    +0.128 C 
ATOM      5  C   UNL     1     -33.931  25.366   3.535  0.00  0.00    +0.060 C 
ATOM      6  C   UNL     1     -34.675  24.197   3.698  0.00  0.00    +0.174 C 
ATOM      7  C   UNL     1     -34.390  25.977   5.828  0.00  0.00    +0.023 C 
ATOM      8  C   UNL     1     -35.278  23.918   4.925  0.00  0.00    +0.172 C 
ATOM      9  C   UNL     1     -35.134  24.809   5.990  0.00  0.00    +0.041 C 
BRANCH   6  10
ATOM     10  O   UNL     1     -34.807  23.336   2.651  0.00  0.00    -0.468 OA
ATOM     11  C   UNL     1     -35.768  23.673   1.652  0.00  0.00    +0.253 C 
ENDBRANCH   6  10
BRANCH   8  12
ATOM     12  O   UNL     1     -36.007  22.781   5.096  0.00  0.00    -0.468 OA
ATOM     13  C   UNL     1     -35.553  21.863   6.089  0.00  0.00    +0.253 C 
ENDBRANCH   8  12
ENDBRANCH   1   4
BRANCH   1  14
ATOM     14  N   UNL     1     -32.533  28.173   5.934  0.00  0.00    +0.038 NA
BRANCH  14  15
ATOM     15  N   UNL     1     -31.965  29.280   6.001  0.00  0.00    -0.123 NA
BRANCH  15  19
ATOM     16  N   UNL     1     -28.555  29.646   7.391  0.00  0.00    -0.219 N 
ATOM     17  C   UNL     1     -29.648  29.604   6.512  0.00  0.00    +0.105 C 
ATOM     18  C   UNL     1     -29.349  29.906   5.103  0.00  0.00    +0.021 C 
ATOM     19  C   UNL     1     -30.914  29.317   6.862  0.00  0.00    +0.123 C 
ATOM     20  C   UNL     1     -27.280  29.954   6.948  0.00  0.00    +0.105 C 
ATOM     21  C   UNL     1     -28.096  30.200   4.707  0.00  0.00    +0.003 C 
ATOM     22  C   UNL     1     -27.008  30.230   5.662  0.00  0.00    +0.021 C 
BRANCH  16  23
ATOM     23  O   UNL     1     -28.738  29.377   8.742  0.00  0.00    -0.282 OA
ATOM     24  H   UNL     1     -28.697  28.420   8.891  0.00  0.00    +0.245 HD
ENDBRANCH  16  23
ENDBRANCH  15  19
ENDBRANCH  14  15
ENDBRANCH   1  14
TORSDOF 7
ENDMDL
MODEL 5
REMARK VINA RESULT:      -5.8      3.961      9.132
REMARK  Name = 5484400
REMARK  7 active torsions:
REMARK  status: ('A' for Active; 'I' for Inactive)
REMARK    1  A    between atoms: S_1  and  C_4
REMARK    2  A    between atoms: S_1  and  N_14
REMARK    3  A    between atoms: C_6  and  O_10
REMARK    4  A    between atoms: C_8  and  O_12
REMARK    5  A    between atoms: N_14  and  N_15
REMARK    6  A    between atoms: N_15  and  C_19
REMARK    7  A    between atoms: N_16  and  O_23
REMARK                            x       y       z     vdW  Elec       q    Type
REMARK                         _______ _______ _______ _____ _____    ______ ____
ROOT
ATOM      1  S   UNL     1     -36.232  23.640   4.370  0.00  0.00    +0.095 S 
ATOM      2  O   UNL     1     -36.063  22.894   5.605  0.00  0.00    -0.150 OA
ATOM      3  O   UNL     1     -37.540  24.137   3.987  0.00  0.00    -0.150 OA
ENDROOT
BRANCH   1   4
ATOM      4  C   UNL     1     -35.172  25.050   4.529  0.00  0.00    +0.128 C 
ATOM      5  C   UNL     1     -35.061  25.930   3.468  0.00  0.00    +0.060 C 
ATOM      6  C   UNL     1     -34.226  27.041   3.594  0.00  0.00    +0.174 C 
ATOM      7  C   UNL     1     -34.478  25.240   5.710  0.00  0.00    +0.023 C 
ATOM      8  C   UNL     1     -33.517  27.251   4.777  0.00  0.00    +0.172 C 
ATOM      9  C   UNL     1     -33.644  26.350   5.835  0.00  0.00    +0.041 C 
BRANCH   6  10
ATOM     10  O   UNL     1     -34.111  27.913   2.554  0.00  0.00    -0.468 OA
ATOM     11  C   UNL     1     -35.190  28.822   2.348  0.00  0.00    +0.253 C 
ENDBRANCH   6  10
BRANCH   8  12
ATOM     12  O   UNL     1     -32.698  28.331   4.911  0.00  0.00    -0.468 OA
ATOM     13  C   UNL     1     -31.967  28.444   6.131  0.00  0.00    +0.253 C 
ENDBRANCH   8  12
ENDBRANCH   1   4
BRANCH   1  14
ATOM     14  N   UNL     1     -35.582  22.822   3.113  0.00  0.00    +0.038 NA
BRANCH  14  15
ATOM     15  N   UNL     1     -35.558  21.590   3.299  0.00  0.00    -0.123 NA
BRANCH  15  19
ATOM     16  N   UNL     1     -36.389  19.199   0.599  0.00  0.00    -0.219 N 
ATOM     17  C   UNL     1     -35.694  19.947   1.561  0.00  0.00    +0.105 C 
ATOM     18  C   UNL     1     -34.253  19.671   1.669  0.00  0.00    +0.021 C 
ATOM     19  C   UNL     1     -36.243  20.872   2.369  0.00  0.00    +0.123 C 
ATOM     20  C   UNL     1     -35.747  18.262  -0.193  0.00  0.00    +0.105 C 
ATOM     21  C   UNL     1     -33.661  18.753   0.881  0.00  0.00    +0.003 C 
ATOM     22  C   UNL     1     -34.432  18.011  -0.094  0.00  0.00    +0.021 C 
BRANCH  16  23
ATOM     23  O   UNL     1     -37.755  19.388   0.423  0.00  0.00    -0.282 OA
ATOM     24  H   UNL     1     -38.194  19.399   1.288  0.00  0.00    +0.245 HD
ENDBRANCH  16  23
ENDBRANCH  15  19
ENDBRANCH  14  15
ENDBRANCH   1  14
TORSDOF 7
ENDMDL
MODEL 6
REMARK VINA RESULT:      -5.8      5.565      8.125
REMARK  Name = 5484400
REMARK  7 active torsions:
REMARK  status: ('A' for Active; 'I' for Inactive)
REMARK    1  A    between atoms: S_1  and  C_4
REMARK    2  A    between atoms: S_1  and  N_14
REMARK    3  A    between atoms: C_6  and  O_10
REMARK    4  A    between atoms: C_8  and  O_12
REMARK    5  A    between atoms: N_14  and  N_15
REMARK    6  A    between atoms: N_15  and  C_19
REMARK    7  A    between atoms: N_16  and  O_23
REMARK                            x       y       z     vdW  Elec       q    Type
REMARK                         _______ _______ _______ _____ _____    ______ ____
ROOT
ATOM      1  S   UNL     1     -35.340  21.060   0.898  0.00  0.00    +0.095 S 
ATOM      2  O   UNL     1     -34.214  21.959   1.073  0.00  0.00    -0.150 OA
ATOM      3  O   UNL     1     -36.287  21.272  -0.182  0.00  0.00    -0.150 OA
ENDROOT
BRANCH   1   4
ATOM      4  C   UNL     1     -34.624  19.460   0.647  0.00  0.00    +0.128 C 
ATOM      5  C   UNL     1     -33.410  19.166   1.238  0.00  0.00    +0.060 C 
ATOM      6  C   UNL     1     -32.846  17.905   1.040  0.00  0.00    +0.174 C 
ATOM      7  C   UNL     1     -35.296  18.538  -0.136  0.00  0.00    +0.023 C 
ATOM      8  C   UNL     1     -33.507  16.961   0.253  0.00  0.00    +0.172 C 
ATOM      9  C   UNL     1     -34.732  17.278  -0.334  0.00  0.00    +0.041 C 
BRANCH   6  10
ATOM     10  O   UNL     1     -31.650  17.608   1.620  0.00  0.00    -0.468 OA
ATOM     11  C   UNL     1     -30.473  17.974   0.901  0.00  0.00    +0.253 C 
ENDBRANCH   6  10
BRANCH   8  12
ATOM     12  O   UNL     1     -32.967  15.727   0.052  0.00  0.00    -0.468 OA
ATOM     13  C   UNL     1     -33.326  15.050  -1.151  0.00  0.00    +0.253 C 
ENDBRANCH   8  12
ENDBRANCH   1   4
BRANCH   1  14
ATOM     14  N   UNL     1     -36.161  20.887   2.301  0.00  0.00    +0.038 NA
BRANCH  14  15
ATOM     15  N   UNL     1     -35.692  21.582   3.223  0.00  0.00    -0.123 NA
BRANCH  15  19
ATOM     16  N   UNL     1     -36.791  24.855   4.556  0.00  0.00    -0.219 N 
ATOM     17  C   UNL     1     -36.009  23.745   4.201  0.00  0.00    +0.105 C 
ATOM     18  C   UNL     1     -34.587  23.820   4.570  0.00  0.00    +0.021 C 
ATOM     19  C   UNL     1     -36.461  22.651   3.563  0.00  0.00    +0.123 C 
ATOM     20  C   UNL     1     -36.245  25.946   5.211  0.00  0.00    +0.105 C 
ATOM     21  C   UNL     1     -34.090  24.896   5.208  0.00  0.00    +0.003 C 
ATOM     22  C   UNL     1     -34.947  26.013   5.547  0.00  0.00    +0.021 C 
BRANCH  16  23
ATOM     23  O   UNL     1     -38.146  24.878   4.249  0.00  0.00    -0.282 OA
ATOM     24  H   UNL     1     -38.297  25.464   3.491  0.00  0.00    +0.245 HD
ENDBRANCH  16  23
ENDBRANCH  15  19
ENDBRANCH  14  15
ENDBRANCH   1  14
TORSDOF 7
ENDMDL
MODEL 7
REMARK VINA RESULT:      -5.8      5.697      8.424
REMARK  Name = 5484400
REMARK  7 active torsions:
REMARK  status: ('A' for Active; 'I' for Inactive)
REMARK    1  A    between atoms: S_1  and  C_4
REMARK    2  A    between atoms: S_1  and  N_14
REMARK    3  A    between atoms: C_6  and  O_10
REMARK    4  A    between atoms: C_8  and  O_12
REMARK    5  A    between atoms: N_14  and  N_15
REMARK    6  A    between atoms: N_15  and  C_19
REMARK    7  A    between atoms: N_16  and  O_23
REMARK                            x       y       z     vdW  Elec       q    Type
REMARK                         _______ _______ _______ _____ _____    ______ ____
ROOT
ATOM      1  S   UNL     1     -35.468  20.752   0.990  0.00  0.00    +0.095 S 
ATOM      2  O   UNL     1     -34.529  21.857   0.907  0.00  0.00    -0.150 OA
ATOM      3  O   UNL     1     -36.564  20.648   0.043  0.00  0.00    -0.150 OA
ENDROOT
BRANCH   1   4
ATOM      4  C   UNL     1     -34.486  19.291   0.802  0.00  0.00    +0.128 C 
ATOM      5  C   UNL     1     -34.929  18.286  -0.038  0.00  0.00    +0.060 C 
ATOM      6  C   UNL     1     -34.155  17.134  -0.185  0.00  0.00    +0.174 C 
ATOM      7  C   UNL     1     -33.297  19.186   1.500  0.00  0.00    +0.023 C 
ATOM      8  C   UNL     1     -32.952  17.008   0.510  0.00  0.00    +0.172 C 
ATOM      9  C   UNL     1     -32.523  18.035   1.353  0.00  0.00    +0.041 C 
BRANCH   6  10
ATOM     10  O   UNL     1     -34.585  16.140  -1.011  0.00  0.00    -0.468 OA
ATOM     11  C   UNL     1     -35.588  15.264  -0.502  0.00  0.00    +0.253 C 
ENDBRANCH   6  10
BRANCH   8  12
ATOM     12  O   UNL     1     -32.188  15.889   0.375  0.00  0.00    -0.468 OA
ATOM     13  C   UNL     1     -31.079  15.966  -0.519  0.00  0.00    +0.253 C 
ENDBRANCH   8  12
ENDBRANCH   1   4
BRANCH   1  14
ATOM     14  N   UNL     1     -36.059  20.615   2.508  0.00  0.00    +0.038 NA
BRANCH  14  15
ATOM     15  N   UNL     1     -35.562  21.442   3.296  0.00  0.00    -0.123 NA
BRANCH  15  19
ATOM     16  N   UNL     1     -36.795  24.709   4.523  0.00  0.00    -0.219 N 
ATOM     17  C   UNL     1     -35.975  23.608   4.231  0.00  0.00    +0.105 C 
ATOM     18  C   UNL     1     -34.582  23.707   4.693  0.00  0.00    +0.021 C 
ATOM     19  C   UNL     1     -36.367  22.502   3.574  0.00  0.00    +0.123 C 
ATOM     20  C   UNL     1     -36.310  25.813   5.203  0.00  0.00    +0.105 C 
ATOM     21  C   UNL     1     -34.145  24.796   5.354  0.00  0.00    +0.003 C 
ATOM     22  C   UNL     1     -35.039  25.903   5.625  0.00  0.00    +0.021 C 
BRANCH  16  23
ATOM     23  O   UNL     1     -38.127  24.709   4.125  0.00  0.00    -0.282 OA
ATOM     24  H   UNL     1     -38.205  24.293   3.253  0.00  0.00    +0.245 HD
ENDBRANCH  16  23
ENDBRANCH  15  19
ENDBRANCH  14  15
ENDBRANCH   1  14
TORSDOF 7
ENDMDL
MODEL 8
REMARK VINA RESULT:      -5.8      1.235      2.096
REMARK  Name = 5484400
REMARK  7 active torsions:
REMARK  status: ('A' for Active; 'I' for Inactive)
REMARK    1  A    between atoms: S_1  and  C_4
REMARK    2  A    between atoms: S_1  and  N_14
REMARK    3  A    between atoms: C_6  and  O_10
REMARK    4  A    between atoms: C_8  and  O_12
REMARK    5  A    between atoms: N_14  and  N_15
REMARK    6  A    between atoms: N_15  and  C_19
REMARK    7  A    between atoms: N_16  and  O_23
REMARK                            x       y       z     vdW  Elec       q    Type
REMARK                         _______ _______ _______ _____ _____    ______ ____
ROOT
ATOM      1  S   UNL     1     -33.914  27.690   3.190  0.00  0.00    +0.095 S 
ATOM      2  O   UNL     1     -33.718  27.411   1.778  0.00  0.00    -0.150 OA
ATOM      3  O   UNL     1     -34.748  28.802   3.608  0.00  0.00    -0.150 OA
ENDROOT
BRANCH   1   4
ATOM      4  C   UNL     1     -34.641  26.221   3.860  0.00  0.00    +0.128 C 
ATOM      5  C   UNL     1     -36.005  26.033   3.744  0.00  0.00    +0.060 C 
ATOM      6  C   UNL     1     -36.578  24.875   4.272  0.00  0.00    +0.174 C 
ATOM      7  C   UNL     1     -33.827  25.294   4.485  0.00  0.00    +0.023 C 
ATOM      8  C   UNL     1     -35.775  23.927   4.908  0.00  0.00    +0.172 C 
ATOM      9  C   UNL     1     -34.399  24.137   5.014  0.00  0.00    +0.041 C 
BRANCH   6  10
ATOM     10  O   UNL     1     -37.921  24.682   4.162  0.00  0.00    -0.468 OA
ATOM     11  C   UNL     1     -38.407  24.210   2.907  0.00  0.00    +0.253 C 
ENDBRANCH   6  10
BRANCH   8  12
ATOM     12  O   UNL     1     -36.322  22.793   5.428  0.00  0.00    -0.468 OA
ATOM     13  C   UNL     1     -35.497  22.013   6.291  0.00  0.00    +0.253 C 
ENDBRANCH   8  12
ENDBRANCH   1   4
BRANCH   1  14
ATOM     14  N   UNL     1     -32.475  27.782   3.961  0.00  0.00    +0.038 NA
BRANCH  14  15
ATOM     15  N   UNL     1     -32.469  28.633   4.871  0.00  0.00    -0.123 NA
BRANCH  15  19
ATOM     16  N   UNL     1     -29.250  29.408   6.526  0.00  0.00    -0.219 N 
ATOM     17  C   UNL     1     -30.376  29.461   5.690  0.00  0.00    +0.105 C 
ATOM     18  C   UNL     1     -30.426  30.597   4.755  0.00  0.00    +0.021 C 
ATOM     19  C   UNL     1     -31.383  28.570   5.687  0.00  0.00    +0.123 C 
ATOM     20  C   UNL     1     -28.257  30.370   6.466  0.00  0.00    +0.105 C 
ATOM     21  C   UNL     1     -29.441  31.514   4.724  0.00  0.00    +0.003 C 
ATOM     22  C   UNL     1     -28.303  31.406   5.614  0.00  0.00    +0.021 C 
BRANCH  16  23
ATOM     23  O   UNL     1     -29.114  28.373   7.443  0.00  0.00    -0.282 OA
ATOM     24  H   UNL     1     -29.519  27.567   7.086  0.00  0.00    +0.245 HD
ENDBRANCH  16  23
ENDBRANCH  15  19
ENDBRANCH  14  15
ENDBRANCH   1  14
TORSDOF 7
ENDMDL
MODEL 9
REMARK VINA RESULT:      -5.8      1.756      2.121
REMARK  Name = 5484400
REMARK  7 active torsions:
REMARK  status: ('A' for Active; 'I' for Inactive)
REMARK    1  A    between atoms: S_1  and  C_4
REMARK    2  A    between atoms: S_1  and  N_14
REMARK    3  A    between atoms: C_6  and  O_10
REMARK    4  A    between atoms: C_8  and  O_12
REMARK    5  A    between atoms: N_14  and  N_15
REMARK    6  A    between atoms: N_15  and  C_19
REMARK    7  A    between atoms: N_16  and  O_23
REMARK                            x       y       z     vdW  Elec       q    Type
REMARK                         _______ _______ _______ _____ _____    ______ ____
ROOT
ATOM      1  S   UNL     1     -32.852  27.158   4.638  0.00  0.00    +0.095 S 
ATOM      2  O   UNL     1     -32.513  26.970   6.037  0.00  0.00    -0.150 OA
ATOM      3  O   UNL     1     -31.957  26.688   3.597  0.00  0.00    -0.150 OA
ENDROOT
BRANCH   1   4
ATOM      4  C   UNL     1     -34.392  26.313   4.413  0.00  0.00    +0.128 C 
ATOM      5  C   UNL     1     -34.675  25.210   5.197  0.00  0.00    +0.060 C 
ATOM      6  C   UNL     1     -35.888  24.545   5.019  0.00  0.00    +0.174 C 
ATOM      7  C   UNL     1     -35.279  26.775   3.458  0.00  0.00    +0.023 C 
ATOM      8  C   UNL     1     -36.797  24.994   4.061  0.00  0.00    +0.172 C 
ATOM      9  C   UNL     1     -36.492  26.110   3.280  0.00  0.00    +0.041 C 
BRANCH   6  10
ATOM     10  O   UNL     1     -36.174  23.457   5.788  0.00  0.00    -0.468 OA
ATOM     11  C   UNL     1     -35.128  22.507   5.981  0.00  0.00    +0.253 C 
ENDBRANCH   6  10
BRANCH   8  12
ATOM     12  O   UNL     1     -37.984  24.353   3.878  0.00  0.00    -0.468 OA
ATOM     13  C   UNL     1     -39.011  25.071   3.196  0.00  0.00    +0.253 C 
ENDBRANCH   8  12
ENDBRANCH   1   4
BRANCH   1  14
ATOM     14  N   UNL     1     -33.236  28.721   4.346  0.00  0.00    +0.038 NA
BRANCH  14  15
ATOM     15  N   UNL     1     -32.755  29.502   5.190  0.00  0.00    -0.123 NA
BRANCH  15  19
ATOM     16  N   UNL     1     -29.429  31.081   4.815  0.00  0.00    -0.219 N 
ATOM     17  C   UNL     1     -30.501  30.306   5.283  0.00  0.00    +0.105 C 
ATOM     18  C   UNL     1     -30.229  29.492   6.478  0.00  0.00    +0.021 C 
ATOM     19  C   UNL     1     -31.724  30.258   4.727  0.00  0.00    +0.123 C 
ATOM     20  C   UNL     1     -28.197  31.071   5.447  0.00  0.00    +0.105 C 
ATOM     21  C   UNL     1     -29.018  29.507   7.068  0.00  0.00    +0.003 C 
ATOM     22  C   UNL     1     -27.949  30.328   6.537  0.00  0.00    +0.021 C 
BRANCH  16  23
ATOM     23  O   UNL     1     -29.589  31.882   3.691  0.00  0.00    -0.282 OA
ATOM     24  H   UNL     1     -29.930  32.750   3.957  0.00  0.00    +0.245 HD
ENDBRANCH  16  23
ENDBRANCH  15  19
ENDBRANCH  14  15
ENDBRANCH   1  14
TORSDOF 7
ENDMDL
