MODEL 1
REMARK VINA RESULT:      -7.5      0.000      0.000
REMARK  Name = 191228
REMARK  8 active torsions:
REMARK  status: ('A' for Active; 'I' for Inactive)
REMARK    1  A    between atoms: C_1  and  C_4
REMARK    2  A    between atoms: C_1  and  O_19
REMARK    3  A    between atoms: C_3  and  O_17
REMARK    4  A    between atoms: C_6  and  N_9
REMARK    5  A    between atoms: O_19  and  P_20
REMARK    6  A    between atoms: P_20  and  O_22
REMARK    7  A    between atoms: P_20  and  N_24
REMARK    8  A    between atoms: N_24  and  C_26
REMARK                            x       y       z     vdW  Elec       q    Type
REMARK                         _______ _______ _______ _____ _____    ______ ____
ROOT
ATOM      1  C   UNL     1     -37.071  22.634   1.337  0.00  0.00    +0.185 C 
ENDROOT
BRANCH   1   4
ATOM      2  O   UNL     1     -36.951  23.346   3.623  0.00  0.00    -0.335 OA
ATOM      3  C   UNL     1     -38.839  24.107   2.408  0.00  0.00    +0.144 C 
ATOM      4  C   UNL     1     -37.875  22.943   2.594  0.00  0.00    +0.174 C 
ATOM      5  C   UNL     1     -38.001  25.308   2.779  0.00  0.00    +0.083 C 
ATOM      6  C   UNL     1     -37.091  24.753   3.862  0.00  0.00    +0.202 C 
BRANCH   6   9
ATOM      7  O   UNL     1     -36.012  26.303   5.993  0.00  0.00    -0.252 OA
ATOM      8  O   UNL     1     -32.089  27.028   3.705  0.00  0.00    -0.270 OA
ATOM      9  N   UNL     1     -35.795  25.365   3.867  0.00  0.00    -0.219 N 
ATOM     10  N   UNL     1     -34.062  26.657   4.840  0.00  0.00    -0.236 N 
ATOM     11  C   UNL     1     -34.982  25.203   2.752  0.00  0.00    +0.071 C 
ATOM     12  C   UNL     1     -35.346  26.118   4.973  0.00  0.00    +0.315 C 
ATOM     13  C   UNL     1     -33.753  25.721   2.629  0.00  0.00    +0.047 C 
ATOM     14  C   UNL     1     -33.210  26.526   3.754  0.00  0.00    +0.250 C 
ATOM     15  C   UNL     1     -32.894  25.534   1.420  0.00  0.00    +0.037 C 
ATOM     16  H   UNL     1     -33.727  27.187   5.600  0.00  0.00    +0.159 HD
ENDBRANCH   6   9
BRANCH   3  17
ATOM     17  O   UNL     1     -39.929  23.982   3.319  0.00  0.00    -0.382 OA
ATOM     18  H   UNL     1     -40.766  24.046   2.832  0.00  0.00    +0.210 HD
ENDBRANCH   3  17
ENDBRANCH   1   4
BRANCH   1  19
ATOM     19  O   UNL     1     -37.391  21.324   0.898  0.00  0.00    -0.278 OA
BRANCH  19  20
ATOM     20  P   UNL     1     -36.330  20.107   1.120  0.00  0.00    +0.425 P 
ATOM     21  O   UNL     1     -36.620  18.974   0.166  0.00  0.00    -0.236 OA
BRANCH  20  22
ATOM     22  O   UNL     1     -36.706  19.653   2.639  0.00  0.00    -0.309 OA
ATOM     23  H   UNL     1     -37.077  18.756   2.626  0.00  0.00    +0.221 HD
ENDBRANCH  20  22
BRANCH  20  24
ATOM     24  N   UNL     1     -34.813  20.753   1.196  0.00  0.00    -0.251 N 
ATOM     25  H   UNL     1     -34.745  21.709   1.420  0.00  0.00    +0.158 HD
BRANCH  24  26
ATOM     26  C   UNL     1     -33.605  20.061   0.972  0.00  0.00    +0.053 C 
ATOM     27  C   UNL     1     -32.555  20.624   0.222  0.00  0.00    +0.014 C 
ATOM     28  C   UNL     1     -31.364  19.886   0.026  0.00  0.00    +0.001 C 
ATOM     29  C   UNL     1     -33.471  18.780   1.518  0.00  0.00    +0.015 C 
ATOM     30  C   UNL     1     -32.667  21.908  -0.335  0.00  0.00    +0.001 C 
ATOM     31  C   UNL     1     -31.252  18.602   0.584  0.00  0.00    +0.000 C 
ATOM     32  C   UNL     1     -32.300  18.054   1.325  0.00  0.00    +0.001 C 
ATOM     33  C   UNL     1     -30.320  20.453  -0.723  0.00  0.00    +0.000 C 
ATOM     34  C   UNL     1     -31.619  22.456  -1.077  0.00  0.00    +0.000 C 
ATOM     35  C   UNL     1     -30.449  21.731  -1.270  0.00  0.00    +0.000 C 
ENDBRANCH  24  26
ENDBRANCH  20  24
ENDBRANCH  19  20
ENDBRANCH   1  19
TORSDOF 8
ENDMDL
MODEL 2
REMARK VINA RESULT:      -7.4      0.813      1.916
REMARK  Name = 191228
REMARK  8 active torsions:
REMARK  status: ('A' for Active; 'I' for Inactive)
REMARK    1  A    between atoms: C_1  and  C_4
REMARK    2  A    between atoms: C_1  and  O_19
REMARK    3  A    between atoms: C_3  and  O_17
REMARK    4  A    between atoms: C_6  and  N_9
REMARK    5  A    between atoms: O_19  and  P_20
REMARK    6  A    between atoms: P_20  and  O_22
REMARK    7  A    between atoms: P_20  and  N_24
REMARK    8  A    between atoms: N_24  and  C_26
REMARK                            x       y       z     vdW  Elec       q    Type
REMARK                         _______ _______ _______ _____ _____    ______ ____
ROOT
ATOM      1  C   UNL     1     -37.463  22.799   1.683  0.00  0.00    +0.185 C 
ENDROOT
BRANCH   1   4
ATOM      2  O   UNL     1     -36.947  23.702   3.843  0.00  0.00    -0.335 OA
ATOM      3  C   UNL     1     -38.860  24.614   2.778  0.00  0.00    +0.144 C 
ATOM      4  C   UNL     1     -38.045  23.344   2.982  0.00  0.00    +0.174 C 
ATOM      5  C   UNL     1     -37.825  25.708   2.908  0.00  0.00    +0.083 C 
ATOM      6  C   UNL     1     -36.863  25.131   3.934  0.00  0.00    +0.202 C 
BRANCH   6   9
ATOM      7  O   UNL     1     -35.164  26.300   5.898  0.00  0.00    -0.252 OA
ATOM      8  O   UNL     1     -31.678  26.648   2.919  0.00  0.00    -0.270 OA
ATOM      9  N   UNL     1     -35.507  25.542   3.717  0.00  0.00    -0.219 N 
ATOM     10  N   UNL     1     -33.435  26.468   4.401  0.00  0.00    -0.236 N 
ATOM     11  C   UNL     1     -34.956  25.367   2.454  0.00  0.00    +0.071 C 
ATOM     12  C   UNL     1     -34.741  26.114   4.756  0.00  0.00    +0.315 C 
ATOM     13  C   UNL     1     -33.705  25.707   2.119  0.00  0.00    +0.047 C 
ATOM     14  C   UNL     1     -32.836  26.315   3.160  0.00  0.00    +0.250 C 
ATOM     15  C   UNL     1     -33.132  25.510   0.753  0.00  0.00    +0.037 C 
ATOM     16  H   UNL     1     -32.881  26.869   5.110  0.00  0.00    +0.159 HD
ENDBRANCH   6   9
BRANCH   3  17
ATOM     17  O   UNL     1     -39.826  24.741   3.819  0.00  0.00    -0.382 OA
ATOM     18  H   UNL     1     -40.587  25.247   3.493  0.00  0.00    +0.210 HD
ENDBRANCH   3  17
ENDBRANCH   1   4
BRANCH   1  19
ATOM     19  O   UNL     1     -36.308  22.032   1.984  0.00  0.00    -0.278 OA
BRANCH  19  20
ATOM     20  P   UNL     1     -36.197  20.489   1.472  0.00  0.00    +0.425 P 
ATOM     21  O   UNL     1     -36.938  20.311   0.168  0.00  0.00    -0.236 OA
BRANCH  20  22
ATOM     22  O   UNL     1     -36.996  19.717   2.664  0.00  0.00    -0.309 OA
ATOM     23  H   UNL     1     -37.940  19.670   2.444  0.00  0.00    +0.221 HD
ENDBRANCH  20  22
BRANCH  20  24
ATOM     24  N   UNL     1     -34.620  20.017   1.594  0.00  0.00    -0.251 N 
ATOM     25  H   UNL     1     -34.405  19.355   2.291  0.00  0.00    +0.158 HD
BRANCH  24  26
ATOM     26  C   UNL     1     -33.553  20.472   0.792  0.00  0.00    +0.053 C 
ATOM     27  C   UNL     1     -32.382  19.711   0.614  0.00  0.00    +0.014 C 
ATOM     28  C   UNL     1     -31.341  20.215  -0.200  0.00  0.00    +0.001 C 
ATOM     29  C   UNL     1     -33.685  21.718   0.171  0.00  0.00    +0.015 C 
ATOM     30  C   UNL     1     -32.228  18.458   1.229  0.00  0.00    +0.001 C 
ATOM     31  C   UNL     1     -31.495  21.468  -0.816  0.00  0.00    +0.000 C 
ATOM     32  C   UNL     1     -32.660  22.213  -0.630  0.00  0.00    +0.001 C 
ATOM     33  C   UNL     1     -30.175  19.451  -0.375  0.00  0.00    +0.000 C 
ATOM     34  C   UNL     1     -31.062  17.712   1.044  0.00  0.00    +0.000 C 
ATOM     35  C   UNL     1     -30.039  18.208   0.244  0.00  0.00    +0.000 C 
ENDBRANCH  24  26
ENDBRANCH  20  24
ENDBRANCH  19  20
ENDBRANCH   1  19
TORSDOF 8
ENDMDL
MODEL 3
REMARK VINA RESULT:      -7.3      3.558      4.635
REMARK  Name = 191228
REMARK  8 active torsions:
REMARK  status: ('A' for Active; 'I' for Inactive)
REMARK    1  A    between atoms: C_1  and  C_4
REMARK    2  A    between atoms: C_1  and  O_19
REMARK    3  A    between atoms: C_3  and  O_17
REMARK    4  A    between atoms: C_6  and  N_9
REMARK    5  A    between atoms: O_19  and  P_20
REMARK    6  A    between atoms: P_20  and  O_22
REMARK    7  A    between atoms: P_20  and  N_24
REMARK    8  A    between atoms: N_24  and  C_26
REMARK                            x       y       z     vdW  Elec       q    Type
REMARK                         _______ _______ _______ _____ _____    ______ ____
ROOT
ATOM      1  C   UNL     1     -37.569  21.013  -0.133  0.00  0.00    +0.185 C 
ENDROOT
BRANCH   1   4
ATOM      2  O   UNL     1     -38.762  21.942   1.727  0.00  0.00    -0.335 OA
ATOM      3  C   UNL     1     -40.082  21.367  -0.157  0.00  0.00    +0.144 C 
ATOM      4  C   UNL     1     -38.865  20.972   0.668  0.00  0.00    +0.174 C 
ATOM      5  C   UNL     1     -40.145  22.866   0.023  0.00  0.00    +0.083 C 
ATOM      6  C   UNL     1     -39.628  23.049   1.441  0.00  0.00    +0.202 C 
BRANCH   6   9
ATOM      7  O   UNL     1     -39.503  24.554   3.855  0.00  0.00    -0.252 OA
ATOM      8  O   UNL     1     -36.802  27.738   1.928  0.00  0.00    -0.270 OA
ATOM      9  N   UNL     1     -38.906  24.275   1.616  0.00  0.00    -0.219 N 
ATOM     10  N   UNL     1     -38.157  26.135   2.881  0.00  0.00    -0.236 N 
ATOM     11  C   UNL     1     -38.204  24.789   0.534  0.00  0.00    +0.071 C 
ATOM     12  C   UNL     1     -38.903  24.951   2.855  0.00  0.00    +0.315 C 
ATOM     13  C   UNL     1     -37.490  25.923   0.563  0.00  0.00    +0.047 C 
ATOM     14  C   UNL     1     -37.439  26.692   1.834  0.00  0.00    +0.250 C 
ATOM     15  C   UNL     1     -36.742  26.459  -0.614  0.00  0.00    +0.037 C 
ATOM     16  H   UNL     1     -38.140  26.625   3.735  0.00  0.00    +0.159 HD
ENDBRANCH   6   9
BRANCH   3  17
ATOM     17  O   UNL     1     -41.254  20.768   0.392  0.00  0.00    -0.382 OA
ATOM     18  H   UNL     1     -41.055  20.420   1.276  0.00  0.00    +0.210 HD
ENDBRANCH   3  17
ENDBRANCH   1   4
BRANCH   1  19
ATOM     19  O   UNL     1     -36.639  20.115   0.452  0.00  0.00    -0.278 OA
BRANCH  19  20
ATOM     20  P   UNL     1     -35.762  20.576   1.744  0.00  0.00    +0.425 P 
ATOM     21  O   UNL     1     -34.382  19.965   1.692  0.00  0.00    -0.236 OA
BRANCH  20  22
ATOM     22  O   UNL     1     -36.618  19.892   2.950  0.00  0.00    -0.309 OA
ATOM     23  H   UNL     1     -36.124  19.137   3.309  0.00  0.00    +0.221 HD
ENDBRANCH  20  22
BRANCH  20  24
ATOM     24  N   UNL     1     -35.933  22.208   1.929  0.00  0.00    -0.251 N 
ATOM     25  H   UNL     1     -36.376  22.696   1.198  0.00  0.00    +0.158 HD
BRANCH  24  26
ATOM     26  C   UNL     1     -35.506  22.967   3.038  0.00  0.00    +0.053 C 
ATOM     27  C   UNL     1     -34.736  24.136   2.885  0.00  0.00    +0.014 C 
ATOM     28  C   UNL     1     -34.332  24.859   4.032  0.00  0.00    +0.001 C 
ATOM     29  C   UNL     1     -35.867  22.523   4.314  0.00  0.00    +0.015 C 
ATOM     30  C   UNL     1     -34.362  24.599   1.614  0.00  0.00    +0.001 C 
ATOM     31  C   UNL     1     -34.707  24.396   5.304  0.00  0.00    +0.000 C 
ATOM     32  C   UNL     1     -35.469  23.235   5.443  0.00  0.00    +0.001 C 
ATOM     33  C   UNL     1     -33.565  26.025   3.874  0.00  0.00    +0.000 C 
ATOM     34  C   UNL     1     -33.599  25.760   1.475  0.00  0.00    +0.000 C 
ATOM     35  C   UNL     1     -33.202  26.471   2.602  0.00  0.00    +0.000 C 
ENDBRANCH  24  26
ENDBRANCH  20  24
ENDBRANCH  19  20
ENDBRANCH   1  19
TORSDOF 8
ENDMDL
MODEL 4
REMARK VINA RESULT:      -7.3      1.985      4.281
REMARK  Name = 191228
REMARK  8 active torsions:
REMARK  status: ('A' for Active; 'I' for Inactive)
REMARK    1  A    between atoms: C_1  and  C_4
REMARK    2  A    between atoms: C_1  and  O_19
REMARK    3  A    between atoms: C_3  and  O_17
REMARK    4  A    between atoms: C_6  and  N_9
REMARK    5  A    between atoms: O_19  and  P_20
REMARK    6  A    between atoms: P_20  and  O_22
REMARK    7  A    between atoms: P_20  and  N_24
REMARK    8  A    between atoms: N_24  and  C_26
REMARK                            x       y       z     vdW  Elec       q    Type
REMARK                         _______ _______ _______ _____ _____    ______ ____
ROOT
ATOM      1  C   UNL     1     -34.870  23.274   4.381  0.00  0.00    +0.185 C 
ENDROOT
BRANCH   1   4
ATOM      2  O   UNL     1     -34.540  25.394   3.312  0.00  0.00    -0.335 OA
ATOM      3  C   UNL     1     -34.551  25.429   5.683  0.00  0.00    +0.144 C 
ATOM      4  C   UNL     1     -34.152  24.616   4.460  0.00  0.00    +0.174 C 
ATOM      5  C   UNL     1     -35.744  26.219   5.194  0.00  0.00    +0.083 C 
ATOM      6  C   UNL     1     -35.401  26.462   3.733  0.00  0.00    +0.202 C 
BRANCH   6   9
ATOM      7  O   UNL     1     -35.635  27.976   1.333  0.00  0.00    -0.252 OA
ATOM      8  O   UNL     1     -39.928  26.488   0.616  0.00  0.00    -0.270 OA
ATOM      9  N   UNL     1     -36.558  26.501   2.889  0.00  0.00    -0.219 N 
ATOM     10  N   UNL     1     -37.775  27.226   0.988  0.00  0.00    -0.236 N 
ATOM     11  C   UNL     1     -37.667  25.747   3.252  0.00  0.00    +0.071 C 
ATOM     12  C   UNL     1     -36.581  27.283   1.714  0.00  0.00    +0.315 C 
ATOM     13  C   UNL     1     -38.809  25.695   2.553  0.00  0.00    +0.047 C 
ATOM     14  C   UNL     1     -38.909  26.492   1.303  0.00  0.00    +0.250 C 
ATOM     15  C   UNL     1     -39.991  24.877   2.962  0.00  0.00    +0.037 C 
ATOM     16  H   UNL     1     -37.815  27.764   0.165  0.00  0.00    +0.159 HD
ENDBRANCH   6   9
BRANCH   3  17
ATOM     17  O   UNL     1     -33.497  26.322   6.036  0.00  0.00    -0.382 OA
ATOM     18  H   UNL     1     -33.536  26.508   6.987  0.00  0.00    +0.210 HD
ENDBRANCH   3  17
ENDBRANCH   1   4
BRANCH   1  19
ATOM     19  O   UNL     1     -35.055  22.933   3.017  0.00  0.00    -0.278 OA
BRANCH  19  20
ATOM     20  P   UNL     1     -36.107  21.758   2.605  0.00  0.00    +0.425 P 
ATOM     21  O   UNL     1     -37.528  22.247   2.750  0.00  0.00    -0.236 OA
BRANCH  20  22
ATOM     22  O   UNL     1     -35.789  20.651   3.757  0.00  0.00    -0.309 OA
ATOM     23  H   UNL     1     -35.625  21.101   4.602  0.00  0.00    +0.221 HD
ENDBRANCH  20  22
BRANCH  20  24
ATOM     24  N   UNL     1     -35.606  21.094   1.179  0.00  0.00    -0.251 N 
ATOM     25  H   UNL     1     -36.254  20.534   0.695  0.00  0.00    +0.158 HD
BRANCH  24  26
ATOM     26  C   UNL     1     -34.334  21.255   0.590  0.00  0.00    +0.053 C 
ATOM     27  C   UNL     1     -33.347  20.254   0.670  0.00  0.00    +0.014 C 
ATOM     28  C   UNL     1     -32.088  20.468   0.062  0.00  0.00    +0.001 C 
ATOM     29  C   UNL     1     -34.071  22.452  -0.083  0.00  0.00    +0.015 C 
ATOM     30  C   UNL     1     -33.590  19.045   1.341  0.00  0.00    +0.001 C 
ATOM     31  C   UNL     1     -31.845  21.678  -0.609  0.00  0.00    +0.000 C 
ATOM     32  C   UNL     1     -32.831  22.662  -0.680  0.00  0.00    +0.001 C 
ATOM     33  C   UNL     1     -31.107  19.466   0.145  0.00  0.00    +0.000 C 
ATOM     34  C   UNL     1     -32.604  18.060   1.413  0.00  0.00    +0.000 C 
ATOM     35  C   UNL     1     -31.366  18.270   0.815  0.00  0.00    +0.000 C 
ENDBRANCH  24  26
ENDBRANCH  20  24
ENDBRANCH  19  20
ENDBRANCH   1  19
TORSDOF 8
ENDMDL
MODEL 5
REMARK VINA RESULT:      -7.2      4.327      6.843
REMARK  Name = 191228
REMARK  8 active torsions:
REMARK  status: ('A' for Active; 'I' for Inactive)
REMARK    1  A    between atoms: C_1  and  C_4
REMARK    2  A    between atoms: C_1  and  O_19
REMARK    3  A    between atoms: C_3  and  O_17
REMARK    4  A    between atoms: C_6  and  N_9
REMARK    5  A    between atoms: O_19  and  P_20
REMARK    6  A    between atoms: P_20  and  O_22
REMARK    7  A    between atoms: P_20  and  N_24
REMARK    8  A    between atoms: N_24  and  C_26
REMARK                            x       y       z     vdW  Elec       q    Type
REMARK                         _______ _______ _______ _____ _____    ______ ____
ROOT
ATOM      1  C   UNL     1     -33.665  28.358   2.867  0.00  0.00    +0.185 C 
ENDROOT
BRANCH   1   4
ATOM      2  O   UNL     1     -32.898  29.877   4.556  0.00  0.00    -0.335 OA
ATOM      3  C   UNL     1     -32.606  30.598   2.316  0.00  0.00    +0.144 C 
ATOM      4  C   UNL     1     -33.518  29.824   3.257  0.00  0.00    +0.174 C 
ATOM      5  C   UNL     1     -31.239  30.409   2.933  0.00  0.00    +0.083 C 
ATOM      6  C   UNL     1     -31.553  30.357   4.419  0.00  0.00    +0.202 C 
BRANCH   6   9
ATOM      7  O   UNL     1     -31.634  29.908   7.230  0.00  0.00    -0.252 OA
ATOM      8  O   UNL     1     -28.060  27.019   7.040  0.00  0.00    -0.270 OA
ATOM      9  N   UNL     1     -30.665  29.498   5.146  0.00  0.00    -0.219 N 
ATOM     10  N   UNL     1     -29.851  28.470   7.121  0.00  0.00    -0.236 N 
ATOM     11  C   UNL     1     -29.678  28.820   4.443  0.00  0.00    +0.071 C 
ATOM     12  C   UNL     1     -30.784  29.338   6.543  0.00  0.00    +0.315 C 
ATOM     13  C   UNL     1     -28.787  27.989   4.999  0.00  0.00    +0.047 C 
ATOM     14  C   UNL     1     -28.848  27.769   6.468  0.00  0.00    +0.250 C 
ATOM     15  C   UNL     1     -27.731  27.270   4.224  0.00  0.00    +0.037 C 
ATOM     16  H   UNL     1     -29.913  28.343   8.095  0.00  0.00    +0.159 HD
ENDBRANCH   6   9
BRANCH   3  17
ATOM     17  O   UNL     1     -32.953  31.981   2.333  0.00  0.00    -0.382 OA
ATOM     18  H   UNL     1     -32.341  32.461   2.913  0.00  0.00    +0.210 HD
ENDBRANCH   3  17
ENDBRANCH   1   4
BRANCH   1  19
ATOM     19  O   UNL     1     -34.626  27.752   3.716  0.00  0.00    -0.278 OA
BRANCH  19  20
ATOM     20  P   UNL     1     -34.237  26.417   4.566  0.00  0.00    +0.425 P 
ATOM     21  O   UNL     1     -33.715  26.795   5.932  0.00  0.00    -0.236 OA
BRANCH  20  22
ATOM     22  O   UNL     1     -33.019  25.826   3.660  0.00  0.00    -0.309 OA
ATOM     23  H   UNL     1     -32.921  24.875   3.829  0.00  0.00    +0.221 HD
ENDBRANCH  20  22
BRANCH  20  24
ATOM     24  N   UNL     1     -35.478  25.337   4.428  0.00  0.00    -0.251 N 
ATOM     25  H   UNL     1     -36.353  25.695   4.154  0.00  0.00    +0.158 HD
BRANCH  24  26
ATOM     26  C   UNL     1     -35.399  23.949   4.665  0.00  0.00    +0.053 C 
ATOM     27  C   UNL     1     -35.388  23.016   3.610  0.00  0.00    +0.014 C 
ATOM     28  C   UNL     1     -35.309  21.634   3.904  0.00  0.00    +0.001 C 
ATOM     29  C   UNL     1     -35.336  23.513   5.992  0.00  0.00    +0.015 C 
ATOM     30  C   UNL     1     -35.450  23.432   2.271  0.00  0.00    +0.001 C 
ATOM     31  C   UNL     1     -35.245  21.219   5.244  0.00  0.00    +0.000 C 
ATOM     32  C   UNL     1     -35.259  22.153   6.280  0.00  0.00    +0.001 C 
ATOM     33  C   UNL     1     -35.297  20.708   2.848  0.00  0.00    +0.000 C 
ATOM     34  C   UNL     1     -35.437  22.497   1.234  0.00  0.00    +0.000 C 
ATOM     35  C   UNL     1     -35.360  21.139   1.523  0.00  0.00    +0.000 C 
ENDBRANCH  24  26
ENDBRANCH  20  24
ENDBRANCH  19  20
ENDBRANCH   1  19
TORSDOF 8
ENDMDL
MODEL 6
REMARK VINA RESULT:      -7.1      2.870      5.864
REMARK  Name = 191228
REMARK  8 active torsions:
REMARK  status: ('A' for Active; 'I' for Inactive)
REMARK    1  A    between atoms: C_1  and  C_4
REMARK    2  A    between atoms: C_1  and  O_19
REMARK    3  A    between atoms: C_3  and  O_17
REMARK    4  A    between atoms: C_6  and  N_9
REMARK    5  A    between atoms: O_19  and  P_20
REMARK    6  A    between atoms: P_20  and  O_22
REMARK    7  A    between atoms: P_20  and  N_24
REMARK    8  A    between atoms: N_24  and  C_26
REMARK                            x       y       z     vdW  Elec       q    Type
REMARK                         _______ _______ _______ _____ _____    ______ ____
ROOT
ATOM      1  C   UNL     1     -36.208  26.947   1.782  0.00  0.00    +0.185 C 
ENDROOT
BRANCH   1   4
ATOM      2  O   UNL     1     -35.952  25.794   3.868  0.00  0.00    -0.335 OA
ATOM      3  C   UNL     1     -34.065  27.033   3.140  0.00  0.00    +0.144 C 
ATOM      4  C   UNL     1     -35.587  27.002   3.172  0.00  0.00    +0.174 C 
ATOM      5  C   UNL     1     -33.693  25.568   3.150  0.00  0.00    +0.083 C 
ATOM      6  C   UNL     1     -34.797  24.954   3.995  0.00  0.00    +0.202 C 
BRANCH   6   9
ATOM      7  O   UNL     1     -36.154  23.037   5.605  0.00  0.00    -0.252 OA
ATOM      8  O   UNL     1     -36.003  19.877   2.267  0.00  0.00    -0.270 OA
ATOM      9  N   UNL     1     -35.132  23.621   3.589  0.00  0.00    -0.219 N 
ATOM     10  N   UNL     1     -36.071  21.471   3.932  0.00  0.00    -0.236 N 
ATOM     11  C   UNL     1     -34.776  23.209   2.312  0.00  0.00    +0.071 C 
ATOM     12  C   UNL     1     -35.809  22.739   4.460  0.00  0.00    +0.315 C 
ATOM     13  C   UNL     1     -35.029  21.993   1.809  0.00  0.00    +0.047 C 
ATOM     14  C   UNL     1     -35.739  21.009   2.667  0.00  0.00    +0.250 C 
ATOM     15  C   UNL     1     -34.636  21.570   0.431  0.00  0.00    +0.037 C 
ATOM     16  H   UNL     1     -36.542  20.838   4.521  0.00  0.00    +0.159 HD
ENDBRANCH   6   9
BRANCH   3  17
ATOM     17  O   UNL     1     -33.569  27.662   4.319  0.00  0.00    -0.382 OA
ATOM     18  H   UNL     1     -32.615  27.500   4.395  0.00  0.00    +0.210 HD
ENDBRANCH   3  17
ENDBRANCH   1   4
BRANCH   1  19
ATOM     19  O   UNL     1     -37.573  27.319   1.874  0.00  0.00    -0.278 OA
BRANCH  19  20
ATOM     20  P   UNL     1     -38.729  26.172   1.937  0.00  0.00    +0.425 P 
ATOM     21  O   UNL     1     -39.745  26.385   0.840  0.00  0.00    -0.236 OA
BRANCH  20  22
ATOM     22  O   UNL     1     -39.406  26.504   3.381  0.00  0.00    -0.309 OA
ATOM     23  H   UNL     1     -40.215  25.978   3.489  0.00  0.00    +0.221 HD
ENDBRANCH  20  22
BRANCH  20  24
ATOM     24  N   UNL     1     -37.991  24.704   2.103  0.00  0.00    -0.251 N 
ATOM     25  H   UNL     1     -37.195  24.667   2.680  0.00  0.00    +0.158 HD
BRANCH  24  26
ATOM     26  C   UNL     1     -38.397  23.499   1.494  0.00  0.00    +0.053 C 
ATOM     27  C   UNL     1     -38.016  23.166   0.180  0.00  0.00    +0.014 C 
ATOM     28  C   UNL     1     -38.452  21.943  -0.383  0.00  0.00    +0.001 C 
ATOM     29  C   UNL     1     -39.204  22.629   2.235  0.00  0.00    +0.015 C 
ATOM     30  C   UNL     1     -37.207  24.024  -0.582  0.00  0.00    +0.001 C 
ATOM     31  C   UNL     1     -39.260  21.085   0.380  0.00  0.00    +0.000 C 
ATOM     32  C   UNL     1     -39.633  21.427   1.680  0.00  0.00    +0.001 C 
ATOM     33  C   UNL     1     -38.067  21.616  -1.694  0.00  0.00    +0.000 C 
ATOM     34  C   UNL     1     -36.834  23.682  -1.883  0.00  0.00    +0.000 C 
ATOM     35  C   UNL     1     -37.264  22.480  -2.437  0.00  0.00    +0.000 C 
ENDBRANCH  24  26
ENDBRANCH  20  24
ENDBRANCH  19  20
ENDBRANCH   1  19
TORSDOF 8
ENDMDL
MODEL 7
REMARK VINA RESULT:      -7.1      1.497      1.681
REMARK  Name = 191228
REMARK  8 active torsions:
REMARK  status: ('A' for Active; 'I' for Inactive)
REMARK    1  A    between atoms: C_1  and  C_4
REMARK    2  A    between atoms: C_1  and  O_19
REMARK    3  A    between atoms: C_3  and  O_17
REMARK    4  A    between atoms: C_6  and  N_9
REMARK    5  A    between atoms: O_19  and  P_20
REMARK    6  A    between atoms: P_20  and  O_22
REMARK    7  A    between atoms: P_20  and  N_24
REMARK    8  A    between atoms: N_24  and  C_26
REMARK                            x       y       z     vdW  Elec       q    Type
REMARK                         _______ _______ _______ _____ _____    ______ ____
ROOT
ATOM      1  C   UNL     1     -37.067  21.354   0.105  0.00  0.00    +0.185 C 
ENDROOT
BRANCH   1   4
ATOM      2  O   UNL     1     -37.088  21.530   2.496  0.00  0.00    -0.335 OA
ATOM      3  C   UNL     1     -39.029  22.326   1.390  0.00  0.00    +0.144 C 
ATOM      4  C   UNL     1     -37.932  21.271   1.357  0.00  0.00    +0.174 C 
ATOM      5  C   UNL     1     -38.355  23.499   2.064  0.00  0.00    +0.083 C 
ATOM      6  C   UNL     1     -37.407  22.819   3.038  0.00  0.00    +0.202 C 
BRANCH   6   9
ATOM      7  O   UNL     1     -36.177  23.281   5.565  0.00  0.00    -0.252 OA
ATOM      8  O   UNL     1     -32.758  25.686   3.648  0.00  0.00    -0.270 OA
ATOM      9  N   UNL     1     -36.198  23.559   3.247  0.00  0.00    -0.219 N 
ATOM     10  N   UNL     1     -34.479  24.479   4.595  0.00  0.00    -0.236 N 
ATOM     11  C   UNL     1     -35.557  24.104   2.142  0.00  0.00    +0.071 C 
ATOM     12  C   UNL     1     -35.662  23.735   4.541  0.00  0.00    +0.315 C 
ATOM     13  C   UNL     1     -34.423  24.815   2.198  0.00  0.00    +0.047 C 
ATOM     14  C   UNL     1     -33.798  25.044   3.527  0.00  0.00    +0.250 C 
ATOM     15  C   UNL     1     -33.749  25.393   0.996  0.00  0.00    +0.037 C 
ATOM     16  H   UNL     1     -34.086  24.616   5.488  0.00  0.00    +0.159 HD
ENDBRANCH   6   9
BRANCH   3  17
ATOM     17  O   UNL     1     -40.115  21.871   2.193  0.00  0.00    -0.382 OA
ATOM     18  H   UNL     1     -40.954  22.110   1.767  0.00  0.00    +0.210 HD
ENDBRANCH   3  17
ENDBRANCH   1   4
BRANCH   1  19
ATOM     19  O   UNL     1     -37.140  20.118  -0.586  0.00  0.00    -0.278 OA
BRANCH  19  20
ATOM     20  P   UNL     1     -36.144  18.895  -0.177  0.00  0.00    +0.425 P 
ATOM     21  O   UNL     1     -35.752  18.101  -1.400  0.00  0.00    -0.236 OA
BRANCH  20  22
ATOM     22  O   UNL     1     -37.131  18.002   0.762  0.00  0.00    -0.309 OA
ATOM     23  H   UNL     1     -37.902  18.534   1.019  0.00  0.00    +0.221 HD
ENDBRANCH  20  22
BRANCH  20  24
ATOM     24  N   UNL     1     -34.976  19.494   0.825  0.00  0.00    -0.251 N 
ATOM     25  H   UNL     1     -35.278  20.026   1.595  0.00  0.00    +0.158 HD
BRANCH  24  26
ATOM     26  C   UNL     1     -33.585  19.311   0.679  0.00  0.00    +0.053 C 
ATOM     27  C   UNL     1     -32.769  20.283   0.069  0.00  0.00    +0.014 C 
ATOM     28  C   UNL     1     -31.379  20.050  -0.053  0.00  0.00    +0.001 C 
ATOM     29  C   UNL     1     -33.026  18.123   1.159  0.00  0.00    +0.015 C 
ATOM     30  C   UNL     1     -33.309  21.484  -0.420  0.00  0.00    +0.001 C 
ATOM     31  C   UNL     1     -30.839  18.849   0.437  0.00  0.00    +0.000 C 
ATOM     32  C   UNL     1     -31.658  17.893   1.038  0.00  0.00    +0.001 C 
ATOM     33  C   UNL     1     -30.570  21.023  -0.661  0.00  0.00    +0.000 C 
ATOM     34  C   UNL     1     -32.490  22.440  -1.022  0.00  0.00    +0.000 C 
ATOM     35  C   UNL     1     -31.124  22.210  -1.142  0.00  0.00    +0.000 C 
ENDBRANCH  24  26
ENDBRANCH  20  24
ENDBRANCH  19  20
ENDBRANCH   1  19
TORSDOF 8
ENDMDL
MODEL 8
REMARK VINA RESULT:      -7.1      2.605      3.523
REMARK  Name = 191228
REMARK  8 active torsions:
REMARK  status: ('A' for Active; 'I' for Inactive)
REMARK    1  A    between atoms: C_1  and  C_4
REMARK    2  A    between atoms: C_1  and  O_19
REMARK    3  A    between atoms: C_3  and  O_17
REMARK    4  A    between atoms: C_6  and  N_9
REMARK    5  A    between atoms: O_19  and  P_20
REMARK    6  A    between atoms: P_20  and  O_22
REMARK    7  A    between atoms: P_20  and  N_24
REMARK    8  A    between atoms: N_24  and  C_26
REMARK                            x       y       z     vdW  Elec       q    Type
REMARK                         _______ _______ _______ _____ _____    ______ ____
ROOT
ATOM      1  C   UNL     1     -40.110  23.753   2.256  0.00  0.00    +0.185 C 
ENDROOT
BRANCH   1   4
ATOM      2  O   UNL     1     -38.797  25.298   3.536  0.00  0.00    -0.335 OA
ATOM      3  C   UNL     1     -38.709  25.578   1.182  0.00  0.00    +0.144 C 
ATOM      4  C   UNL     1     -39.607  25.189   2.349  0.00  0.00    +0.174 C 
ATOM      5  C   UNL     1     -37.333  25.178   1.662  0.00  0.00    +0.083 C 
ATOM      6  C   UNL     1     -37.419  25.430   3.158  0.00  0.00    +0.202 C 
BRANCH   6   9
ATOM      7  O   UNL     1     -36.235  25.994   5.686  0.00  0.00    -0.252 OA
ATOM      8  O   UNL     1     -34.407  21.782   5.956  0.00  0.00    -0.270 OA
ATOM      9  N   UNL     1     -36.627  24.513   3.924  0.00  0.00    -0.219 N 
ATOM     10  N   UNL     1     -35.329  23.890   5.807  0.00  0.00    -0.236 N 
ATOM     11  C   UNL     1     -36.406  23.242   3.411  0.00  0.00    +0.071 C 
ATOM     12  C   UNL     1     -36.080  24.884   5.171  0.00  0.00    +0.315 C 
ATOM     13  C   UNL     1     -35.686  22.292   4.023  0.00  0.00    +0.047 C 
ATOM     14  C   UNL     1     -35.078  22.608   5.342  0.00  0.00    +0.250 C 
ATOM     15  C   UNL     1     -35.460  20.930   3.452  0.00  0.00    +0.037 C 
ATOM     16  H   UNL     1     -34.936  24.126   6.679  0.00  0.00    +0.159 HD
ENDBRANCH   6   9
BRANCH   3  17
ATOM     17  O   UNL     1     -38.757  26.989   0.984  0.00  0.00    -0.382 OA
ATOM     18  H   UNL     1     -38.533  27.440   1.813  0.00  0.00    +0.210 HD
ENDBRANCH   3  17
ENDBRANCH   1   4
BRANCH   1  19
ATOM     19  O   UNL     1     -39.779  23.233   0.979  0.00  0.00    -0.278 OA
BRANCH  19  20
ATOM     20  P   UNL     1     -39.565  21.630   0.782  0.00  0.00    +0.425 P 
ATOM     21  O   UNL     1     -40.894  20.938   0.601  0.00  0.00    -0.236 OA
BRANCH  20  22
ATOM     22  O   UNL     1     -38.932  21.229   2.229  0.00  0.00    -0.309 OA
ATOM     23  H   UNL     1     -38.489  20.368   2.161  0.00  0.00    +0.221 HD
ENDBRANCH  20  22
BRANCH  20  24
ATOM     24  N   UNL     1     -38.360  21.402  -0.324  0.00  0.00    -0.251 N 
ATOM     25  H   UNL     1     -38.362  21.989  -1.115  0.00  0.00    +0.158 HD
BRANCH  24  26
ATOM     26  C   UNL     1     -37.327  20.446  -0.240  0.00  0.00    +0.053 C 
ATOM     27  C   UNL     1     -35.977  20.823  -0.108  0.00  0.00    +0.014 C 
ATOM     28  C   UNL     1     -34.979  19.823  -0.028  0.00  0.00    +0.001 C 
ATOM     29  C   UNL     1     -37.679  19.094  -0.295  0.00  0.00    +0.015 C 
ATOM     30  C   UNL     1     -35.601  22.174  -0.050  0.00  0.00    +0.001 C 
ATOM     31  C   UNL     1     -35.356  18.470  -0.085  0.00  0.00    +0.000 C 
ATOM     32  C   UNL     1     -36.697  18.110  -0.218  0.00  0.00    +0.001 C 
ATOM     33  C   UNL     1     -33.634  20.204   0.105  0.00  0.00    +0.000 C 
ATOM     34  C   UNL     1     -34.259  22.535   0.082  0.00  0.00    +0.000 C 
ATOM     35  C   UNL     1     -33.278  21.552   0.160  0.00  0.00    +0.000 C 
ENDBRANCH  24  26
ENDBRANCH  20  24
ENDBRANCH  19  20
ENDBRANCH   1  19
TORSDOF 8
ENDMDL
MODEL 9
REMARK VINA RESULT:      -7.0      1.920      2.761
REMARK  Name = 191228
REMARK  8 active torsions:
REMARK  status: ('A' for Active; 'I' for Inactive)
REMARK    1  A    between atoms: C_1  and  C_4
REMARK    2  A    between atoms: C_1  and  O_19
REMARK    3  A    between atoms: C_3  and  O_17
REMARK    4  A    between atoms: C_6  and  N_9
REMARK    5  A    between atoms: O_19  and  P_20
REMARK    6  A    between atoms: P_20  and  O_22
REMARK    7  A    between atoms: P_20  and  N_24
REMARK    8  A    between atoms: N_24  and  C_26
REMARK                            x       y       z     vdW  Elec       q    Type
REMARK                         _______ _______ _______ _____ _____    ______ ____
ROOT
ATOM      1  C   UNL     1     -38.336  21.305  -0.122  0.00  0.00    +0.185 C 
ENDROOT
BRANCH   1   4
ATOM      2  O   UNL     1     -39.560  21.891   1.854  0.00  0.00    -0.335 OA
ATOM      3  C   UNL     1     -40.560  22.527  -0.200  0.00  0.00    +0.144 C 
ATOM      4  C   UNL     1     -39.723  21.458   0.490  0.00  0.00    +0.174 C 
ATOM      5  C   UNL     1     -40.203  23.783   0.560  0.00  0.00    +0.083 C 
ATOM      6  C   UNL     1     -39.970  23.261   1.969  0.00  0.00    +0.202 C 
BRANCH   6   9
ATOM      7  O   UNL     1     -40.254  25.932   2.915  0.00  0.00    -0.252 OA
ATOM      8  O   UNL     1     -36.003  25.939   4.672  0.00  0.00    -0.270 OA
ATOM      9  N   UNL     1     -38.966  23.999   2.677  0.00  0.00    -0.219 N 
ATOM     10  N   UNL     1     -38.132  25.921   3.786  0.00  0.00    -0.236 N 
ATOM     11  C   UNL     1     -37.748  23.383   2.932  0.00  0.00    +0.071 C 
ATOM     12  C   UNL     1     -39.200  25.323   3.108  0.00  0.00    +0.315 C 
ATOM     13  C   UNL     1     -36.729  23.959   3.582  0.00  0.00    +0.047 C 
ATOM     14  C   UNL     1     -36.899  25.353   4.068  0.00  0.00    +0.250 C 
ATOM     15  C   UNL     1     -35.425  23.277   3.847  0.00  0.00    +0.037 C 
ATOM     16  H   UNL     1     -38.271  26.846   4.096  0.00  0.00    +0.159 HD
ENDBRANCH   6   9
BRANCH   3  17
ATOM     17  O   UNL     1     -41.946  22.241  -0.032  0.00  0.00    -0.382 OA
ATOM     18  H   UNL     1     -42.223  21.584  -0.690  0.00  0.00    +0.210 HD
ENDBRANCH   3  17
ENDBRANCH   1   4
BRANCH   1  19
ATOM     19  O   UNL     1     -37.368  21.383   0.912  0.00  0.00    -0.278 OA
BRANCH  19  20
ATOM     20  P   UNL     1     -36.329  20.151   1.151  0.00  0.00    +0.425 P 
ATOM     21  O   UNL     1     -36.628  19.016   0.202  0.00  0.00    -0.236 OA
BRANCH  20  22
ATOM     22  O   UNL     1     -36.725  19.713   2.670  0.00  0.00    -0.309 OA
ATOM     23  H   UNL     1     -36.978  18.776   2.681  0.00  0.00    +0.221 HD
ENDBRANCH  20  22
BRANCH  20  24
ATOM     24  N   UNL     1     -34.802  20.773   1.237  0.00  0.00    -0.251 N 
ATOM     25  H   UNL     1     -34.719  21.722   1.485  0.00  0.00    +0.158 HD
BRANCH  24  26
ATOM     26  C   UNL     1     -33.605  20.070   0.989  0.00  0.00    +0.053 C 
ATOM     27  C   UNL     1     -32.557  20.632   0.234  0.00  0.00    +0.014 C 
ATOM     28  C   UNL     1     -31.378  19.883   0.014  0.00  0.00    +0.001 C 
ATOM     29  C   UNL     1     -33.481  18.780   1.514  0.00  0.00    +0.015 C 
ATOM     30  C   UNL     1     -32.660  21.925  -0.302  0.00  0.00    +0.001 C 
ATOM     31  C   UNL     1     -31.274  18.589   0.552  0.00  0.00    +0.000 C 
ATOM     32  C   UNL     1     -32.320  18.043   1.296  0.00  0.00    +0.001 C 
ATOM     33  C   UNL     1     -30.335  20.449  -0.739  0.00  0.00    +0.000 C 
ATOM     34  C   UNL     1     -31.614  22.472  -1.048  0.00  0.00    +0.000 C 
ATOM     35  C   UNL     1     -30.455  21.735  -1.265  0.00  0.00    +0.000 C 
ENDBRANCH  24  26
ENDBRANCH  20  24
ENDBRANCH  19  20
ENDBRANCH   1  19
TORSDOF 8
ENDMDL
