MODEL 1
REMARK VINA RESULT:      -6.1      0.000      0.000
REMARK  Name = 193637
REMARK  9 active torsions:
REMARK  status: ('A' for Active; 'I' for Inactive)
REMARK    1  A    between atoms: C_2  and  O_7
REMARK    2  A    between atoms: C_3  and  O_9
REMARK    3  A    between atoms: C_4  and  O_11
REMARK    4  A    between atoms: C_5  and  C_14
REMARK    5  A    between atoms: C_6  and  O_17
REMARK    6  A    between atoms: C_14  and  O_15
REMARK    7  A    between atoms: O_17  and  C_19
REMARK    8  A    between atoms: C_19  and  C_20
REMARK    9  A    between atoms: C_21  and  N_26
REMARK                            x       y       z     vdW  Elec       q    Type
REMARK                         _______ _______ _______ _____ _____    ______ ____
ROOT
ATOM      1  O   UNL     1     -37.230  22.968   3.717  0.00  0.00    -0.307 OA
ATOM      2  C   UNL     1     -36.424  25.629   4.442  0.00  0.00    +0.173 C 
ATOM      3  C   UNL     1     -35.892  24.391   5.163  0.00  0.00    +0.178 C 
ATOM      4  C   UNL     1     -37.750  25.338   3.739  0.00  0.00    +0.211 C 
ATOM      5  C   UNL     1     -35.925  23.175   4.245  0.00  0.00    +0.246 C 
ATOM      6  C   UNL     1     -37.666  24.057   2.907  0.00  0.00    +0.321 C 
ENDROOT
BRANCH   2   7
ATOM      7  O   UNL     1     -36.615  26.658   5.413  0.00  0.00    -0.379 OA
ATOM      8  H   UNL     1     -37.186  27.350   5.044  0.00  0.00    +0.211 HD
ENDBRANCH   2   7
BRANCH   3   9
ATOM      9  O   UNL     1     -34.542  24.626   5.561  0.00  0.00    -0.379 OA
ATOM     10  H   UNL     1     -34.531  25.047   6.435  0.00  0.00    +0.211 HD
ENDBRANCH   3   9
BRANCH   4  11
ATOM     11  O   UNL     1     -38.068  26.420   2.864  0.00  0.00    -0.377 OA
ATOM     12  H   UNL     1     -37.446  26.427   2.120  0.00  0.00    +0.211 HD
ENDBRANCH   4  11
BRANCH   5  14
ATOM     13  O   UNL     1     -35.170  20.901   4.545  0.00  0.00    -0.247 OA
ATOM     14  C   UNL     1     -35.662  21.919   5.012  0.00  0.00    +0.344 C 
BRANCH  14  15
ATOM     15  O   UNL     1     -36.045  22.058   6.304  0.00  0.00    -0.478 OA
ATOM     16  H   UNL     1     -36.838  21.659   6.603  0.00  0.00    +0.295 HD
ENDBRANCH  14  15
ENDBRANCH   5  14
BRANCH   6  17
ATOM     17  O   UNL     1     -38.968  23.783   2.390  0.00  0.00    -0.419 OA
BRANCH  17  19
ATOM     18  O   UNL     1     -39.987  21.720   2.432  0.00  0.00    -0.245 OA
ATOM     19  C   UNL     1     -39.181  22.510   1.966  0.00  0.00    +0.344 C 
BRANCH  19  20
ATOM     20  C   UNL     1     -38.282  22.180   0.830  0.00  0.00    +0.089 C 
ATOM     21  C   UNL     1     -37.364  21.155   0.941  0.00  0.00    +0.048 C 
ATOM     22  C   UNL     1     -38.405  22.932  -0.323  0.00  0.00    +0.008 C 
ATOM     23  C   UNL     1     -36.534  20.871  -0.144  0.00  0.00    +0.014 C 
ATOM     24  C   UNL     1     -37.575  22.647  -1.407  0.00  0.00    +0.000 C 
ATOM     25  C   UNL     1     -36.640  21.616  -1.318  0.00  0.00    +0.001 C 
BRANCH  21  26
ATOM     26  N   UNL     1     -37.241  20.389   2.121  0.00  0.00    -0.357 N 
ATOM     27  H   UNL     1     -36.429  19.854   2.279  0.00  0.00    +0.142 HD
ATOM     28  H   UNL     1     -37.967  20.390   2.786  0.00  0.00    +0.142 HD
ENDBRANCH  21  26
ENDBRANCH  19  20
ENDBRANCH  17  19
ENDBRANCH   6  17
TORSDOF 9
ENDMDL
MODEL 2
REMARK VINA RESULT:      -6.0      3.327      6.275
REMARK  Name = 193637
REMARK  9 active torsions:
REMARK  status: ('A' for Active; 'I' for Inactive)
REMARK    1  A    between atoms: C_2  and  O_7
REMARK    2  A    between atoms: C_3  and  O_9
REMARK    3  A    between atoms: C_4  and  O_11
REMARK    4  A    between atoms: C_5  and  C_14
REMARK    5  A    between atoms: C_6  and  O_17
REMARK    6  A    between atoms: C_14  and  O_15
REMARK    7  A    between atoms: O_17  and  C_19
REMARK    8  A    between atoms: C_19  and  C_20
REMARK    9  A    between atoms: C_21  and  N_26
REMARK                            x       y       z     vdW  Elec       q    Type
REMARK                         _______ _______ _______ _____ _____    ______ ____
ROOT
ATOM      1  O   UNL     1     -34.907  23.513   3.998  0.00  0.00    -0.307 OA
ATOM      2  C   UNL     1     -35.378  21.986   1.609  0.00  0.00    +0.173 C 
ATOM      3  C   UNL     1     -35.427  21.358   3.003  0.00  0.00    +0.178 C 
ATOM      4  C   UNL     1     -34.556  23.275   1.609  0.00  0.00    +0.211 C 
ATOM      5  C   UNL     1     -35.791  22.400   4.053  0.00  0.00    +0.246 C 
ATOM      6  C   UNL     1     -34.977  24.201   2.751  0.00  0.00    +0.321 C 
ENDROOT
BRANCH   2   7
ATOM      7  O   UNL     1     -34.782  21.041   0.720  0.00  0.00    -0.379 OA
ATOM      8  H   UNL     1     -34.964  20.141   1.035  0.00  0.00    +0.211 HD
ENDBRANCH   2   7
BRANCH   3   9
ATOM      9  O   UNL     1     -36.416  20.330   3.016  0.00  0.00    -0.379 OA
ATOM     10  H   UNL     1     -35.981  19.463   3.015  0.00  0.00    +0.211 HD
ENDBRANCH   3   9
BRANCH   4  11
ATOM     11  O   UNL     1     -34.761  23.965   0.376  0.00  0.00    -0.377 OA
ATOM     12  H   UNL     1     -35.692  23.892   0.115  0.00  0.00    +0.211 HD
ENDBRANCH   4  11
BRANCH   5  14
ATOM     13  O   UNL     1     -35.838  22.467   6.465  0.00  0.00    -0.247 OA
ATOM     14  C   UNL     1     -35.584  21.864   5.433  0.00  0.00    +0.344 C 
BRANCH  14  15
ATOM     15  O   UNL     1     -35.071  20.610   5.387  0.00  0.00    -0.478 OA
ATOM     16  H   UNL     1     -35.096  20.123   4.587  0.00  0.00    +0.295 HD
ENDBRANCH  14  15
ENDBRANCH   5  14
BRANCH   6  17
ATOM     17  O   UNL     1     -34.087  25.317   2.764  0.00  0.00    -0.419 OA
BRANCH  17  19
ATOM     18  O   UNL     1     -35.608  27.034   2.940  0.00  0.00    -0.245 OA
ATOM     19  C   UNL     1     -34.586  26.466   3.289  0.00  0.00    +0.344 C 
BRANCH  19  20
ATOM     20  C   UNL     1     -33.706  26.969   4.375  0.00  0.00    +0.089 C 
ATOM     21  C   UNL     1     -33.825  26.472   5.658  0.00  0.00    +0.048 C 
ATOM     22  C   UNL     1     -32.777  27.940   4.050  0.00  0.00    +0.008 C 
ATOM     23  C   UNL     1     -32.984  26.965   6.656  0.00  0.00    +0.014 C 
ATOM     24  C   UNL     1     -31.936  28.432   5.048  0.00  0.00    +0.000 C 
ATOM     25  C   UNL     1     -32.039  27.944   6.351  0.00  0.00    +0.001 C 
BRANCH  21  26
ATOM     26  N   UNL     1     -34.775  25.480   5.987  0.00  0.00    -0.357 N 
ATOM     27  H   UNL     1     -35.073  24.836   5.304  0.00  0.00    +0.142 HD
ATOM     28  H   UNL     1     -35.139  25.431   6.901  0.00  0.00    +0.142 HD
ENDBRANCH  21  26
ENDBRANCH  19  20
ENDBRANCH  17  19
ENDBRANCH   6  17
TORSDOF 9
ENDMDL
MODEL 3
REMARK VINA RESULT:      -6.0      4.736      7.662
REMARK  Name = 193637
REMARK  9 active torsions:
REMARK  status: ('A' for Active; 'I' for Inactive)
REMARK    1  A    between atoms: C_2  and  O_7
REMARK    2  A    between atoms: C_3  and  O_9
REMARK    3  A    between atoms: C_4  and  O_11
REMARK    4  A    between atoms: C_5  and  C_14
REMARK    5  A    between atoms: C_6  and  O_17
REMARK    6  A    between atoms: C_14  and  O_15
REMARK    7  A    between atoms: O_17  and  C_19
REMARK    8  A    between atoms: C_19  and  C_20
REMARK    9  A    between atoms: C_21  and  N_26
REMARK                            x       y       z     vdW  Elec       q    Type
REMARK                         _______ _______ _______ _____ _____    ______ ____
ROOT
ATOM      1  O   UNL     1     -34.451  24.973   5.253  0.00  0.00    -0.307 OA
ATOM      2  C   UNL     1     -36.440  26.238   3.609  0.00  0.00    +0.173 C 
ATOM      3  C   UNL     1     -36.515  24.758   3.988  0.00  0.00    +0.178 C 
ATOM      4  C   UNL     1     -35.011  26.770   3.722  0.00  0.00    +0.211 C 
ATOM      5  C   UNL     1     -35.792  24.500   5.304  0.00  0.00    +0.246 C 
ATOM      6  C   UNL     1     -34.380  26.384   5.060  0.00  0.00    +0.321 C 
ENDROOT
BRANCH   2   7
ATOM      7  O   UNL     1     -36.895  26.373   2.262  0.00  0.00    -0.379 OA
ATOM      8  H   UNL     1     -36.920  25.499   1.840  0.00  0.00    +0.211 HD
ENDBRANCH   2   7
BRANCH   3   9
ATOM      9  O   UNL     1     -37.884  24.384   4.137  0.00  0.00    -0.379 OA
ATOM     10  H   UNL     1     -38.047  23.560   3.652  0.00  0.00    +0.211 HD
ENDBRANCH   3   9
BRANCH   4  11
ATOM     11  O   UNL     1     -35.029  28.194   3.630  0.00  0.00    -0.377 OA
ATOM     12  H   UNL     1     -34.434  28.569   4.298  0.00  0.00    +0.211 HD
ENDBRANCH   4  11
BRANCH   5  14
ATOM     13  O   UNL     1     -35.064  22.541   6.511  0.00  0.00    -0.247 OA
ATOM     14  C   UNL     1     -35.630  23.034   5.547  0.00  0.00    +0.344 C 
BRANCH  14  15
ATOM     15  O   UNL     1     -36.199  22.318   4.547  0.00  0.00    -0.478 OA
ATOM     16  H   UNL     1     -37.128  22.332   4.431  0.00  0.00    +0.295 HD
ENDBRANCH  14  15
ENDBRANCH   5  14
BRANCH   6  17
ATOM     17  O   UNL     1     -33.014  26.800   5.039  0.00  0.00    -0.419 OA
BRANCH  17  19
ATOM     18  O   UNL     1     -32.783  27.074   7.312  0.00  0.00    -0.245 OA
ATOM     19  C   UNL     1     -32.567  27.421   6.162  0.00  0.00    +0.344 C 
BRANCH  19  20
ATOM     20  C   UNL     1     -31.759  28.616   5.810  0.00  0.00    +0.089 C 
ATOM     21  C   UNL     1     -30.433  28.698   6.188  0.00  0.00    +0.048 C 
ATOM     22  C   UNL     1     -32.381  29.625   5.100  0.00  0.00    +0.008 C 
ATOM     23  C   UNL     1     -29.700  29.835   5.842  0.00  0.00    +0.014 C 
ATOM     24  C   UNL     1     -31.648  30.761   4.755  0.00  0.00    +0.000 C 
ATOM     25  C   UNL     1     -30.307  30.865   5.126  0.00  0.00    +0.001 C 
BRANCH  21  26
ATOM     26  N   UNL     1     -29.799  27.666   6.914  0.00  0.00    -0.357 N 
ATOM     27  H   UNL     1     -29.852  26.735   6.596  0.00  0.00    +0.142 HD
ATOM     28  H   UNL     1     -29.304  27.876   7.739  0.00  0.00    +0.142 HD
ENDBRANCH  21  26
ENDBRANCH  19  20
ENDBRANCH  17  19
ENDBRANCH   6  17
TORSDOF 9
ENDMDL
MODEL 4
REMARK VINA RESULT:      -5.9      3.278      4.916
REMARK  Name = 193637
REMARK  9 active torsions:
REMARK  status: ('A' for Active; 'I' for Inactive)
REMARK    1  A    between atoms: C_2  and  O_7
REMARK    2  A    between atoms: C_3  and  O_9
REMARK    3  A    between atoms: C_4  and  O_11
REMARK    4  A    between atoms: C_5  and  C_14
REMARK    5  A    between atoms: C_6  and  O_17
REMARK    6  A    between atoms: C_14  and  O_15
REMARK    7  A    between atoms: O_17  and  C_19
REMARK    8  A    between atoms: C_19  and  C_20
REMARK    9  A    between atoms: C_21  and  N_26
REMARK                            x       y       z     vdW  Elec       q    Type
REMARK                         _______ _______ _______ _____ _____    ______ ____
ROOT
ATOM      1  O   UNL     1     -35.373  22.296   2.332  0.00  0.00    -0.307 OA
ATOM      2  C   UNL     1     -35.795  23.015   5.082  0.00  0.00    +0.173 C 
ATOM      3  C   UNL     1     -35.682  24.062   3.973  0.00  0.00    +0.178 C 
ATOM      4  C   UNL     1     -35.140  21.696   4.672  0.00  0.00    +0.211 C 
ATOM      5  C   UNL     1     -36.109  23.477   2.632  0.00  0.00    +0.246 C 
ATOM      6  C   UNL     1     -35.603  21.258   3.281  0.00  0.00    +0.321 C 
ENDROOT
BRANCH   2   7
ATOM      7  O   UNL     1     -35.142  23.531   6.243  0.00  0.00    -0.379 OA
ATOM      8  H   UNL     1     -35.353  24.473   6.342  0.00  0.00    +0.211 HD
ENDBRANCH   2   7
BRANCH   3   9
ATOM      9  O   UNL     1     -36.534  25.164   4.282  0.00  0.00    -0.379 OA
ATOM     10  H   UNL     1     -37.271  25.189   3.652  0.00  0.00    +0.211 HD
ENDBRANCH   3   9
BRANCH   4  11
ATOM     11  O   UNL     1     -35.502  20.679   5.605  0.00  0.00    -0.377 OA
ATOM     12  H   UNL     1     -34.759  20.512   6.205  0.00  0.00    +0.211 HD
ENDBRANCH   4  11
BRANCH   5  14
ATOM     13  O   UNL     1     -34.758  24.296   0.807  0.00  0.00    -0.247 OA
ATOM     14  C   UNL     1     -35.754  24.397   1.509  0.00  0.00    +0.344 C 
BRANCH  14  15
ATOM     15  O   UNL     1     -36.689  25.368   1.372  0.00  0.00    -0.478 OA
ATOM     16  H   UNL     1     -37.465  25.203   0.874  0.00  0.00    +0.295 HD
ENDBRANCH  14  15
ENDBRANCH   5  14
BRANCH   6  17
ATOM     17  O   UNL     1     -34.857  20.096   2.916  0.00  0.00    -0.419 OA
BRANCH  17  19
ATOM     18  O   UNL     1     -35.864  19.675   0.890  0.00  0.00    -0.245 OA
ATOM     19  C   UNL     1     -34.873  19.773   1.596  0.00  0.00    +0.344 C 
BRANCH  19  20
ATOM     20  C   UNL     1     -33.493  19.543   1.099  0.00  0.00    +0.089 C 
ATOM     21  C   UNL     1     -32.860  20.498   0.326  0.00  0.00    +0.048 C 
ATOM     22  C   UNL     1     -32.879  18.353   1.438  0.00  0.00    +0.008 C 
ATOM     23  C   UNL     1     -31.564  20.252  -0.126  0.00  0.00    +0.014 C 
ATOM     24  C   UNL     1     -31.582  18.107   0.986  0.00  0.00    +0.000 C 
ATOM     25  C   UNL     1     -30.924  19.057   0.204  0.00  0.00    +0.001 C 
BRANCH  21  26
ATOM     26  N   UNL     1     -33.491  21.714  -0.019  0.00  0.00    -0.357 N 
ATOM     27  H   UNL     1     -34.045  21.769  -0.831  0.00  0.00    +0.142 HD
ATOM     28  H   UNL     1     -33.376  22.507   0.553  0.00  0.00    +0.142 HD
ENDBRANCH  21  26
ENDBRANCH  19  20
ENDBRANCH  17  19
ENDBRANCH   6  17
TORSDOF 9
ENDMDL
MODEL 5
REMARK VINA RESULT:      -5.9      2.426      5.140
REMARK  Name = 193637
REMARK  9 active torsions:
REMARK  status: ('A' for Active; 'I' for Inactive)
REMARK    1  A    between atoms: C_2  and  O_7
REMARK    2  A    between atoms: C_3  and  O_9
REMARK    3  A    between atoms: C_4  and  O_11
REMARK    4  A    between atoms: C_5  and  C_14
REMARK    5  A    between atoms: C_6  and  O_17
REMARK    6  A    between atoms: C_14  and  O_15
REMARK    7  A    between atoms: O_17  and  C_19
REMARK    8  A    between atoms: C_19  and  C_20
REMARK    9  A    between atoms: C_21  and  N_26
REMARK                            x       y       z     vdW  Elec       q    Type
REMARK                         _______ _______ _______ _____ _____    ______ ____
ROOT
ATOM      1  O   UNL     1     -38.763  23.393   2.611  0.00  0.00    -0.307 OA
ATOM      2  C   UNL     1     -40.765  25.281   1.788  0.00  0.00    +0.173 C 
ATOM      3  C   UNL     1     -40.543  23.957   1.057  0.00  0.00    +0.178 C 
ATOM      4  C   UNL     1     -39.525  25.696   2.579  0.00  0.00    +0.211 C 
ATOM      5  C   UNL     1     -39.953  22.913   1.997  0.00  0.00    +0.246 C 
ATOM      6  C   UNL     1     -38.996  24.538   3.427  0.00  0.00    +0.321 C 
ENDROOT
BRANCH   2   7
ATOM      7  O   UNL     1     -41.064  26.280   0.811  0.00  0.00    -0.379 OA
ATOM      8  H   UNL     1     -40.536  27.074   0.988  0.00  0.00    +0.211 HD
ENDBRANCH   2   7
BRANCH   3   9
ATOM      9  O   UNL     1     -41.796  23.476   0.569  0.00  0.00    -0.379 OA
ATOM     10  H   UNL     1     -42.420  23.398   1.307  0.00  0.00    +0.211 HD
ENDBRANCH   3   9
BRANCH   4  11
ATOM     11  O   UNL     1     -39.859  26.774   3.452  0.00  0.00    -0.377 OA
ATOM     12  H   UNL     1     -39.604  27.614   3.041  0.00  0.00    +0.211 HD
ENDBRANCH   4  11
BRANCH   5  14
ATOM     13  O   UNL     1     -38.382  21.585   0.733  0.00  0.00    -0.247 OA
ATOM     14  C   UNL     1     -39.488  21.712   1.239  0.00  0.00    +0.344 C 
BRANCH  14  15
ATOM     15  O   UNL     1     -40.464  20.773   1.184  0.00  0.00    -0.478 OA
ATOM     16  H   UNL     1     -41.044  20.742   0.449  0.00  0.00    +0.295 HD
ENDBRANCH  14  15
ENDBRANCH   5  14
BRANCH   6  17
ATOM     17  O   UNL     1     -37.773  24.958   4.031  0.00  0.00    -0.419 OA
BRANCH  17  19
ATOM     18  O   UNL     1     -36.146  24.931   2.404  0.00  0.00    -0.245 OA
ATOM     19  C   UNL     1     -36.635  24.509   3.439  0.00  0.00    +0.344 C 
BRANCH  19  20
ATOM     20  C   UNL     1     -36.038  23.401   4.229  0.00  0.00    +0.089 C 
ATOM     21  C   UNL     1     -35.744  22.193   3.627  0.00  0.00    +0.048 C 
ATOM     22  C   UNL     1     -35.793  23.630   5.570  0.00  0.00    +0.008 C 
ATOM     23  C   UNL     1     -35.184  21.173   4.397  0.00  0.00    +0.014 C 
ATOM     24  C   UNL     1     -35.233  22.609   6.338  0.00  0.00    +0.000 C 
ATOM     25  C   UNL     1     -34.928  21.381   5.751  0.00  0.00    +0.001 C 
BRANCH  21  26
ATOM     26  N   UNL     1     -35.996  21.963   2.257  0.00  0.00    -0.357 N 
ATOM     27  H   UNL     1     -36.886  21.659   1.963  0.00  0.00    +0.142 HD
ATOM     28  H   UNL     1     -35.282  22.107   1.594  0.00  0.00    +0.142 HD
ENDBRANCH  21  26
ENDBRANCH  19  20
ENDBRANCH  17  19
ENDBRANCH   6  17
TORSDOF 9
ENDMDL
MODEL 6
REMARK VINA RESULT:      -5.9      4.096      7.513
REMARK  Name = 193637
REMARK  9 active torsions:
REMARK  status: ('A' for Active; 'I' for Inactive)
REMARK    1  A    between atoms: C_2  and  O_7
REMARK    2  A    between atoms: C_3  and  O_9
REMARK    3  A    between atoms: C_4  and  O_11
REMARK    4  A    between atoms: C_5  and  C_14
REMARK    5  A    between atoms: C_6  and  O_17
REMARK    6  A    between atoms: C_14  and  O_15
REMARK    7  A    between atoms: O_17  and  C_19
REMARK    8  A    between atoms: C_19  and  C_20
REMARK    9  A    between atoms: C_21  and  N_26
REMARK                            x       y       z     vdW  Elec       q    Type
REMARK                         _______ _______ _______ _____ _____    ______ ____
ROOT
ATOM      1  O   UNL     1     -36.344  26.279   3.764  0.00  0.00    -0.307 OA
ATOM      2  C   UNL     1     -35.919  23.500   4.359  0.00  0.00    +0.173 C 
ATOM      3  C   UNL     1     -37.274  24.037   3.897  0.00  0.00    +0.178 C 
ATOM      4  C   UNL     1     -35.057  24.608   4.963  0.00  0.00    +0.211 C 
ATOM      5  C   UNL     1     -37.098  25.299   3.060  0.00  0.00    +0.246 C 
ATOM      6  C   UNL     1     -35.020  25.839   4.056  0.00  0.00    +0.321 C 
ENDROOT
BRANCH   2   7
ATOM      7  O   UNL     1     -36.156  22.490   5.341  0.00  0.00    -0.379 OA
ATOM      8  H   UNL     1     -36.474  22.903   6.159  0.00  0.00    +0.211 HD
ENDBRANCH   2   7
BRANCH   3   9
ATOM      9  O   UNL     1     -37.922  23.047   3.100  0.00  0.00    -0.379 OA
ATOM     10  H   UNL     1     -38.636  23.460   2.590  0.00  0.00    +0.211 HD
ENDBRANCH   3   9
BRANCH   4  11
ATOM     11  O   UNL     1     -33.721  24.133   5.126  0.00  0.00    -0.377 OA
ATOM     12  H   UNL     1     -33.690  23.500   5.860  0.00  0.00    +0.211 HD
ENDBRANCH   4  11
BRANCH   5  14
ATOM     13  O   UNL     1     -38.624  26.824   1.976  0.00  0.00    -0.247 OA
ATOM     14  C   UNL     1     -38.411  25.975   2.830  0.00  0.00    +0.344 C 
BRANCH  14  15
ATOM     15  O   UNL     1     -39.344  25.518   3.701  0.00  0.00    -0.478 OA
ATOM     16  H   UNL     1     -40.237  25.784   3.612  0.00  0.00    +0.295 HD
ENDBRANCH  14  15
ENDBRANCH   5  14
BRANCH   6  17
ATOM     17  O   UNL     1     -34.309  26.870   4.741  0.00  0.00    -0.419 OA
BRANCH  17  19
ATOM     18  O   UNL     1     -32.424  26.443   3.493  0.00  0.00    -0.245 OA
ATOM     19  C   UNL     1     -33.050  27.117   4.295  0.00  0.00    +0.344 C 
BRANCH  19  20
ATOM     20  C   UNL     1     -32.505  28.347   4.924  0.00  0.00    +0.089 C 
ATOM     21  C   UNL     1     -32.172  28.357   6.265  0.00  0.00    +0.048 C 
ATOM     22  C   UNL     1     -32.349  29.462   4.123  0.00  0.00    +0.008 C 
ATOM     23  C   UNL     1     -31.662  29.529   6.826  0.00  0.00    +0.014 C 
ATOM     24  C   UNL     1     -31.840  30.633   4.685  0.00  0.00    +0.000 C 
ATOM     25  C   UNL     1     -31.496  30.666   6.037  0.00  0.00    +0.001 C 
BRANCH  21  26
ATOM     26  N   UNL     1     -32.333  27.216   7.081  0.00  0.00    -0.357 N 
ATOM     27  H   UNL     1     -32.470  27.319   8.051  0.00  0.00    +0.142 HD
ATOM     28  H   UNL     1     -32.309  26.317   6.680  0.00  0.00    +0.142 HD
ENDBRANCH  21  26
ENDBRANCH  19  20
ENDBRANCH  17  19
ENDBRANCH   6  17
TORSDOF 9
ENDMDL
MODEL 7
REMARK VINA RESULT:      -5.8      2.714      3.536
REMARK  Name = 193637
REMARK  9 active torsions:
REMARK  status: ('A' for Active; 'I' for Inactive)
REMARK    1  A    between atoms: C_2  and  O_7
REMARK    2  A    between atoms: C_3  and  O_9
REMARK    3  A    between atoms: C_4  and  O_11
REMARK    4  A    between atoms: C_5  and  C_14
REMARK    5  A    between atoms: C_6  and  O_17
REMARK    6  A    between atoms: C_14  and  O_15
REMARK    7  A    between atoms: O_17  and  C_19
REMARK    8  A    between atoms: C_19  and  C_20
REMARK    9  A    between atoms: C_21  and  N_26
REMARK                            x       y       z     vdW  Elec       q    Type
REMARK                         _______ _______ _______ _____ _____    ______ ____
ROOT
ATOM      1  O   UNL     1     -35.015  23.008   3.070  0.00  0.00    -0.307 OA
ATOM      2  C   UNL     1     -36.266  25.588   3.260  0.00  0.00    +0.173 C 
ATOM      3  C   UNL     1     -36.503  24.488   4.295  0.00  0.00    +0.178 C 
ATOM      4  C   UNL     1     -35.785  25.007   1.930  0.00  0.00    +0.211 C 
ATOM      5  C   UNL     1     -35.313  23.538   4.357  0.00  0.00    +0.246 C 
ATOM      6  C   UNL     1     -34.635  24.020   2.141  0.00  0.00    +0.321 C 
ENDROOT
BRANCH   2   7
ATOM      7  O   UNL     1     -37.500  26.279   3.059  0.00  0.00    -0.379 OA
ATOM      8  H   UNL     1     -37.641  26.420   2.110  0.00  0.00    +0.211 HD
ENDBRANCH   2   7
BRANCH   3   9
ATOM      9  O   UNL     1     -36.678  25.085   5.579  0.00  0.00    -0.379 OA
ATOM     10  H   UNL     1     -36.050  24.693   6.206  0.00  0.00    +0.211 HD
ENDBRANCH   3   9
BRANCH   4  11
ATOM     11  O   UNL     1     -35.318  26.065   1.093  0.00  0.00    -0.377 OA
ATOM     12  H   UNL     1     -35.680  26.908   1.407  0.00  0.00    +0.211 HD
ENDBRANCH   4  11
BRANCH   5  14
ATOM     13  O   UNL     1     -36.009  22.330   6.327  0.00  0.00    -0.247 OA
ATOM     14  C   UNL     1     -35.640  22.322   5.162  0.00  0.00    +0.344 C 
BRANCH  14  15
ATOM     15  O   UNL     1     -35.472  21.199   4.422  0.00  0.00    -0.478 OA
ATOM     16  H   UNL     1     -35.383  20.368   4.846  0.00  0.00    +0.295 HD
ENDBRANCH  14  15
ENDBRANCH   5  14
BRANCH   6  17
ATOM     17  O   UNL     1     -34.328  23.427   0.880  0.00  0.00    -0.419 OA
BRANCH  17  19
ATOM     18  O   UNL     1     -36.151  22.135   0.332  0.00  0.00    -0.245 OA
ATOM     19  C   UNL     1     -34.968  22.261   0.602  0.00  0.00    +0.344 C 
BRANCH  19  20
ATOM     20  C   UNL     1     -34.023  21.117   0.672  0.00  0.00    +0.089 C 
ATOM     21  C   UNL     1     -34.371  19.962   1.344  0.00  0.00    +0.048 C 
ATOM     22  C   UNL     1     -32.800  21.257   0.043  0.00  0.00    +0.008 C 
ATOM     23  C   UNL     1     -33.461  18.906   1.391  0.00  0.00    +0.014 C 
ATOM     24  C   UNL     1     -31.891  20.200   0.090  0.00  0.00    +0.000 C 
ATOM     25  C   UNL     1     -32.221  19.024   0.764  0.00  0.00    +0.001 C 
BRANCH  21  26
ATOM     26  N   UNL     1     -35.622  19.823   1.986  0.00  0.00    -0.357 N 
ATOM     27  H   UNL     1     -35.846  20.391   2.758  0.00  0.00    +0.142 HD
ATOM     28  H   UNL     1     -36.270  19.157   1.660  0.00  0.00    +0.142 HD
ENDBRANCH  21  26
ENDBRANCH  19  20
ENDBRANCH  17  19
ENDBRANCH   6  17
TORSDOF 9
ENDMDL
MODEL 8
REMARK VINA RESULT:      -5.8      2.173      5.877
REMARK  Name = 193637
REMARK  9 active torsions:
REMARK  status: ('A' for Active; 'I' for Inactive)
REMARK    1  A    between atoms: C_2  and  O_7
REMARK    2  A    between atoms: C_3  and  O_9
REMARK    3  A    between atoms: C_4  and  O_11
REMARK    4  A    between atoms: C_5  and  C_14
REMARK    5  A    between atoms: C_6  and  O_17
REMARK    6  A    between atoms: C_14  and  O_15
REMARK    7  A    between atoms: O_17  and  C_19
REMARK    8  A    between atoms: C_19  and  C_20
REMARK    9  A    between atoms: C_21  and  N_26
REMARK                            x       y       z     vdW  Elec       q    Type
REMARK                         _______ _______ _______ _____ _____    ______ ____
ROOT
ATOM      1  O   UNL     1     -37.301  22.035   2.887  0.00  0.00    -0.307 OA
ATOM      2  C   UNL     1     -36.622  20.001   0.975  0.00  0.00    +0.173 C 
ATOM      3  C   UNL     1     -38.063  20.456   1.205  0.00  0.00    +0.178 C 
ATOM      4  C   UNL     1     -35.739  20.319   2.182  0.00  0.00    +0.211 C 
ATOM      5  C   UNL     1     -38.102  21.890   1.720  0.00  0.00    +0.246 C 
ATOM      6  C   UNL     1     -35.924  21.767   2.638  0.00  0.00    +0.321 C 
ENDROOT
BRANCH   2   7
ATOM      7  O   UNL     1     -36.634  18.591   0.752  0.00  0.00    -0.379 OA
ATOM      8  H   UNL     1     -36.058  18.155   1.399  0.00  0.00    +0.211 HD
ENDBRANCH   2   7
BRANCH   3   9
ATOM      9  O   UNL     1     -38.775  20.395  -0.031  0.00  0.00    -0.379 OA
ATOM     10  H   UNL     1     -39.051  21.289  -0.288  0.00  0.00    +0.211 HD
ENDBRANCH   3   9
BRANCH   4  11
ATOM     11  O   UNL     1     -34.368  20.134   1.826  0.00  0.00    -0.377 OA
ATOM     12  H   UNL     1     -34.231  19.219   1.536  0.00  0.00    +0.211 HD
ENDBRANCH   4  11
BRANCH   5  14
ATOM     13  O   UNL     1     -39.839  23.378   2.492  0.00  0.00    -0.247 OA
ATOM     14  C   UNL     1     -39.472  22.250   2.196  0.00  0.00    +0.344 C 
BRANCH  14  15
ATOM     15  O   UNL     1     -40.262  21.150   2.257  0.00  0.00    -0.478 OA
ATOM     16  H   UNL     1     -40.973  21.051   1.655  0.00  0.00    +0.295 HD
ENDBRANCH  14  15
ENDBRANCH   5  14
BRANCH   6  17
ATOM     17  O   UNL     1     -35.171  21.951   3.837  0.00  0.00    -0.419 OA
BRANCH  17  19
ATOM     18  O   UNL     1     -36.266  22.631   5.743  0.00  0.00    -0.245 OA
ATOM     19  C   UNL     1     -35.662  22.870   4.709  0.00  0.00    +0.344 C 
BRANCH  19  20
ATOM     20  C   UNL     1     -35.369  24.247   4.237  0.00  0.00    +0.089 C 
ATOM     21  C   UNL     1     -36.397  25.140   4.007  0.00  0.00    +0.048 C 
ATOM     22  C   UNL     1     -34.045  24.589   4.042  0.00  0.00    +0.008 C 
ATOM     23  C   UNL     1     -36.088  26.427   3.564  0.00  0.00    +0.014 C 
ATOM     24  C   UNL     1     -33.737  25.876   3.599  0.00  0.00    +0.000 C 
ATOM     25  C   UNL     1     -34.759  26.795   3.360  0.00  0.00    +0.001 C 
BRANCH  21  26
ATOM     26  N   UNL     1     -37.750  24.787   4.207  0.00  0.00    -0.357 N 
ATOM     27  H   UNL     1     -38.100  23.947   3.833  0.00  0.00    +0.142 HD
ATOM     28  H   UNL     1     -38.342  25.382   4.722  0.00  0.00    +0.142 HD
ENDBRANCH  21  26
ENDBRANCH  19  20
ENDBRANCH  17  19
ENDBRANCH   6  17
TORSDOF 9
ENDMDL
MODEL 9
REMARK VINA RESULT:      -5.8      2.747      4.063
REMARK  Name = 193637
REMARK  9 active torsions:
REMARK  status: ('A' for Active; 'I' for Inactive)
REMARK    1  A    between atoms: C_2  and  O_7
REMARK    2  A    between atoms: C_3  and  O_9
REMARK    3  A    between atoms: C_4  and  O_11
REMARK    4  A    between atoms: C_5  and  C_14
REMARK    5  A    between atoms: C_6  and  O_17
REMARK    6  A    between atoms: C_14  and  O_15
REMARK    7  A    between atoms: O_17  and  C_19
REMARK    8  A    between atoms: C_19  and  C_20
REMARK    9  A    between atoms: C_21  and  N_26
REMARK                            x       y       z     vdW  Elec       q    Type
REMARK                         _______ _______ _______ _____ _____    ______ ____
ROOT
ATOM      1  O   UNL     1     -37.068  23.312   4.202  0.00  0.00    -0.307 OA
ATOM      2  C   UNL     1     -35.664  25.815   4.054  0.00  0.00    +0.173 C 
ATOM      3  C   UNL     1     -35.148  24.637   4.882  0.00  0.00    +0.178 C 
ATOM      4  C   UNL     1     -37.167  25.704   3.805  0.00  0.00    +0.211 C 
ATOM      5  C   UNL     1     -35.649  23.316   4.314  0.00  0.00    +0.246 C 
ATOM      6  C   UNL     1     -37.544  24.309   3.302  0.00  0.00    +0.321 C 
ENDROOT
BRANCH   2   7
ATOM      7  O   UNL     1     -35.387  27.016   4.775  0.00  0.00    -0.379 OA
ATOM      8  H   UNL     1     -36.050  27.135   5.473  0.00  0.00    +0.211 HD
ENDBRANCH   2   7
BRANCH   3   9
ATOM      9  O   UNL     1     -33.721  24.635   4.852  0.00  0.00    -0.379 OA
ATOM     10  H   UNL     1     -33.394  25.539   4.986  0.00  0.00    +0.211 HD
ENDBRANCH   3   9
BRANCH   4  11
ATOM     11  O   UNL     1     -37.554  26.656   2.815  0.00  0.00    -0.377 OA
ATOM     12  H   UNL     1     -37.863  27.466   3.249  0.00  0.00    +0.211 HD
ENDBRANCH   4  11
BRANCH   5  14
ATOM     13  O   UNL     1     -35.059  22.318   6.431  0.00  0.00    -0.247 OA
ATOM     14  C   UNL     1     -35.376  22.189   5.257  0.00  0.00    +0.344 C 
BRANCH  14  15
ATOM     15  O   UNL     1     -35.527  20.995   4.634  0.00  0.00    -0.478 OA
ATOM     16  H   UNL     1     -36.335  20.789   4.207  0.00  0.00    +0.295 HD
ENDBRANCH  14  15
ENDBRANCH   5  14
BRANCH   6  17
ATOM     17  O   UNL     1     -38.968  24.242   3.216  0.00  0.00    -0.419 OA
BRANCH  17  19
ATOM     18  O   UNL     1     -39.001  24.410   0.921  0.00  0.00    -0.245 OA
ATOM     19  C   UNL     1     -39.506  24.590   2.018  0.00  0.00    +0.344 C 
BRANCH  19  20
ATOM     20  C   UNL     1     -40.827  25.241   2.208  0.00  0.00    +0.089 C 
ATOM     21  C   UNL     1     -41.895  24.902   1.401  0.00  0.00    +0.048 C 
ATOM     22  C   UNL     1     -40.939  26.183   3.213  0.00  0.00    +0.008 C 
ATOM     23  C   UNL     1     -43.124  25.531   1.605  0.00  0.00    +0.014 C 
ATOM     24  C   UNL     1     -42.168  26.812   3.416  0.00  0.00    +0.000 C 
ATOM     25  C   UNL     1     -43.260  26.486   2.613  0.00  0.00    +0.001 C 
BRANCH  21  26
ATOM     26  N   UNL     1     -41.778  23.938   0.375  0.00  0.00    -0.357 N 
ATOM     27  H   UNL     1     -42.449  23.222   0.292  0.00  0.00    +0.142 HD
ATOM     28  H   UNL     1     -41.025  23.984  -0.259  0.00  0.00    +0.142 HD
ENDBRANCH  21  26
ENDBRANCH  19  20
ENDBRANCH  17  19
ENDBRANCH   6  17
TORSDOF 9
ENDMDL
