MODEL 1
REMARK VINA RESULT:      -7.5      0.000      0.000
REMARK  Name = 57331386
REMARK  4 active torsions:
REMARK  status: ('A' for Active; 'I' for Inactive)
REMARK    1  A    between atoms: N_3  and  C_26
REMARK    2  A    between atoms: C_14  and  N_25
REMARK    3  A    between atoms: C_16  and  C_22
REMARK    4  A    between atoms: C_26  and  C_27
REMARK                            x       y       z     vdW  Elec       q    Type
REMARK                         _______ _______ _______ _____ _____    ______ ____
ROOT
ATOM      1  S   UNL     1     -35.796  27.340   3.075  0.00  0.00    -0.037 S 
ATOM      2  O   UNL     1     -33.148  26.565   6.305  0.00  0.00    -0.209 OA
ATOM      3  N   UNL     1     -34.079  31.403   0.897  0.00  0.00    +0.389 N 
ATOM      4  N   UNL     1     -33.956  29.113   2.583  0.00  0.00    -0.282 N 
ATOM      5  N   UNL     1     -33.423  27.684   4.338  0.00  0.00    -0.310 NA
ATOM      6  C   UNL     1     -34.260  31.533   2.350  0.00  0.00    -0.055 C 
ATOM      7  C   UNL     1     -34.589  30.104   0.433  0.00  0.00    -0.055 C 
ATOM      8  C   UNL     1     -33.867  28.952   1.135  0.00  0.00    +0.071 C 
ATOM      9  C   UNL     1     -33.533  30.413   3.094  0.00  0.00    +0.071 C 
ATOM     10  C   UNL     1     -34.237  28.074   3.403  0.00  0.00    +0.227 C 
ATOM     11  C   UNL     1     -35.568  25.755   3.824  0.00  0.00    +0.067 C 
ATOM     12  C   UNL     1     -34.580  25.545   4.786  0.00  0.00    +0.102 C 
ATOM     13  C   UNL     1     -33.680  26.646   5.200  0.00  0.00    +0.207 C 
ATOM     14  C   UNL     1     -36.415  24.698   3.467  0.00  0.00    +0.150 C 
ATOM     15  C   UNL     1     -34.446  24.288   5.394  0.00  0.00    +0.017 C 
ATOM     16  C   UNL     1     -35.291  23.242   5.030  0.00  0.00    +0.074 C 
ATOM     17  C   UNL     1     -36.275  23.445   4.067  0.00  0.00    +0.028 C 
ATOM     18  H   UNL     1     -33.081  31.452   0.690  0.00  0.00    -0.080 HD
ENDROOT
BRANCH  16  22
ATOM     19  F   UNL     1     -36.068  21.681   6.647  0.00  0.00    -0.166 F 
ATOM     20  F   UNL     1     -35.271  20.861   4.797  0.00  0.00    -0.166 F 
ATOM     21  F   UNL     1     -33.926  21.716   6.268  0.00  0.00    -0.166 F 
ATOM     22  C   UNL     1     -35.140  21.903   5.670  0.00  0.00    +0.419 C 
ENDBRANCH  16  22
BRANCH  14  25
ATOM     23  O   UNL     1     -38.587  25.194   2.871  0.00  0.00    -0.126 OA
ATOM     24  O   UNL     1     -37.175  24.614   1.292  0.00  0.00    -0.126 OA
ATOM     25  N   UNL     1     -37.445  24.843   2.493  0.00  0.00    +0.058 N 
ENDBRANCH  14  25
BRANCH   3  26
ATOM     26  C   UNL     1     -34.747  32.498   0.196  0.00  0.00    -0.077 C 
BRANCH  26  27
ATOM     27  C   UNL     1     -35.851  33.111   1.054  0.00  0.00    -0.021 C 
ATOM     28  C   UNL     1     -35.957  34.622   0.802  0.00  0.00    -0.002 C 
ATOM     29  C   UNL     1     -37.194  32.418   0.789  0.00  0.00    -0.002 C 
ATOM     30  C   UNL     1     -38.325  33.051   1.596  0.00  0.00    -0.000 C 
ATOM     31  C   UNL     1     -37.090  35.251   1.611  0.00  0.00    -0.000 C 
ATOM     32  C   UNL     1     -38.421  34.553   1.351  0.00  0.00    -0.000 C 
ENDBRANCH  26  27
ENDBRANCH   3  26
TORSDOF 4
ENDMDL
MODEL 2
REMARK VINA RESULT:      -7.4      0.744      1.260
REMARK  Name = 57331386
REMARK  4 active torsions:
REMARK  status: ('A' for Active; 'I' for Inactive)
REMARK    1  A    between atoms: N_3  and  C_26
REMARK    2  A    between atoms: C_14  and  N_25
REMARK    3  A    between atoms: C_16  and  C_22
REMARK    4  A    between atoms: C_26  and  C_27
REMARK                            x       y       z     vdW  Elec       q    Type
REMARK                         _______ _______ _______ _____ _____    ______ ____
ROOT
ATOM      1  S   UNL     1     -35.811  27.056   2.792  0.00  0.00    -0.037 S 
ATOM      2  O   UNL     1     -33.635  26.635   6.415  0.00  0.00    -0.209 OA
ATOM      3  N   UNL     1     -34.064  31.130   0.660  0.00  0.00    +0.389 N 
ATOM      4  N   UNL     1     -34.043  28.937   2.474  0.00  0.00    -0.282 N 
ATOM      5  N   UNL     1     -33.686  27.637   4.368  0.00  0.00    -0.310 NA
ATOM      6  C   UNL     1     -34.472  31.314   2.060  0.00  0.00    -0.055 C 
ATOM      7  C   UNL     1     -34.409  29.776   0.201  0.00  0.00    -0.055 C 
ATOM      8  C   UNL     1     -33.725  28.716   1.067  0.00  0.00    +0.071 C 
ATOM      9  C   UNL     1     -33.791  30.288   2.967  0.00  0.00    +0.071 C 
ATOM     10  C   UNL     1     -34.373  27.920   3.303  0.00  0.00    +0.227 C 
ATOM     11  C   UNL     1     -35.592  25.529   3.655  0.00  0.00    +0.067 C 
ATOM     12  C   UNL     1     -34.749  25.439   4.763  0.00  0.00    +0.102 C 
ATOM     13  C   UNL     1     -33.998  26.623   5.241  0.00  0.00    +0.207 C 
ATOM     14  C   UNL     1     -36.302  24.395   3.240  0.00  0.00    +0.150 C 
ATOM     15  C   UNL     1     -34.624  24.226   5.456  0.00  0.00    +0.017 C 
ATOM     16  C   UNL     1     -35.330  23.103   5.032  0.00  0.00    +0.074 C 
ATOM     17  C   UNL     1     -36.170  23.186   3.924  0.00  0.00    +0.028 C 
ATOM     18  H   UNL     1     -33.053  31.245   0.599  0.00  0.00    -0.080 HD
ENDROOT
BRANCH  16  22
ATOM     19  F   UNL     1     -33.973  21.686   6.375  0.00  0.00    -0.166 F 
ATOM     20  F   UNL     1     -36.114  21.635   6.750  0.00  0.00    -0.166 F 
ATOM     21  F   UNL     1     -35.308  20.712   4.961  0.00  0.00    -0.166 F 
ATOM     22  C   UNL     1     -35.188  21.811   5.763  0.00  0.00    +0.419 C 
ENDBRANCH  16  22
BRANCH  14  25
ATOM     23  O   UNL     1     -38.386  24.701   2.301  0.00  0.00    -0.126 OA
ATOM     24  O   UNL     1     -36.718  24.149   0.985  0.00  0.00    -0.126 OA
ATOM     25  N   UNL     1     -37.181  24.417   2.117  0.00  0.00    +0.058 N 
ENDBRANCH  14  25
BRANCH   3  26
ATOM     26  C   UNL     1     -34.691  32.137  -0.194  0.00  0.00    -0.077 C 
BRANCH  26  27
ATOM     27  C   UNL     1     -35.046  33.392   0.601  0.00  0.00    -0.021 C 
ATOM     28  C   UNL     1     -34.072  34.534   0.274  0.00  0.00    -0.002 C 
ATOM     29  C   UNL     1     -36.495  33.817   0.328  0.00  0.00    -0.002 C 
ATOM     30  C   UNL     1     -36.856  35.101   1.070  0.00  0.00    -0.000 C 
ATOM     31  C   UNL     1     -34.438  35.817   1.018  0.00  0.00    -0.000 C 
ATOM     32  C   UNL     1     -35.881  36.230   0.751  0.00  0.00    -0.000 C 
ENDBRANCH  26  27
ENDBRANCH   3  26
TORSDOF 4
ENDMDL
MODEL 3
REMARK VINA RESULT:      -7.2      1.339      1.912
REMARK  Name = 57331386
REMARK  4 active torsions:
REMARK  status: ('A' for Active; 'I' for Inactive)
REMARK    1  A    between atoms: N_3  and  C_26
REMARK    2  A    between atoms: C_14  and  N_25
REMARK    3  A    between atoms: C_16  and  C_22
REMARK    4  A    between atoms: C_26  and  C_27
REMARK                            x       y       z     vdW  Elec       q    Type
REMARK                         _______ _______ _______ _____ _____    ______ ____
ROOT
ATOM      1  S   UNL     1     -35.215  27.220   2.941  0.00  0.00    -0.037 S 
ATOM      2  O   UNL     1     -33.445  26.592   6.751  0.00  0.00    -0.209 OA
ATOM      3  N   UNL     1     -33.026  31.224   1.106  0.00  0.00    +0.389 N 
ATOM      4  N   UNL     1     -33.317  28.996   2.853  0.00  0.00    -0.282 N 
ATOM      5  N   UNL     1     -33.230  27.637   4.738  0.00  0.00    -0.310 NA
ATOM      6  C   UNL     1     -33.562  31.403   2.463  0.00  0.00    -0.055 C 
ATOM      7  C   UNL     1     -33.401  29.904   0.578  0.00  0.00    -0.055 C 
ATOM      8  C   UNL     1     -32.871  28.786   1.479  0.00  0.00    +0.071 C 
ATOM      9  C   UNL     1     -33.037  30.319   3.405  0.00  0.00    +0.071 C 
ATOM     10  C   UNL     1     -33.788  27.984   3.617  0.00  0.00    +0.227 C 
ATOM     11  C   UNL     1     -35.174  25.664   3.781  0.00  0.00    +0.067 C 
ATOM     12  C   UNL     1     -34.454  25.501   4.965  0.00  0.00    +0.102 C 
ATOM     13  C   UNL     1     -33.688  26.626   5.547  0.00  0.00    +0.207 C 
ATOM     14  C   UNL     1     -35.903  24.585   3.266  0.00  0.00    +0.150 C 
ATOM     15  C   UNL     1     -34.470  24.268   5.633  0.00  0.00    +0.017 C 
ATOM     16  C   UNL     1     -35.195  23.199   5.111  0.00  0.00    +0.074 C 
ATOM     17  C   UNL     1     -35.912  23.356   3.928  0.00  0.00    +0.028 C 
ATOM     18  H   UNL     1     -32.009  31.279   1.150  0.00  0.00    -0.080 HD
ENDROOT
BRANCH  16  22
ATOM     19  F   UNL     1     -35.341  20.830   4.962  0.00  0.00    -0.166 F 
ATOM     20  F   UNL     1     -34.061  21.637   6.523  0.00  0.00    -0.166 F 
ATOM     21  F   UNL     1     -36.216  21.757   6.724  0.00  0.00    -0.166 F 
ATOM     22  C   UNL     1     -35.203  21.885   5.818  0.00  0.00    +0.419 C 
ENDBRANCH  16  22
BRANCH  14  25
ATOM     23  O   UNL     1     -37.878  24.966   2.139  0.00  0.00    -0.126 OA
ATOM     24  O   UNL     1     -36.084  24.481   0.970  0.00  0.00    -0.126 OA
ATOM     25  N   UNL     1     -36.661  24.683   2.062  0.00  0.00    +0.058 N 
ENDBRANCH  14  25
BRANCH   3  26
ATOM     26  C   UNL     1     -33.503  32.285   0.221  0.00  0.00    -0.077 C 
BRANCH  26  27
ATOM     27  C   UNL     1     -33.738  33.583   0.991  0.00  0.00    -0.021 C 
ATOM     28  C   UNL     1     -32.478  34.461   0.970  0.00  0.00    -0.002 C 
ATOM     29  C   UNL     1     -34.942  34.343   0.420  0.00  0.00    -0.002 C 
ATOM     30  C   UNL     1     -35.163  35.672   1.140  0.00  0.00    -0.000 C 
ATOM     31  C   UNL     1     -32.704  35.789   1.689  0.00  0.00    -0.000 C 
ATOM     32  C   UNL     1     -33.907  36.537   1.125  0.00  0.00    -0.000 C 
ENDBRANCH  26  27
ENDBRANCH   3  26
TORSDOF 4
ENDMDL
MODEL 4
REMARK VINA RESULT:      -6.8      1.584      3.358
REMARK  Name = 57331386
REMARK  4 active torsions:
REMARK  status: ('A' for Active; 'I' for Inactive)
REMARK    1  A    between atoms: N_3  and  C_26
REMARK    2  A    between atoms: C_14  and  N_25
REMARK    3  A    between atoms: C_16  and  C_22
REMARK    4  A    between atoms: C_26  and  C_27
REMARK                            x       y       z     vdW  Elec       q    Type
REMARK                         _______ _______ _______ _____ _____    ______ ____
ROOT
ATOM      1  S   UNL     1     -33.896  28.262   3.151  0.00  0.00    -0.037 S 
ATOM      2  O   UNL     1     -36.272  25.414   1.081  0.00  0.00    -0.209 OA
ATOM      3  N   UNL     1     -35.023  32.621   1.169  0.00  0.00    +0.389 N 
ATOM      4  N   UNL     1     -35.400  29.861   1.756  0.00  0.00    -0.282 N 
ATOM      5  N   UNL     1     -36.003  27.623   1.572  0.00  0.00    -0.310 NA
ATOM      6  C   UNL     1     -34.661  31.590   0.185  0.00  0.00    -0.055 C 
ATOM      7  C   UNL     1     -34.828  32.113   2.536  0.00  0.00    -0.055 C 
ATOM      8  C   UNL     1     -35.678  30.864   2.780  0.00  0.00    +0.071 C 
ATOM      9  C   UNL     1     -35.505  30.330   0.377  0.00  0.00    +0.071 C 
ATOM     10  C   UNL     1     -35.238  28.553   2.059  0.00  0.00    +0.227 C 
ATOM     11  C   UNL     1     -34.343  26.676   3.793  0.00  0.00    +0.067 C 
ATOM     12  C   UNL     1     -35.241  25.849   3.117  0.00  0.00    +0.102 C 
ATOM     13  C   UNL     1     -35.860  26.284   1.844  0.00  0.00    +0.207 C 
ATOM     14  C   UNL     1     -33.761  26.228   4.986  0.00  0.00    +0.150 C 
ATOM     15  C   UNL     1     -35.548  24.579   3.626  0.00  0.00    +0.017 C 
ATOM     16  C   UNL     1     -34.967  24.144   4.816  0.00  0.00    +0.074 C 
ATOM     17  C   UNL     1     -34.074  24.967   5.496  0.00  0.00    +0.028 C 
ATOM     18  H   UNL     1     -36.008  32.853   1.047  0.00  0.00    -0.080 HD
ENDROOT
BRANCH  16  22
ATOM     19  F   UNL     1     -36.024  22.040   4.483  0.00  0.00    -0.166 F 
ATOM     20  F   UNL     1     -34.208  22.046   5.679  0.00  0.00    -0.166 F 
ATOM     21  F   UNL     1     -36.049  22.840   6.506  0.00  0.00    -0.166 F 
ATOM     22  C   UNL     1     -35.303  22.797   5.362  0.00  0.00    +0.419 C 
ENDBRANCH  16  22
BRANCH  14  25
ATOM     23  O   UNL     1     -33.086  27.275   6.926  0.00  0.00    -0.126 OA
ATOM     24  O   UNL     1     -31.805  27.438   5.150  0.00  0.00    -0.126 OA
ATOM     25  N   UNL     1     -32.836  27.020   5.726  0.00  0.00    +0.058 N 
ENDBRANCH  14  25
BRANCH   3  26
ATOM     26  C   UNL     1     -34.237  33.834   0.956  0.00  0.00    -0.077 C 
BRANCH  26  27
ATOM     27  C   UNL     1     -35.080  35.087   1.187  0.00  0.00    -0.021 C 
ATOM     28  C   UNL     1     -34.598  36.238   0.293  0.00  0.00    -0.002 C 
ATOM     29  C   UNL     1     -36.566  34.793   0.945  0.00  0.00    -0.002 C 
ATOM     30  C   UNL     1     -37.425  36.044   1.118  0.00  0.00    -0.000 C 
ATOM     31  C   UNL     1     -35.459  37.487   0.469  0.00  0.00    -0.000 C 
ATOM     32  C   UNL     1     -36.937  37.188   0.236  0.00  0.00    -0.000 C 
ENDBRANCH  26  27
ENDBRANCH   3  26
TORSDOF 4
ENDMDL
MODEL 5
REMARK VINA RESULT:      -6.7      6.157      7.722
REMARK  Name = 57331386
REMARK  4 active torsions:
REMARK  status: ('A' for Active; 'I' for Inactive)
REMARK    1  A    between atoms: N_3  and  C_26
REMARK    2  A    between atoms: C_14  and  N_25
REMARK    3  A    between atoms: C_16  and  C_22
REMARK    4  A    between atoms: C_26  and  C_27
REMARK                            x       y       z     vdW  Elec       q    Type
REMARK                         _______ _______ _______ _____ _____    ______ ____
ROOT
ATOM      1  S   UNL     1     -39.142  22.540   1.550  0.00  0.00    -0.037 S 
ATOM      2  O   UNL     1     -36.097  22.720   4.506  0.00  0.00    -0.209 OA
ATOM      3  N   UNL     1     -41.772  26.661   2.102  0.00  0.00    +0.389 N 
ATOM      4  N   UNL     1     -39.513  24.960   2.430  0.00  0.00    -0.282 N 
ATOM      5  N   UNL     1     -37.640  23.920   3.334  0.00  0.00    -0.310 NA
ATOM      6  C   UNL     1     -41.584  25.899   3.345  0.00  0.00    -0.055 C 
ATOM      7  C   UNL     1     -41.224  25.917   0.958  0.00  0.00    -0.055 C 
ATOM      8  C   UNL     1     -39.732  25.636   1.155  0.00  0.00    +0.071 C 
ATOM      9  C   UNL     1     -40.102  25.617   3.594  0.00  0.00    +0.071 C 
ATOM     10  C   UNL     1     -38.675  23.905   2.548  0.00  0.00    +0.227 C 
ATOM     11  C   UNL     1     -37.606  21.669   1.458  0.00  0.00    +0.067 C 
ATOM     12  C   UNL     1     -36.596  21.884   2.396  0.00  0.00    +0.102 C 
ATOM     13  C   UNL     1     -36.776  22.864   3.491  0.00  0.00    +0.207 C 
ATOM     14  C   UNL     1     -37.413  20.721   0.445  0.00  0.00    +0.150 C 
ATOM     15  C   UNL     1     -35.403  21.150   2.325  0.00  0.00    +0.017 C 
ATOM     16  C   UNL     1     -35.218  20.213   1.311  0.00  0.00    +0.074 C 
ATOM     17  C   UNL     1     -36.221  19.998   0.370  0.00  0.00    +0.028 C 
ATOM     18  H   UNL     1     -41.269  27.544   2.185  0.00  0.00    -0.080 HD
ENDROOT
BRANCH  16  22
ATOM     19  F   UNL     1     -32.884  20.216   0.853  0.00  0.00    -0.166 F 
ATOM     20  F   UNL     1     -33.575  18.869   2.414  0.00  0.00    -0.166 F 
ATOM     21  F   UNL     1     -33.983  18.412   0.334  0.00  0.00    -0.166 F 
ATOM     22  C   UNL     1     -33.944  19.442   1.231  0.00  0.00    +0.419 C 
ENDBRANCH  16  22
BRANCH  14  25
ATOM     23  O   UNL     1     -38.400  21.126  -1.599  0.00  0.00    -0.126 OA
ATOM     24  O   UNL     1     -39.244  19.550  -0.324  0.00  0.00    -0.126 OA
ATOM     25  N   UNL     1     -38.403  20.451  -0.544  0.00  0.00    +0.058 N 
ENDBRANCH  14  25
BRANCH   3  26
ATOM     26  C   UNL     1     -43.188  26.957   1.891  0.00  0.00    -0.077 C 
BRANCH  26  27
ATOM     27  C   UNL     1     -44.061  26.243   2.920  0.00  0.00    -0.021 C 
ATOM     28  C   UNL     1     -44.680  27.251   3.898  0.00  0.00    -0.002 C 
ATOM     29  C   UNL     1     -45.152  25.416   2.226  0.00  0.00    -0.002 C 
ATOM     30  C   UNL     1     -46.073  24.735   3.236  0.00  0.00    -0.000 C 
ATOM     31  C   UNL     1     -45.601  26.567   4.906  0.00  0.00    -0.000 C 
ATOM     32  C   UNL     1     -46.678  25.739   4.213  0.00  0.00    -0.000 C 
ENDBRANCH  26  27
ENDBRANCH   3  26
TORSDOF 4
ENDMDL
MODEL 6
REMARK VINA RESULT:      -6.7      6.113      7.229
REMARK  Name = 57331386
REMARK  4 active torsions:
REMARK  status: ('A' for Active; 'I' for Inactive)
REMARK    1  A    between atoms: N_3  and  C_26
REMARK    2  A    between atoms: C_14  and  N_25
REMARK    3  A    between atoms: C_16  and  C_22
REMARK    4  A    between atoms: C_26  and  C_27
REMARK                            x       y       z     vdW  Elec       q    Type
REMARK                         _______ _______ _______ _____ _____    ______ ____
ROOT
ATOM      1  S   UNL     1     -38.500  21.981   1.400  0.00  0.00    -0.037 S 
ATOM      2  O   UNL     1     -35.329  21.978   4.226  0.00  0.00    -0.209 OA
ATOM      3  N   UNL     1     -40.825  26.272   2.018  0.00  0.00    +0.389 N 
ATOM      4  N   UNL     1     -38.672  24.426   2.271  0.00  0.00    -0.282 N 
ATOM      5  N   UNL     1     -36.837  23.270   3.107  0.00  0.00    -0.310 NA
ATOM      6  C   UNL     1     -40.636  25.508   3.260  0.00  0.00    -0.055 C 
ATOM      7  C   UNL     1     -40.375  25.484   0.861  0.00  0.00    -0.055 C 
ATOM      8  C   UNL     1     -38.899  25.106   0.999  0.00  0.00    +0.071 C 
ATOM      9  C   UNL     1     -39.167  25.129   3.451  0.00  0.00    +0.071 C 
ATOM     10  C   UNL     1     -37.901  23.319   2.364  0.00  0.00    +0.227 C 
ATOM     11  C   UNL     1     -37.030  21.008   1.254  0.00  0.00    +0.067 C 
ATOM     12  C   UNL     1     -35.970  21.162   2.147  0.00  0.00    +0.102 C 
ATOM     13  C   UNL     1     -36.039  22.160   3.240  0.00  0.00    +0.207 C 
ATOM     14  C   UNL     1     -36.943  20.042   0.243  0.00  0.00    +0.150 C 
ATOM     15  C   UNL     1     -34.832  20.350   2.035  0.00  0.00    +0.017 C 
ATOM     16  C   UNL     1     -34.752  19.395   1.023  0.00  0.00    +0.074 C 
ATOM     17  C   UNL     1     -35.806  19.241   0.127  0.00  0.00    +0.028 C 
ATOM     18  H   UNL     1     -40.262  27.120   2.072  0.00  0.00    -0.080 HD
ENDROOT
BRANCH  16  22
ATOM     19  F   UNL     1     -32.926  18.318   2.100  0.00  0.00    -0.166 F 
ATOM     20  F   UNL     1     -33.789  17.302   0.383  0.00  0.00    -0.166 F 
ATOM     21  F   UNL     1     -32.572  19.073   0.091  0.00  0.00    -0.166 F 
ATOM     22  C   UNL     1     -33.537  18.540   0.899  0.00  0.00    +0.419 C 
ENDBRANCH  16  22
BRANCH  14  25
ATOM     23  O   UNL     1     -37.961  20.465  -1.782  0.00  0.00    -0.126 OA
ATOM     24  O   UNL     1     -38.902  19.024  -0.418  0.00  0.00    -0.126 OA
ATOM     25  N   UNL     1     -37.989  19.832  -0.702  0.00  0.00    +0.058 N 
ENDBRANCH  14  25
BRANCH   3  26
ATOM     26  C   UNL     1     -42.225  26.661   1.862  0.00  0.00    -0.077 C 
BRANCH  26  27
ATOM     27  C   UNL     1     -42.847  27.037   3.205  0.00  0.00    -0.021 C 
ATOM     28  C   UNL     1     -42.880  28.563   3.378  0.00  0.00    -0.002 C 
ATOM     29  C   UNL     1     -44.255  26.442   3.338  0.00  0.00    -0.002 C 
ATOM     30  C   UNL     1     -44.919  26.850   4.651  0.00  0.00    -0.000 C 
ATOM     31  C   UNL     1     -43.546  28.967   4.692  0.00  0.00    -0.000 C 
ATOM     32  C   UNL     1     -44.941  28.366   4.824  0.00  0.00    -0.000 C 
ENDBRANCH  26  27
ENDBRANCH   3  26
TORSDOF 4
ENDMDL
MODEL 7
REMARK VINA RESULT:      -6.5      1.629      2.183
REMARK  Name = 57331386
REMARK  4 active torsions:
REMARK  status: ('A' for Active; 'I' for Inactive)
REMARK    1  A    between atoms: N_3  and  C_26
REMARK    2  A    between atoms: C_14  and  N_25
REMARK    3  A    between atoms: C_16  and  C_22
REMARK    4  A    between atoms: C_26  and  C_27
REMARK                            x       y       z     vdW  Elec       q    Type
REMARK                         _______ _______ _______ _____ _____    ______ ____
ROOT
ATOM      1  S   UNL     1     -36.610  26.706   2.658  0.00  0.00    -0.037 S 
ATOM      2  O   UNL     1     -33.996  26.572   6.004  0.00  0.00    -0.209 OA
ATOM      3  N   UNL     1     -35.571  30.914   0.332  0.00  0.00    +0.389 N 
ATOM      4  N   UNL     1     -35.103  28.762   2.134  0.00  0.00    -0.282 N 
ATOM      5  N   UNL     1     -34.391  27.533   3.976  0.00  0.00    -0.310 NA
ATOM      6  C   UNL     1     -35.832  31.073   1.770  0.00  0.00    -0.055 C 
ATOM      7  C   UNL     1     -35.818  29.525  -0.082  0.00  0.00    -0.055 C 
ATOM      8  C   UNL     1     -34.929  28.556   0.700  0.00  0.00    +0.071 C 
ATOM      9  C   UNL     1     -34.944  30.139   2.593  0.00  0.00    +0.071 C 
ATOM     10  C   UNL     1     -35.224  27.727   2.997  0.00  0.00    +0.227 C 
ATOM     11  C   UNL     1     -36.128  25.223   3.492  0.00  0.00    +0.067 C 
ATOM     12  C   UNL     1     -35.158  25.240   4.495  0.00  0.00    +0.102 C 
ATOM     13  C   UNL     1     -34.490  26.504   4.880  0.00  0.00    +0.207 C 
ATOM     14  C   UNL     1     -36.755  24.014   3.163  0.00  0.00    +0.150 C 
ATOM     15  C   UNL     1     -34.823  24.057   5.169  0.00  0.00    +0.017 C 
ATOM     16  C   UNL     1     -35.448  22.859   4.832  0.00  0.00    +0.074 C 
ATOM     17  C   UNL     1     -36.414  22.836   3.829  0.00  0.00    +0.028 C 
ATOM     18  H   UNL     1     -34.592  31.136   0.154  0.00  0.00    -0.080 HD
ENDROOT
BRANCH  16  22
ATOM     19  F   UNL     1     -33.888  21.695   6.197  0.00  0.00    -0.166 F 
ATOM     20  F   UNL     1     -35.990  21.224   6.491  0.00  0.00    -0.166 F 
ATOM     21  F   UNL     1     -34.963  20.519   4.717  0.00  0.00    -0.166 F 
ATOM     22  C   UNL     1     -35.083  21.600   5.543  0.00  0.00    +0.419 C 
ENDBRANCH  16  22
BRANCH  14  25
ATOM     23  O   UNL     1     -37.396  23.735   0.966  0.00  0.00    -0.126 OA
ATOM     24  O   UNL     1     -38.956  24.045   2.479  0.00  0.00    -0.126 OA
ATOM     25  N   UNL     1     -37.754  23.926   2.151  0.00  0.00    +0.058 N 
ENDBRANCH  14  25
BRANCH   3  26
ATOM     26  C   UNL     1     -36.398  31.837  -0.444  0.00  0.00    -0.077 C 
BRANCH  26  27
ATOM     27  C   UNL     1     -37.845  31.353  -0.517  0.00  0.00    -0.021 C 
ATOM     28  C   UNL     1     -38.750  32.214   0.375  0.00  0.00    -0.002 C 
ATOM     29  C   UNL     1     -38.346  31.357  -1.968  0.00  0.00    -0.002 C 
ATOM     30  C   UNL     1     -39.809  30.928  -2.060  0.00  0.00    -0.000 C 
ATOM     31  C   UNL     1     -40.212  31.783   0.279  0.00  0.00    -0.000 C 
ATOM     32  C   UNL     1     -40.703  31.779  -1.165  0.00  0.00    -0.000 C 
ENDBRANCH  26  27
ENDBRANCH   3  26
TORSDOF 4
ENDMDL
MODEL 8
REMARK VINA RESULT:      -6.5      1.650      2.580
REMARK  Name = 57331386
REMARK  4 active torsions:
REMARK  status: ('A' for Active; 'I' for Inactive)
REMARK    1  A    between atoms: N_3  and  C_26
REMARK    2  A    between atoms: C_14  and  N_25
REMARK    3  A    between atoms: C_16  and  C_22
REMARK    4  A    between atoms: C_26  and  C_27
REMARK                            x       y       z     vdW  Elec       q    Type
REMARK                         _______ _______ _______ _____ _____    ______ ____
ROOT
ATOM      1  S   UNL     1     -35.539  27.357   3.074  0.00  0.00    -0.037 S 
ATOM      2  O   UNL     1     -33.165  26.523   6.496  0.00  0.00    -0.209 OA
ATOM      3  N   UNL     1     -33.571  31.383   1.045  0.00  0.00    +0.389 N 
ATOM      4  N   UNL     1     -33.628  29.090   2.729  0.00  0.00    -0.282 N 
ATOM      5  N   UNL     1     -33.264  27.649   4.517  0.00  0.00    -0.310 NA
ATOM      6  C   UNL     1     -33.861  31.516   2.479  0.00  0.00    -0.055 C 
ATOM      7  C   UNL     1     -34.071  30.096   0.539  0.00  0.00    -0.055 C 
ATOM      8  C   UNL     1     -33.431  28.928   1.292  0.00  0.00    +0.071 C 
ATOM      9  C   UNL     1     -33.218  30.380   3.275  0.00  0.00    +0.071 C 
ATOM     10  C   UNL     1     -33.994  28.057   3.523  0.00  0.00    +0.227 C 
ATOM     11  C   UNL     1     -35.403  25.766   3.834  0.00  0.00    +0.067 C 
ATOM     12  C   UNL     1     -34.498  25.534   4.869  0.00  0.00    +0.102 C 
ATOM     13  C   UNL     1     -33.608  26.615   5.354  0.00  0.00    +0.207 C 
ATOM     14  C   UNL     1     -36.243  24.728   3.410  0.00  0.00    +0.150 C 
ATOM     15  C   UNL     1     -34.438  24.275   5.482  0.00  0.00    +0.017 C 
ATOM     16  C   UNL     1     -35.274  23.247   5.051  0.00  0.00    +0.074 C 
ATOM     17  C   UNL     1     -36.177  23.473   4.016  0.00  0.00    +0.028 C 
ATOM     18  H   UNL     1     -32.560  31.411   0.915  0.00  0.00    -0.080 HD
ENDROOT
BRANCH  16  22
ATOM     19  F   UNL     1     -36.129  21.749   6.688  0.00  0.00    -0.166 F 
ATOM     20  F   UNL     1     -35.413  20.869   4.834  0.00  0.00    -0.166 F 
ATOM     21  F   UNL     1     -33.995  21.642   6.281  0.00  0.00    -0.166 F 
ATOM     22  C   UNL     1     -35.202  21.905   5.698  0.00  0.00    +0.419 C 
ENDBRANCH  16  22
BRANCH  14  25
ATOM     23  O   UNL     1     -38.352  25.269   2.649  0.00  0.00    -0.126 OA
ATOM     24  O   UNL     1     -36.833  24.666   1.182  0.00  0.00    -0.126 OA
ATOM     25  N   UNL     1     -37.192  24.897   2.359  0.00  0.00    +0.058 N 
ENDBRANCH  14  25
BRANCH   3  26
ATOM     26  C   UNL     1     -34.159  32.493   0.296  0.00  0.00    -0.077 C 
BRANCH  26  27
ATOM     27  C   UNL     1     -33.096  33.248  -0.499  0.00  0.00    -0.021 C 
ATOM     28  C   UNL     1     -33.479  34.728  -0.647  0.00  0.00    -0.002 C 
ATOM     29  C   UNL     1     -31.719  33.105   0.163  0.00  0.00    -0.002 C 
ATOM     30  C   UNL     1     -30.648  33.896  -0.584  0.00  0.00    -0.000 C 
ATOM     31  C   UNL     1     -32.405  35.516  -1.394  0.00  0.00    -0.000 C 
ATOM     32  C   UNL     1     -31.036  35.363  -0.738  0.00  0.00    -0.000 C 
ENDBRANCH  26  27
ENDBRANCH   3  26
TORSDOF 4
ENDMDL
MODEL 9
REMARK VINA RESULT:      -6.5      5.314      7.293
REMARK  Name = 57331386
REMARK  4 active torsions:
REMARK  status: ('A' for Active; 'I' for Inactive)
REMARK    1  A    between atoms: N_3  and  C_26
REMARK    2  A    between atoms: C_14  and  N_25
REMARK    3  A    between atoms: C_16  and  C_22
REMARK    4  A    between atoms: C_26  and  C_27
REMARK                            x       y       z     vdW  Elec       q    Type
REMARK                         _______ _______ _______ _____ _____    ______ ____
ROOT
ATOM      1  S   UNL     1     -39.174  25.954   2.583  0.00  0.00    -0.037 S 
ATOM      2  O   UNL     1     -40.005  22.306   0.571  0.00  0.00    -0.209 OA
ATOM      3  N   UNL     1     -43.504  28.251   3.004  0.00  0.00    +0.389 N 
ATOM      4  N   UNL     1     -41.775  26.033   2.562  0.00  0.00    -0.282 N 
ATOM      5  N   UNL     1     -40.901  24.038   1.751  0.00  0.00    -0.310 NA
ATOM      6  C   UNL     1     -43.191  27.807   1.638  0.00  0.00    -0.055 C 
ATOM      7  C   UNL     1     -42.360  28.005   3.896  0.00  0.00    -0.055 C 
ATOM      8  C   UNL     1     -41.998  26.518   3.921  0.00  0.00    +0.071 C 
ATOM      9  C   UNL     1     -42.847  26.317   1.613  0.00  0.00    +0.071 C 
ATOM     10  C   UNL     1     -40.736  25.225   2.252  0.00  0.00    +0.227 C 
ATOM     11  C   UNL     1     -38.159  24.509   2.670  0.00  0.00    +0.067 C 
ATOM     12  C   UNL     1     -38.565  23.304   2.097  0.00  0.00    +0.102 C 
ATOM     13  C   UNL     1     -39.871  23.195   1.409  0.00  0.00    +0.207 C 
ATOM     14  C   UNL     1     -36.908  24.584   3.298  0.00  0.00    +0.150 C 
ATOM     15  C   UNL     1     -37.723  22.183   2.145  0.00  0.00    +0.017 C 
ATOM     16  C   UNL     1     -36.483  22.266   2.776  0.00  0.00    +0.074 C 
ATOM     17  C   UNL     1     -36.075  23.466   3.353  0.00  0.00    +0.028 C 
ATOM     18  H   UNL     1     -44.301  27.715   3.345  0.00  0.00    -0.080 HD
ENDROOT
BRANCH  16  22
ATOM     19  F   UNL     1     -36.240  19.919   2.489  0.00  0.00    -0.166 F 
ATOM     20  F   UNL     1     -34.515  21.149   2.002  0.00  0.00    -0.166 F 
ATOM     21  F   UNL     1     -35.070  20.839   4.075  0.00  0.00    -0.166 F 
ATOM     22  C   UNL     1     -35.594  21.071   2.835  0.00  0.00    +0.419 C 
ENDBRANCH  16  22
BRANCH  14  25
ATOM     23  O   UNL     1     -36.564  25.929   5.140  0.00  0.00    -0.126 OA
ATOM     24  O   UNL     1     -35.898  26.653   3.177  0.00  0.00    -0.126 OA
ATOM     25  N   UNL     1     -36.432  25.784   3.903  0.00  0.00    +0.058 N 
ENDBRANCH  14  25
BRANCH   3  26
ATOM     26  C   UNL     1     -43.867  29.667   3.014  0.00  0.00    -0.077 C 
BRANCH  26  27
ATOM     27  C   UNL     1     -44.417  30.087   4.375  0.00  0.00    -0.021 C 
ATOM     28  C   UNL     1     -44.657  31.603   4.418  0.00  0.00    -0.002 C 
ATOM     29  C   UNL     1     -45.706  29.321   4.700  0.00  0.00    -0.002 C 
ATOM     30  C   UNL     1     -46.305  29.763   6.033  0.00  0.00    -0.000 C 
ATOM     31  C   UNL     1     -45.258  32.041   5.752  0.00  0.00    -0.000 C 
ATOM     32  C   UNL     1     -46.534  31.270   6.076  0.00  0.00    -0.000 C 
ENDBRANCH  26  27
ENDBRANCH   3  26
TORSDOF 4
ENDMDL
