MODEL 1
REMARK VINA RESULT:      -6.4      0.000      0.000
REMARK  Name = 194402
REMARK  5 active torsions:
REMARK  status: ('A' for Active; 'I' for Inactive)
REMARK    1  A    between atoms: C_5  and  O_18
REMARK    2  A    between atoms: C_7  and  O_20
REMARK    3  A    between atoms: C_14  and  O_22
REMARK    4  A    between atoms: C_15  and  O_24
REMARK    5  A    between atoms: C_16  and  O_26
REMARK                            x       y       z     vdW  Elec       q    Type
REMARK                         _______ _______ _______ _____ _____    ______ ____
ROOT
ATOM      1  O   UNL     1     -34.885  26.595   3.980  0.00  0.00    -0.332 OA
ATOM      2  O   UNL     1     -35.186  22.308   5.016  0.00  0.00    -0.291 OA
ATOM      3  O   UNL     1     -38.623  25.029   1.948  0.00  0.00    -0.289 OA
ATOM      4  C   UNL     1     -36.507  24.314   4.764  0.00  0.00    +0.101 C 
ATOM      5  C   UNL     1     -36.884  25.237   3.607  0.00  0.00    +0.177 C 
ATOM      6  C   UNL     1     -35.554  25.041   5.734  0.00  0.00    +0.067 C 
ATOM      7  C   UNL     1     -34.388  25.737   5.012  0.00  0.00    +0.184 C 
ATOM      8  C   UNL     1     -35.659  25.917   2.990  0.00  0.00    +0.179 C 
ATOM      9  C   UNL     1     -35.941  22.973   4.310  0.00  0.00    +0.179 C 
ATOM     10  C   UNL     1     -37.676  24.512   2.534  0.00  0.00    +0.203 C 
ATOM     11  C   UNL     1     -36.387  22.425   3.007  0.00  0.00    +0.077 C 
ATOM     12  C   UNL     1     -37.238  23.149   2.170  0.00  0.00    +0.077 C 
ATOM     13  C   UNL     1     -33.621  26.617   6.000  0.00  0.00    +0.061 C 
ATOM     14  C   UNL     1     -35.966  21.145   2.625  0.00  0.00    +0.171 C 
ATOM     15  C   UNL     1     -37.679  22.590   0.964  0.00  0.00    +0.140 C 
ATOM     16  C   UNL     1     -36.401  20.593   1.419  0.00  0.00    +0.175 C 
ATOM     17  C   UNL     1     -37.258  21.314   0.592  0.00  0.00    +0.077 C 
ENDROOT
BRANCH   5  18
ATOM     18  O   UNL     1     -37.750  26.250   4.125  0.00  0.00    -0.377 OA
ATOM     19  H   UNL     1     -38.588  26.239   3.635  0.00  0.00    +0.211 HD
ENDBRANCH   5  18
BRANCH   7  20
ATOM     20  O   UNL     1     -33.492  24.750   4.499  0.00  0.00    -0.363 OA
ATOM     21  H   UNL     1     -33.839  23.866   4.694  0.00  0.00    +0.213 HD
ENDBRANCH   7  20
BRANCH  14  22
ATOM     22  O   UNL     1     -35.133  20.387   3.397  0.00  0.00    -0.503 OA
ATOM     23  H   UNL     1     -34.288  20.716   3.638  0.00  0.00    +0.292 HD
ENDBRANCH  14  22
BRANCH  15  24
ATOM     24  O   UNL     1     -38.498  23.253   0.100  0.00  0.00    -0.505 OA
ATOM     25  H   UNL     1     -38.649  22.910  -0.759  0.00  0.00    +0.292 HD
ENDBRANCH  15  24
BRANCH  16  26
ATOM     26  O   UNL     1     -35.998  19.349   1.036  0.00  0.00    -0.468 OA
ATOM     27  C   UNL     1     -36.745  18.716   0.000  0.00  0.00    +0.253 C 
ENDBRANCH  16  26
TORSDOF 5
ENDMDL
MODEL 2
REMARK VINA RESULT:      -6.0      1.927      5.524
REMARK  Name = 194402
REMARK  5 active torsions:
REMARK  status: ('A' for Active; 'I' for Inactive)
REMARK    1  A    between atoms: C_5  and  O_18
REMARK    2  A    between atoms: C_7  and  O_20
REMARK    3  A    between atoms: C_14  and  O_22
REMARK    4  A    between atoms: C_15  and  O_24
REMARK    5  A    between atoms: C_16  and  O_26
REMARK                            x       y       z     vdW  Elec       q    Type
REMARK                         _______ _______ _______ _____ _____    ______ ____
ROOT
ATOM      1  O   UNL     1     -41.146  23.069   0.820  0.00  0.00    -0.332 OA
ATOM      2  O   UNL     1     -37.114  21.299   1.203  0.00  0.00    -0.291 OA
ATOM      3  O   UNL     1     -38.383  26.412   2.143  0.00  0.00    -0.289 OA
ATOM      4  C   UNL     1     -38.274  23.263   0.411  0.00  0.00    +0.101 C 
ATOM      5  C   UNL     1     -39.096  24.380   1.052  0.00  0.00    +0.177 C 
ATOM      6  C   UNL     1     -39.185  22.358  -0.441  0.00  0.00    +0.067 C 
ATOM      7  C   UNL     1     -40.459  21.924   0.304  0.00  0.00    +0.184 C 
ATOM      8  C   UNL     1     -40.365  23.850   1.724  0.00  0.00    +0.179 C 
ATOM      9  C   UNL     1     -37.456  22.460   1.417  0.00  0.00    +0.179 C 
ATOM     10  C   UNL     1     -38.279  25.192   2.043  0.00  0.00    +0.203 C 
ATOM     11  C   UNL     1     -36.995  23.137   2.651  0.00  0.00    +0.077 C 
ATOM     12  C   UNL     1     -37.366  24.453   2.937  0.00  0.00    +0.077 C 
ATOM     13  C   UNL     1     -41.412  21.226  -0.667  0.00  0.00    +0.061 C 
ATOM     14  C   UNL     1     -36.149  22.451   3.531  0.00  0.00    +0.171 C 
ATOM     15  C   UNL     1     -36.881  25.084   4.090  0.00  0.00    +0.140 C 
ATOM     16  C   UNL     1     -35.673  23.080   4.683  0.00  0.00    +0.175 C 
ATOM     17  C   UNL     1     -36.037  24.395   4.960  0.00  0.00    +0.077 C 
ENDROOT
BRANCH   5  18
ATOM     18  O   UNL     1     -39.478  25.287   0.015  0.00  0.00    -0.377 OA
ATOM     19  H   UNL     1     -39.147  24.962  -0.837  0.00  0.00    +0.211 HD
ENDBRANCH   5  18
BRANCH   7  20
ATOM     20  O   UNL     1     -40.113  21.001   1.337  0.00  0.00    -0.363 OA
ATOM     21  H   UNL     1     -39.734  21.484   2.088  0.00  0.00    +0.213 HD
ENDBRANCH   7  20
BRANCH  14  22
ATOM     22  O   UNL     1     -35.751  21.163   3.310  0.00  0.00    -0.503 OA
ATOM     23  H   UNL     1     -34.878  20.986   3.019  0.00  0.00    +0.292 HD
ENDBRANCH  14  22
BRANCH  15  24
ATOM     24  O   UNL     1     -37.219  26.360   4.429  0.00  0.00    -0.505 OA
ATOM     25  H   UNL     1     -37.965  26.518   4.974  0.00  0.00    +0.292 HD
ENDBRANCH  15  24
BRANCH  16  26
ATOM     26  O   UNL     1     -34.850  22.422   5.547  0.00  0.00    -0.468 OA
ATOM     27  C   UNL     1     -35.450  21.855   6.709  0.00  0.00    +0.253 C 
ENDBRANCH  16  26
TORSDOF 5
ENDMDL
MODEL 3
REMARK VINA RESULT:      -5.7      2.289      4.610
REMARK  Name = 194402
REMARK  5 active torsions:
REMARK  status: ('A' for Active; 'I' for Inactive)
REMARK    1  A    between atoms: C_5  and  O_18
REMARK    2  A    between atoms: C_7  and  O_20
REMARK    3  A    between atoms: C_14  and  O_22
REMARK    4  A    between atoms: C_15  and  O_24
REMARK    5  A    between atoms: C_16  and  O_26
REMARK                            x       y       z     vdW  Elec       q    Type
REMARK                         _______ _______ _______ _____ _____    ______ ____
ROOT
ATOM      1  O   UNL     1     -35.550  24.413   5.566  0.00  0.00    -0.332 OA
ATOM      2  O   UNL     1     -36.878  26.966   2.210  0.00  0.00    -0.291 OA
ATOM      3  O   UNL     1     -37.466  21.656   2.518  0.00  0.00    -0.289 OA
ATOM      4  C   UNL     1     -35.825  24.849   2.705  0.00  0.00    +0.101 C 
ATOM      5  C   UNL     1     -36.249  23.550   3.388  0.00  0.00    +0.177 C 
ATOM      6  C   UNL     1     -34.788  25.589   3.572  0.00  0.00    +0.067 C 
ATOM      7  C   UNL     1     -35.216  25.703   5.046  0.00  0.00    +0.184 C 
ATOM      8  C   UNL     1     -36.609  23.763   4.860  0.00  0.00    +0.179 C 
ATOM      9  C   UNL     1     -36.999  25.748   2.332  0.00  0.00    +0.179 C 
ATOM     10  C   UNL     1     -37.399  22.874   2.662  0.00  0.00    +0.203 C 
ATOM     11  C   UNL     1     -38.303  25.115   2.028  0.00  0.00    +0.077 C 
ATOM     12  C   UNL     1     -38.487  23.737   2.159  0.00  0.00    +0.077 C 
ATOM     13  C   UNL     1     -34.052  26.239   5.881  0.00  0.00    +0.061 C 
ATOM     14  C   UNL     1     -39.361  25.914   1.574  0.00  0.00    +0.171 C 
ATOM     15  C   UNL     1     -39.718  23.158   1.824  0.00  0.00    +0.140 C 
ATOM     16  C   UNL     1     -40.588  25.335   1.248  0.00  0.00    +0.175 C 
ATOM     17  C   UNL     1     -40.765  23.959   1.371  0.00  0.00    +0.077 C 
ENDROOT
BRANCH   5  18
ATOM     18  O   UNL     1     -35.146  22.642   3.317  0.00  0.00    -0.377 OA
ATOM     19  H   UNL     1     -35.194  22.140   2.489  0.00  0.00    +0.211 HD
ENDBRANCH   5  18
BRANCH   7  20
ATOM     20  O   UNL     1     -36.306  26.619   5.152  0.00  0.00    -0.363 OA
ATOM     21  H   UNL     1     -36.041  27.374   5.699  0.00  0.00    +0.213 HD
ENDBRANCH   7  20
BRANCH  14  22
ATOM     22  O   UNL     1     -39.246  27.266   1.426  0.00  0.00    -0.503 OA
ATOM     23  H   UNL     1     -38.412  27.680   1.534  0.00  0.00    +0.292 HD
ENDBRANCH  14  22
BRANCH  15  24
ATOM     24  O   UNL     1     -39.962  21.822   1.945  0.00  0.00    -0.505 OA
ATOM     25  H   UNL     1     -40.332  21.483   2.736  0.00  0.00    +0.292 HD
ENDBRANCH  15  24
BRANCH  16  26
ATOM     26  O   UNL     1     -41.625  26.102   0.806  0.00  0.00    -0.468 OA
ATOM     27  C   UNL     1     -42.688  26.345   1.724  0.00  0.00    +0.253 C 
ENDBRANCH  16  26
TORSDOF 5
ENDMDL
MODEL 4
REMARK VINA RESULT:      -5.7      2.898      5.093
REMARK  Name = 194402
REMARK  5 active torsions:
REMARK  status: ('A' for Active; 'I' for Inactive)
REMARK    1  A    between atoms: C_5  and  O_18
REMARK    2  A    between atoms: C_7  and  O_20
REMARK    3  A    between atoms: C_14  and  O_22
REMARK    4  A    between atoms: C_15  and  O_24
REMARK    5  A    between atoms: C_16  and  O_26
REMARK                            x       y       z     vdW  Elec       q    Type
REMARK                         _______ _______ _______ _____ _____    ______ ____
ROOT
ATOM      1  O   UNL     1     -33.931  23.962   4.665  0.00  0.00    -0.332 OA
ATOM      2  O   UNL     1     -38.202  24.693   3.792  0.00  0.00    -0.291 OA
ATOM      3  O   UNL     1     -34.283  28.322   3.471  0.00  0.00    -0.289 OA
ATOM      4  C   UNL     1     -36.273  25.673   4.865  0.00  0.00    +0.101 C 
ATOM      5  C   UNL     1     -34.910  26.187   4.406  0.00  0.00    +0.177 C 
ATOM      6  C   UNL     1     -36.101  24.383   5.691  0.00  0.00    +0.067 C 
ATOM      7  C   UNL     1     -35.181  23.356   5.008  0.00  0.00    +0.184 C 
ATOM      8  C   UNL     1     -34.055  25.080   3.785  0.00  0.00    +0.179 C 
ATOM      9  C   UNL     1     -37.267  25.487   3.723  0.00  0.00    +0.179 C 
ATOM     10  C   UNL     1     -35.037  27.353   3.440  0.00  0.00    +0.203 C 
ATOM     11  C   UNL     1     -37.139  26.357   2.531  0.00  0.00    +0.077 C 
ATOM     12  C   UNL     1     -36.089  27.269   2.408  0.00  0.00    +0.077 C 
ATOM     13  C   UNL     1     -34.877  22.211   5.975  0.00  0.00    +0.061 C 
ATOM     14  C   UNL     1     -38.109  26.280   1.523  0.00  0.00    +0.171 C 
ATOM     15  C   UNL     1     -36.016  28.109   1.290  0.00  0.00    +0.140 C 
ATOM     16  C   UNL     1     -38.030  27.115   0.407  0.00  0.00    +0.175 C 
ATOM     17  C   UNL     1     -36.987  28.029   0.292  0.00  0.00    +0.077 C 
ENDROOT
BRANCH   5  18
ATOM     18  O   UNL     1     -34.228  26.695   5.555  0.00  0.00    -0.377 OA
ATOM     19  H   UNL     1     -34.726  27.443   5.922  0.00  0.00    +0.211 HD
ENDBRANCH   5  18
BRANCH   7  20
ATOM     20  O   UNL     1     -35.842  22.815   3.864  0.00  0.00    -0.363 OA
ATOM     21  H   UNL     1     -36.691  23.267   3.738  0.00  0.00    +0.213 HD
ENDBRANCH   7  20
BRANCH  14  22
ATOM     22  O   UNL     1     -39.159  25.410   1.582  0.00  0.00    -0.503 OA
ATOM     23  H   UNL     1     -39.946  25.590   1.104  0.00  0.00    +0.292 HD
ENDBRANCH  14  22
BRANCH  15  24
ATOM     24  O   UNL     1     -35.008  29.009   1.108  0.00  0.00    -0.505 OA
ATOM     25  H   UNL     1     -34.590  29.081   0.272  0.00  0.00    +0.292 HD
ENDBRANCH  15  24
BRANCH  16  26
ATOM     26  O   UNL     1     -38.968  27.048  -0.581  0.00  0.00    -0.468 OA
ATOM     27  C   UNL     1     -39.925  28.103  -0.637  0.00  0.00    +0.253 C 
ENDBRANCH  16  26
TORSDOF 5
ENDMDL
MODEL 5
REMARK VINA RESULT:      -5.7      2.929      5.900
REMARK  Name = 194402
REMARK  5 active torsions:
REMARK  status: ('A' for Active; 'I' for Inactive)
REMARK    1  A    between atoms: C_5  and  O_18
REMARK    2  A    between atoms: C_7  and  O_20
REMARK    3  A    between atoms: C_14  and  O_22
REMARK    4  A    between atoms: C_15  and  O_24
REMARK    5  A    between atoms: C_16  and  O_26
REMARK                            x       y       z     vdW  Elec       q    Type
REMARK                         _______ _______ _______ _____ _____    ______ ____
ROOT
ATOM      1  O   UNL     1     -40.846  25.445  -1.117  0.00  0.00    -0.332 OA
ATOM      2  O   UNL     1     -39.652  26.640   2.968  0.00  0.00    -0.291 OA
ATOM      3  O   UNL     1     -40.207  21.613   1.221  0.00  0.00    -0.289 OA
ATOM      4  C   UNL     1     -41.033  25.070   1.760  0.00  0.00    +0.101 C 
ATOM      5  C   UNL     1     -40.785  23.916   0.790  0.00  0.00    +0.177 C 
ATOM      6  C   UNL     1     -41.696  26.249   1.021  0.00  0.00    +0.067 C 
ATOM      7  C   UNL     1     -40.980  26.607  -0.293  0.00  0.00    +0.184 C 
ATOM      8  C   UNL     1     -40.113  24.385  -0.503  0.00  0.00    +0.179 C 
ATOM      9  C   UNL     1     -39.783  25.504   2.517  0.00  0.00    +0.179 C 
ATOM     10  C   UNL     1     -39.974  22.801   1.426  0.00  0.00    +0.203 C 
ATOM     11  C   UNL     1     -38.734  24.492   2.784  0.00  0.00    +0.077 C 
ATOM     12  C   UNL     1     -38.838  23.192   2.286  0.00  0.00    +0.077 C 
ATOM     13  C   UNL     1     -41.814  27.622  -1.075  0.00  0.00    +0.061 C 
ATOM     14  C   UNL     1     -37.632  24.843   3.575  0.00  0.00    +0.171 C 
ATOM     15  C   UNL     1     -37.854  22.243   2.589  0.00  0.00    +0.140 C 
ATOM     16  C   UNL     1     -36.649  23.897   3.869  0.00  0.00    +0.175 C 
ATOM     17  C   UNL     1     -36.761  22.599   3.379  0.00  0.00    +0.077 C 
ENDROOT
BRANCH   5  18
ATOM     18  O   UNL     1     -42.054  23.346   0.460  0.00  0.00    -0.377 OA
ATOM     19  H   UNL     1     -42.476  23.876  -0.234  0.00  0.00    +0.211 HD
ENDBRANCH   5  18
BRANCH   7  20
ATOM     20  O   UNL     1     -39.714  27.198   0.004  0.00  0.00    -0.363 OA
ATOM     21  H   UNL     1     -39.657  27.379   0.955  0.00  0.00    +0.213 HD
ENDBRANCH   7  20
BRANCH  14  22
ATOM     22  O   UNL     1     -37.470  26.097   4.090  0.00  0.00    -0.503 OA
ATOM     23  H   UNL     1     -36.618  26.488   4.115  0.00  0.00    +0.292 HD
ENDBRANCH  14  22
BRANCH  15  24
ATOM     24  O   UNL     1     -37.893  20.964   2.120  0.00  0.00    -0.505 OA
ATOM     25  H   UNL     1     -37.466  20.278   2.594  0.00  0.00    +0.292 HD
ENDBRANCH  15  24
BRANCH  16  26
ATOM     26  O   UNL     1     -35.572  24.227   4.637  0.00  0.00    -0.468 OA
ATOM     27  C   UNL     1     -35.197  23.305   5.657  0.00  0.00    +0.253 C 
ENDBRANCH  16  26
TORSDOF 5
ENDMDL
MODEL 6
REMARK VINA RESULT:      -5.7      2.146      5.743
REMARK  Name = 194402
REMARK  5 active torsions:
REMARK  status: ('A' for Active; 'I' for Inactive)
REMARK    1  A    between atoms: C_5  and  O_18
REMARK    2  A    between atoms: C_7  and  O_20
REMARK    3  A    between atoms: C_14  and  O_22
REMARK    4  A    between atoms: C_15  and  O_24
REMARK    5  A    between atoms: C_16  and  O_26
REMARK                            x       y       z     vdW  Elec       q    Type
REMARK                         _______ _______ _______ _____ _____    ______ ____
ROOT
ATOM      1  O   UNL     1     -39.681  24.458  -0.727  0.00  0.00    -0.332 OA
ATOM      2  O   UNL     1     -39.232  26.251   3.288  0.00  0.00    -0.291 OA
ATOM      3  O   UNL     1     -38.359  21.121   2.043  0.00  0.00    -0.289 OA
ATOM      4  C   UNL     1     -40.057  24.287   2.150  0.00  0.00    +0.101 C 
ATOM      5  C   UNL     1     -39.438  23.158   1.329  0.00  0.00    +0.177 C 
ATOM      6  C   UNL     1     -40.912  25.194   1.243  0.00  0.00    +0.067 C 
ATOM      7  C   UNL     1     -40.177  25.612  -0.043  0.00  0.00    +0.184 C 
ATOM      8  C   UNL     1     -38.775  23.673   0.049  0.00  0.00    +0.179 C 
ATOM      9  C   UNL     1     -39.034  25.086   2.951  0.00  0.00    +0.179 C 
ATOM     10  C   UNL     1     -38.445  22.342   2.139  0.00  0.00    +0.203 C 
ATOM     11  C   UNL     1     -37.801  24.399   3.402  0.00  0.00    +0.077 C 
ATOM     12  C   UNL     1     -37.532  23.078   3.037  0.00  0.00    +0.077 C 
ATOM     13  C   UNL     1     -41.153  26.314  -0.989  0.00  0.00    +0.061 C 
ATOM     14  C   UNL     1     -36.904  25.083   4.233  0.00  0.00    +0.171 C 
ATOM     15  C   UNL     1     -36.381  22.440   3.512  0.00  0.00    +0.140 C 
ATOM     16  C   UNL     1     -35.754  24.445   4.699  0.00  0.00    +0.175 C 
ATOM     17  C   UNL     1     -35.494  23.125   4.341  0.00  0.00    +0.077 C 
ENDROOT
BRANCH   5  18
ATOM     18  O   UNL     1     -40.489  22.259   0.966  0.00  0.00    -0.377 OA
ATOM     19  H   UNL     1     -41.036  22.070   1.744  0.00  0.00    +0.211 HD
ENDBRANCH   5  18
BRANCH   7  20
ATOM     20  O   UNL     1     -39.132  26.527   0.285  0.00  0.00    -0.363 OA
ATOM     21  H   UNL     1     -38.309  26.037   0.436  0.00  0.00    +0.213 HD
ENDBRANCH   7  20
BRANCH  14  22
ATOM     22  O   UNL     1     -37.108  26.375   4.624  0.00  0.00    -0.503 OA
ATOM     23  H   UNL     1     -36.397  26.876   4.976  0.00  0.00    +0.292 HD
ENDBRANCH  14  22
BRANCH  15  24
ATOM     24  O   UNL     1     -36.058  21.157   3.179  0.00  0.00    -0.505 OA
ATOM     25  H   UNL     1     -35.192  20.954   2.885  0.00  0.00    +0.292 HD
ENDBRANCH  15  24
BRANCH  16  26
ATOM     26  O   UNL     1     -34.873  25.101   5.508  0.00  0.00    -0.468 OA
ATOM     27  C   UNL     1     -33.815  25.813   4.871  0.00  0.00    +0.253 C 
ENDBRANCH  16  26
TORSDOF 5
ENDMDL
MODEL 7
REMARK VINA RESULT:      -5.6      2.351      5.020
REMARK  Name = 194402
REMARK  5 active torsions:
REMARK  status: ('A' for Active; 'I' for Inactive)
REMARK    1  A    between atoms: C_5  and  O_18
REMARK    2  A    between atoms: C_7  and  O_20
REMARK    3  A    between atoms: C_14  and  O_22
REMARK    4  A    between atoms: C_15  and  O_24
REMARK    5  A    between atoms: C_16  and  O_26
REMARK                            x       y       z     vdW  Elec       q    Type
REMARK                         _______ _______ _______ _____ _____    ______ ____
ROOT
ATOM      1  O   UNL     1     -34.302  22.790   1.459  0.00  0.00    -0.332 OA
ATOM      2  O   UNL     1     -38.342  20.999   1.585  0.00  0.00    -0.291 OA
ATOM      3  O   UNL     1     -36.722  25.255   4.397  0.00  0.00    -0.289 OA
ATOM      4  C   UNL     1     -36.623  21.947   2.993  0.00  0.00    +0.101 C 
ATOM      5  C   UNL     1     -35.979  23.322   3.157  0.00  0.00    +0.177 C 
ATOM      6  C   UNL     1     -35.609  20.955   2.390  0.00  0.00    +0.067 C 
ATOM      7  C   UNL     1     -34.887  21.520   1.154  0.00  0.00    +0.184 C 
ATOM      8  C   UNL     1     -35.247  23.771   1.890  0.00  0.00    +0.179 C 
ATOM      9  C   UNL     1     -37.926  21.978   2.202  0.00  0.00    +0.179 C 
ATOM     10  C   UNL     1     -36.987  24.377   3.580  0.00  0.00    +0.203 C 
ATOM     11  C   UNL     1     -38.750  23.209   2.251  0.00  0.00    +0.077 C 
ATOM     12  C   UNL     1     -38.314  24.346   2.933  0.00  0.00    +0.077 C 
ATOM     13  C   UNL     1     -33.747  20.584   0.750  0.00  0.00    +0.061 C 
ATOM     14  C   UNL     1     -40.003  23.217   1.623  0.00  0.00    +0.171 C 
ATOM     15  C   UNL     1     -39.132  25.481   3.000  0.00  0.00    +0.140 C 
ATOM     16  C   UNL     1     -40.812  24.352   1.686  0.00  0.00    +0.175 C 
ATOM     17  C   UNL     1     -40.378  25.481   2.376  0.00  0.00    +0.077 C 
ENDROOT
BRANCH   5  18
ATOM     18  O   UNL     1     -35.028  23.232   4.221  0.00  0.00    -0.377 OA
ATOM     19  H   UNL     1     -35.337  22.586   4.877  0.00  0.00    +0.211 HD
ENDBRANCH   5  18
BRANCH   7  20
ATOM     20  O   UNL     1     -35.807  21.605   0.066  0.00  0.00    -0.363 OA
ATOM     21  H   UNL     1     -35.790  22.502  -0.302  0.00  0.00    +0.213 HD
ENDBRANCH   7  20
BRANCH  14  22
ATOM     22  O   UNL     1     -40.486  22.139   0.939  0.00  0.00    -0.503 OA
ATOM     23  H   UNL     1     -40.643  22.200   0.017  0.00  0.00    +0.292 HD
ENDBRANCH  14  22
BRANCH  15  24
ATOM     24  O   UNL     1     -38.755  26.625   3.638  0.00  0.00    -0.505 OA
ATOM     25  H   UNL     1     -38.483  26.594   4.535  0.00  0.00    +0.292 HD
ENDBRANCH  15  24
BRANCH  16  26
ATOM     26  O   UNL     1     -42.033  24.372   1.079  0.00  0.00    -0.468 OA
ATOM     27  C   UNL     1     -42.865  25.500   1.335  0.00  0.00    +0.253 C 
ENDBRANCH  16  26
TORSDOF 5
ENDMDL
MODEL 8
REMARK VINA RESULT:      -5.6      3.055      6.305
REMARK  Name = 194402
REMARK  5 active torsions:
REMARK  status: ('A' for Active; 'I' for Inactive)
REMARK    1  A    between atoms: C_5  and  O_18
REMARK    2  A    between atoms: C_7  and  O_20
REMARK    3  A    between atoms: C_14  and  O_22
REMARK    4  A    between atoms: C_15  and  O_24
REMARK    5  A    between atoms: C_16  and  O_26
REMARK                            x       y       z     vdW  Elec       q    Type
REMARK                         _______ _______ _______ _____ _____    ______ ____
ROOT
ATOM      1  O   UNL     1     -36.889  24.237   4.824  0.00  0.00    -0.332 OA
ATOM      2  O   UNL     1     -32.953  26.086   4.032  0.00  0.00    -0.291 OA
ATOM      3  O   UNL     1     -37.359  26.729   1.066  0.00  0.00    -0.289 OA
ATOM      4  C   UNL     1     -34.817  25.010   2.937  0.00  0.00    +0.101 C 
ATOM      5  C   UNL     1     -36.294  25.334   2.722  0.00  0.00    +0.177 C 
ATOM      6  C   UNL     1     -34.672  23.818   3.903  0.00  0.00    +0.067 C 
ATOM      7  C   UNL     1     -35.527  23.973   5.173  0.00  0.00    +0.184 C 
ATOM      8  C   UNL     1     -37.064  25.419   4.042  0.00  0.00    +0.179 C 
ATOM      9  C   UNL     1     -33.993  26.211   3.389  0.00  0.00    +0.179 C 
ATOM     10  C   UNL     1     -36.487  26.610   1.922  0.00  0.00    +0.203 C 
ATOM     11  C   UNL     1     -34.426  27.562   2.964  0.00  0.00    +0.077 C 
ATOM     12  C   UNL     1     -35.604  27.751   2.238  0.00  0.00    +0.077 C 
ATOM     13  C   UNL     1     -35.510  22.667   5.969  0.00  0.00    +0.061 C 
ATOM     14  C   UNL     1     -33.620  28.666   3.273  0.00  0.00    +0.171 C 
ATOM     15  C   UNL     1     -35.967  29.034   1.811  0.00  0.00    +0.140 C 
ATOM     16  C   UNL     1     -33.989  29.945   2.852  0.00  0.00    +0.175 C 
ATOM     17  C   UNL     1     -35.159  30.127   2.120  0.00  0.00    +0.077 C 
ENDROOT
BRANCH   5  18
ATOM     18  O   UNL     1     -36.859  24.282   1.935  0.00  0.00    -0.377 OA
ATOM     19  H   UNL     1     -37.077  23.531   2.508  0.00  0.00    +0.211 HD
ENDBRANCH   5  18
BRANCH   7  20
ATOM     20  O   UNL     1     -34.976  25.005   5.991  0.00  0.00    -0.363 OA
ATOM     21  H   UNL     1     -34.510  25.646   5.433  0.00  0.00    +0.213 HD
ENDBRANCH   7  20
BRANCH  14  22
ATOM     22  O   UNL     1     -32.458  28.549   3.980  0.00  0.00    -0.503 OA
ATOM     23  H   UNL     1     -32.150  29.268   4.498  0.00  0.00    +0.292 HD
ENDBRANCH  14  22
BRANCH  15  24
ATOM     24  O   UNL     1     -37.111  29.282   1.113  0.00  0.00    -0.505 OA
ATOM     25  H   UNL     1     -37.143  29.994   0.504  0.00  0.00    +0.292 HD
ENDBRANCH  15  24
BRANCH  16  26
ATOM     26  O   UNL     1     -33.213  31.026   3.148  0.00  0.00    -0.468 OA
ATOM     27  C   UNL     1     -33.490  32.233   2.442  0.00  0.00    +0.253 C 
ENDBRANCH  16  26
TORSDOF 5
ENDMDL
MODEL 9
REMARK VINA RESULT:      -5.6      1.944      4.147
REMARK  Name = 194402
REMARK  5 active torsions:
REMARK  status: ('A' for Active; 'I' for Inactive)
REMARK    1  A    between atoms: C_5  and  O_18
REMARK    2  A    between atoms: C_7  and  O_20
REMARK    3  A    between atoms: C_14  and  O_22
REMARK    4  A    between atoms: C_15  and  O_24
REMARK    5  A    between atoms: C_16  and  O_26
REMARK                            x       y       z     vdW  Elec       q    Type
REMARK                         _______ _______ _______ _____ _____    ______ ____
ROOT
ATOM      1  O   UNL     1     -39.616  25.635   2.654  0.00  0.00    -0.332 OA
ATOM      2  O   UNL     1     -36.393  24.242  -0.030  0.00  0.00    -0.291 OA
ATOM      3  O   UNL     1     -36.309  24.043   5.316  0.00  0.00    -0.289 OA
ATOM      4  C   UNL     1     -36.783  25.432   2.035  0.00  0.00    +0.101 C 
ATOM      5  C   UNL     1     -37.357  25.082   3.407  0.00  0.00    +0.177 C 
ATOM      6  C   UNL     1     -37.742  26.379   1.286  0.00  0.00    +0.067 C 
ATOM      7  C   UNL     1     -39.200  25.890   1.309  0.00  0.00    +0.184 C 
ATOM      8  C   UNL     1     -38.825  24.655   3.326  0.00  0.00    +0.179 C 
ATOM      9  C   UNL     1     -36.425  24.209   1.198  0.00  0.00    +0.179 C 
ATOM     10  C   UNL     1     -36.539  24.013   4.110  0.00  0.00    +0.203 C 
ATOM     11  C   UNL     1     -36.025  22.967   1.901  0.00  0.00    +0.077 C 
ATOM     12  C   UNL     1     -36.053  22.882   3.294  0.00  0.00    +0.077 C 
ATOM     13  C   UNL     1     -40.118  26.979   0.752  0.00  0.00    +0.061 C 
ATOM     14  C   UNL     1     -35.583  21.870   1.150  0.00  0.00    +0.171 C 
ATOM     15  C   UNL     1     -35.628  21.712   3.935  0.00  0.00    +0.140 C 
ATOM     16  C   UNL     1     -35.168  20.702   1.792  0.00  0.00    +0.175 C 
ATOM     17  C   UNL     1     -35.188  20.624   3.181  0.00  0.00    +0.077 C 
ENDROOT
BRANCH   5  18
ATOM     18  O   UNL     1     -37.270  26.252   4.225  0.00  0.00    -0.377 OA
ATOM     19  H   UNL     1     -37.215  25.991   5.157  0.00  0.00    +0.211 HD
ENDBRANCH   5  18
BRANCH   7  20
ATOM     20  O   UNL     1     -39.325  24.731   0.484  0.00  0.00    -0.363 OA
ATOM     21  H   UNL     1     -38.584  24.699  -0.141  0.00  0.00    +0.213 HD
ENDBRANCH   7  20
BRANCH  14  22
ATOM     22  O   UNL     1     -35.534  21.888  -0.214  0.00  0.00    -0.503 OA
ATOM     23  H   UNL     1     -35.071  22.572  -0.657  0.00  0.00    +0.292 HD
ENDBRANCH  14  22
BRANCH  15  24
ATOM     24  O   UNL     1     -35.646  21.565   5.290  0.00  0.00    -0.505 OA
ATOM     25  H   UNL     1     -36.308  21.039   5.696  0.00  0.00    +0.292 HD
ENDBRANCH  15  24
BRANCH  16  26
ATOM     26  O   UNL     1     -34.737  19.627   1.072  0.00  0.00    -0.468 OA
ATOM     27  C   UNL     1     -33.344  19.329   1.124  0.00  0.00    +0.253 C 
ENDBRANCH  16  26
TORSDOF 5
ENDMDL
