MODEL 1
REMARK VINA RESULT:      -7.4      0.000      0.000
REMARK  Name = 5316606
REMARK  11 active torsions:
REMARK  status: ('A' for Active; 'I' for Inactive)
REMARK    1  A    between atoms: C_1  and  O_19
REMARK    2  A    between atoms: C_4  and  C_9
REMARK    3  A    between atoms: C_5  and  O_7
REMARK    4  A    between atoms: C_10  and  C_11
REMARK    5  A    between atoms: C_16  and  O_17
REMARK    6  A    between atoms: O_19  and  C_25
REMARK    7  A    between atoms: C_21  and  O_26
REMARK    8  A    between atoms: C_22  and  O_28
REMARK    9  A    between atoms: C_23  and  C_32
REMARK   10  A    between atoms: C_24  and  O_30
REMARK   11  A    between atoms: C_32  and  O_33
REMARK                            x       y       z     vdW  Elec       q    Type
REMARK                         _______ _______ _______ _____ _____    ______ ____
ROOT
ATOM      1  C   UNL     1     -38.097  21.853   1.902  0.00  0.00    +0.144 C 
ATOM      2  C   UNL     1     -36.843  21.293   1.681  0.00  0.00    +0.037 C 
ATOM      3  C   UNL     1     -39.196  21.439   1.155  0.00  0.00    +0.074 C 
ATOM      4  C   UNL     1     -36.685  20.309   0.704  0.00  0.00    +0.006 C 
ATOM      5  C   UNL     1     -39.039  20.455   0.179  0.00  0.00    +0.137 C 
ATOM      6  C   UNL     1     -37.783  19.890  -0.047  0.00  0.00    +0.037 C 
ENDROOT
BRANCH   5   7
ATOM      7  O   UNL     1     -40.110  20.048  -0.554  0.00  0.00    -0.505 OA
ATOM      8  H   UNL     1     -40.172  19.157  -0.840  0.00  0.00    +0.292 HD
ENDBRANCH   5   7
BRANCH   4   9
ATOM      9  C   UNL     1     -35.376  19.721   0.469  0.00  0.00    +0.000 C 
ATOM     10  C   UNL     1     -34.212  20.169   0.997  0.00  0.00    +0.000 C 
BRANCH  10  11
ATOM     11  C   UNL     1     -32.889  19.561   0.774  0.00  0.00    +0.000 C 
ATOM     12  C   UNL     1     -31.950  20.239   0.014  0.00  0.00    +0.003 C 
ATOM     13  C   UNL     1     -32.608  18.324   1.330  0.00  0.00    +0.003 C 
ATOM     14  C   UNL     1     -30.697  19.663  -0.197  0.00  0.00    +0.037 C 
ATOM     15  C   UNL     1     -31.356  17.748   1.120  0.00  0.00    +0.037 C 
ATOM     16  C   UNL     1     -30.399  18.418   0.356  0.00  0.00    +0.139 C 
BRANCH  16  17
ATOM     17  O   UNL     1     -29.178  17.856   0.149  0.00  0.00    -0.471 OA
ATOM     18  C   UNL     1     -28.491  17.356   1.295  0.00  0.00    +0.252 C 
ENDBRANCH  16  17
ENDBRANCH  10  11
ENDBRANCH   4   9
BRANCH   1  19
ATOM     19  O   UNL     1     -38.251  22.817   2.860  0.00  0.00    -0.450 OA
BRANCH  19  25
ATOM     20  O   UNL     1     -36.590  22.624   4.487  0.00  0.00    -0.316 OA
ATOM     21  C   UNL     1     -35.614  24.541   5.607  0.00  0.00    +0.169 C 
ATOM     22  C   UNL     1     -36.186  25.467   4.534  0.00  0.00    +0.173 C 
ATOM     23  C   UNL     1     -35.377  23.137   5.042  0.00  0.00    +0.177 C 
ATOM     24  C   UNL     1     -37.376  24.823   3.823  0.00  0.00    +0.210 C 
ATOM     25  C   UNL     1     -37.055  23.396   3.382  0.00  0.00    +0.318 C 
BRANCH  21  26
ATOM     26  O   UNL     1     -34.380  25.072   6.080  0.00  0.00    -0.379 OA
ATOM     27  H   UNL     1     -34.360  26.030   5.926  0.00  0.00    +0.211 HD
ENDBRANCH  21  26
BRANCH  22  28
ATOM     28  O   UNL     1     -36.608  26.673   5.172  0.00  0.00    -0.379 OA
ATOM     29  H   UNL     1     -35.859  27.286   5.233  0.00  0.00    +0.211 HD
ENDBRANCH  22  28
BRANCH  24  30
ATOM     30  O   UNL     1     -37.704  25.587   2.663  0.00  0.00    -0.377 OA
ATOM     31  H   UNL     1     -36.900  25.753   2.147  0.00  0.00    +0.211 HD
ENDBRANCH  24  30
BRANCH  23  32
ATOM     32  C   UNL     1     -34.918  22.163   6.122  0.00  0.00    +0.169 C 
BRANCH  32  33
ATOM     33  O   UNL     1     -35.338  20.860   5.763  0.00  0.00    -0.379 OA
ATOM     34  H   UNL     1     -36.286  20.765   5.945  0.00  0.00    +0.211 HD
ENDBRANCH  32  33
ENDBRANCH  23  32
ENDBRANCH  19  25
ENDBRANCH   1  19
TORSDOF 11
ENDMDL
MODEL 2
REMARK VINA RESULT:      -6.9      1.564      2.437
REMARK  Name = 5316606
REMARK  11 active torsions:
REMARK  status: ('A' for Active; 'I' for Inactive)
REMARK    1  A    between atoms: C_1  and  O_19
REMARK    2  A    between atoms: C_4  and  C_9
REMARK    3  A    between atoms: C_5  and  O_7
REMARK    4  A    between atoms: C_10  and  C_11
REMARK    5  A    between atoms: C_16  and  O_17
REMARK    6  A    between atoms: O_19  and  C_25
REMARK    7  A    between atoms: C_21  and  O_26
REMARK    8  A    between atoms: C_22  and  O_28
REMARK    9  A    between atoms: C_23  and  C_32
REMARK   10  A    between atoms: C_24  and  O_30
REMARK   11  A    between atoms: C_32  and  O_33
REMARK                            x       y       z     vdW  Elec       q    Type
REMARK                         _______ _______ _______ _____ _____    ______ ____
ROOT
ATOM      1  C   UNL     1     -37.075  22.513   2.886  0.00  0.00    +0.144 C 
ATOM      2  C   UNL     1     -35.871  21.840   2.699  0.00  0.00    +0.037 C 
ATOM      3  C   UNL     1     -38.234  22.071   2.257  0.00  0.00    +0.074 C 
ATOM      4  C   UNL     1     -35.826  20.715   1.876  0.00  0.00    +0.006 C 
ATOM      5  C   UNL     1     -38.190  20.946   1.433  0.00  0.00    +0.137 C 
ATOM      6  C   UNL     1     -36.985  20.268   1.242  0.00  0.00    +0.037 C 
ENDROOT
BRANCH   5   7
ATOM      7  O   UNL     1     -39.321  20.510   0.815  0.00  0.00    -0.505 OA
ATOM      8  H   UNL     1     -40.107  21.019   0.862  0.00  0.00    +0.292 HD
ENDBRANCH   5   7
BRANCH   4   9
ATOM      9  C   UNL     1     -34.570  20.009   1.676  0.00  0.00    +0.000 C 
ATOM     10  C   UNL     1     -33.627  20.337   0.761  0.00  0.00    +0.000 C 
BRANCH  10  11
ATOM     11  C   UNL     1     -32.346  19.633   0.572  0.00  0.00    +0.000 C 
ATOM     12  C   UNL     1     -32.159  18.395   1.163  0.00  0.00    +0.003 C 
ATOM     13  C   UNL     1     -31.354  20.225  -0.193  0.00  0.00    +0.003 C 
ATOM     14  C   UNL     1     -30.945  17.730   0.985  0.00  0.00    +0.037 C 
ATOM     15  C   UNL     1     -30.142  19.560  -0.372  0.00  0.00    +0.037 C 
ATOM     16  C   UNL     1     -29.937  18.311   0.216  0.00  0.00    +0.139 C 
BRANCH  16  17
ATOM     17  O   UNL     1     -28.754  17.663   0.043  0.00  0.00    -0.471 OA
ATOM     18  C   UNL     1     -28.239  16.940   1.161  0.00  0.00    +0.252 C 
ENDBRANCH  16  17
ENDBRANCH  10  11
ENDBRANCH   4   9
BRANCH   1  19
ATOM     19  O   UNL     1     -37.118  23.615   3.694  0.00  0.00    -0.450 OA
BRANCH  19  25
ATOM     20  O   UNL     1     -35.554  24.985   4.753  0.00  0.00    -0.316 OA
ATOM     21  C   UNL     1     -35.059  27.239   4.008  0.00  0.00    +0.169 C 
ATOM     22  C   UNL     1     -35.742  26.954   2.671  0.00  0.00    +0.173 C 
ATOM     23  C   UNL     1     -34.507  25.949   4.622  0.00  0.00    +0.177 C 
ATOM     24  C   UNL     1     -36.730  25.794   2.789  0.00  0.00    +0.210 C 
ATOM     25  C   UNL     1     -36.099  24.595   3.495  0.00  0.00    +0.318 C 
BRANCH  21  26
ATOM     26  O   UNL     1     -33.990  28.159   3.807  0.00  0.00    -0.379 OA
ATOM     27  H   UNL     1     -33.427  27.846   3.080  0.00  0.00    +0.211 HD
ENDBRANCH  21  26
BRANCH  22  28
ATOM     28  O   UNL     1     -36.438  28.135   2.271  0.00  0.00    -0.379 OA
ATOM     29  H   UNL     1     -37.375  27.927   2.130  0.00  0.00    +0.211 HD
ENDBRANCH  22  28
BRANCH  24  30
ATOM     30  O   UNL     1     -37.136  25.384   1.484  0.00  0.00    -0.377 OA
ATOM     31  H   UNL     1     -38.048  25.670   1.323  0.00  0.00    +0.211 HD
ENDBRANCH  24  30
BRANCH  23  32
ATOM     32  C   UNL     1     -33.925  26.187   6.011  0.00  0.00    +0.169 C 
BRANCH  32  33
ATOM     33  O   UNL     1     -32.720  26.917   5.877  0.00  0.00    -0.379 OA
ATOM     34  H   UNL     1     -32.095  26.411   5.334  0.00  0.00    +0.211 HD
ENDBRANCH  32  33
ENDBRANCH  23  32
ENDBRANCH  19  25
ENDBRANCH   1  19
TORSDOF 11
ENDMDL
MODEL 3
REMARK VINA RESULT:      -6.7      3.946      8.496
REMARK  Name = 5316606
REMARK  11 active torsions:
REMARK  status: ('A' for Active; 'I' for Inactive)
REMARK    1  A    between atoms: C_1  and  O_19
REMARK    2  A    between atoms: C_4  and  C_9
REMARK    3  A    between atoms: C_5  and  O_7
REMARK    4  A    between atoms: C_10  and  C_11
REMARK    5  A    between atoms: C_16  and  O_17
REMARK    6  A    between atoms: O_19  and  C_25
REMARK    7  A    between atoms: C_21  and  O_26
REMARK    8  A    between atoms: C_22  and  O_28
REMARK    9  A    between atoms: C_23  and  C_32
REMARK   10  A    between atoms: C_24  and  O_30
REMARK   11  A    between atoms: C_32  and  O_33
REMARK                            x       y       z     vdW  Elec       q    Type
REMARK                         _______ _______ _______ _____ _____    ______ ____
ROOT
ATOM      1  C   UNL     1     -35.434  22.633   2.845  0.00  0.00    +0.144 C 
ATOM      2  C   UNL     1     -34.774  23.858   2.871  0.00  0.00    +0.037 C 
ATOM      3  C   UNL     1     -35.851  22.031   4.028  0.00  0.00    +0.074 C 
ATOM      4  C   UNL     1     -34.528  24.487   4.092  0.00  0.00    +0.006 C 
ATOM      5  C   UNL     1     -35.605  22.660   5.249  0.00  0.00    +0.137 C 
ATOM      6  C   UNL     1     -34.944  23.888   5.281  0.00  0.00    +0.037 C 
ENDROOT
BRANCH   5   7
ATOM      7  O   UNL     1     -36.011  22.075   6.409  0.00  0.00    -0.505 OA
ATOM      8  H   UNL     1     -36.765  21.518   6.415  0.00  0.00    +0.292 HD
ENDBRANCH   5   7
BRANCH   4   9
ATOM      9  C   UNL     1     -33.838  25.767   4.125  0.00  0.00    +0.000 C 
ATOM     10  C   UNL     1     -33.492  26.438   5.249  0.00  0.00    +0.000 C 
BRANCH  10  11
ATOM     11  C   UNL     1     -32.775  27.725   5.283  0.00  0.00    +0.000 C 
ATOM     12  C   UNL     1     -32.731  28.507   4.141  0.00  0.00    +0.003 C 
ATOM     13  C   UNL     1     -32.160  28.129   6.457  0.00  0.00    +0.003 C 
ATOM     14  C   UNL     1     -32.052  29.725   4.173  0.00  0.00    +0.037 C 
ATOM     15  C   UNL     1     -31.482  29.346   6.490  0.00  0.00    +0.037 C 
ATOM     16  C   UNL     1     -31.428  30.146   5.347  0.00  0.00    +0.139 C 
BRANCH  16  17
ATOM     17  O   UNL     1     -30.765  31.333   5.378  0.00  0.00    -0.471 OA
ATOM     18  C   UNL     1     -29.377  31.312   5.048  0.00  0.00    +0.252 C 
ENDBRANCH  16  17
ENDBRANCH  10  11
ENDBRANCH   4   9
BRANCH   1  19
ATOM     19  O   UNL     1     -35.675  22.017   1.648  0.00  0.00    -0.450 OA
BRANCH  19  25
ATOM     20  O   UNL     1     -34.096  20.345   1.251  0.00  0.00    -0.316 OA
ATOM     21  C   UNL     1     -34.630  18.272   0.114  0.00  0.00    +0.169 C 
ATOM     22  C   UNL     1     -36.122  18.533   0.326  0.00  0.00    +0.173 C 
ATOM     23  C   UNL     1     -33.800  18.948   1.209  0.00  0.00    +0.177 C 
ATOM     24  C   UNL     1     -36.398  20.019   0.551  0.00  0.00    +0.210 C 
ATOM     25  C   UNL     1     -35.454  20.607   1.598  0.00  0.00    +0.318 C 
BRANCH  21  26
ATOM     26  O   UNL     1     -34.389  16.868   0.139  0.00  0.00    -0.379 OA
ATOM     27  H   UNL     1     -34.538  16.530   1.037  0.00  0.00    +0.211 HD
ENDBRANCH  21  26
BRANCH  22  28
ATOM     28  O   UNL     1     -36.817  18.091  -0.841  0.00  0.00    -0.379 OA
ATOM     29  H   UNL     1     -37.190  17.210  -0.682  0.00  0.00    +0.211 HD
ENDBRANCH  22  28
BRANCH  24  30
ATOM     30  O   UNL     1     -37.738  20.187   1.012  0.00  0.00    -0.377 OA
ATOM     31  H   UNL     1     -38.058  19.352   1.388  0.00  0.00    +0.211 HD
ENDBRANCH  24  30
BRANCH  23  32
ATOM     32  C   UNL     1     -32.303  18.802   0.955  0.00  0.00    +0.169 C 
BRANCH  32  33
ATOM     33  O   UNL     1     -31.846  17.636   1.614  0.00  0.00    -0.379 OA
ATOM     34  H   UNL     1     -32.490  17.375   2.291  0.00  0.00    +0.211 HD
ENDBRANCH  32  33
ENDBRANCH  23  32
ENDBRANCH  19  25
ENDBRANCH   1  19
TORSDOF 11
ENDMDL
MODEL 4
REMARK VINA RESULT:      -6.7      4.054      8.238
REMARK  Name = 5316606
REMARK  11 active torsions:
REMARK  status: ('A' for Active; 'I' for Inactive)
REMARK    1  A    between atoms: C_1  and  O_19
REMARK    2  A    between atoms: C_4  and  C_9
REMARK    3  A    between atoms: C_5  and  O_7
REMARK    4  A    between atoms: C_10  and  C_11
REMARK    5  A    between atoms: C_16  and  O_17
REMARK    6  A    between atoms: O_19  and  C_25
REMARK    7  A    between atoms: C_21  and  O_26
REMARK    8  A    between atoms: C_22  and  O_28
REMARK    9  A    between atoms: C_23  and  C_32
REMARK   10  A    between atoms: C_24  and  O_30
REMARK   11  A    between atoms: C_32  and  O_33
REMARK                            x       y       z     vdW  Elec       q    Type
REMARK                         _______ _______ _______ _____ _____    ______ ____
ROOT
ATOM      1  C   UNL     1     -35.423  22.788   3.145  0.00  0.00    +0.144 C 
ATOM      2  C   UNL     1     -34.785  24.024   3.112  0.00  0.00    +0.037 C 
ATOM      3  C   UNL     1     -35.654  22.146   4.358  0.00  0.00    +0.074 C 
ATOM      4  C   UNL     1     -34.374  24.624   4.303  0.00  0.00    +0.006 C 
ATOM      5  C   UNL     1     -35.244  22.746   5.549  0.00  0.00    +0.137 C 
ATOM      6  C   UNL     1     -34.603  23.985   5.521  0.00  0.00    +0.037 C 
ENDROOT
BRANCH   5   7
ATOM      7  O   UNL     1     -35.468  22.122   6.737  0.00  0.00    -0.505 OA
ATOM      8  H   UNL     1     -34.984  21.351   6.960  0.00  0.00    +0.292 HD
ENDBRANCH   5   7
BRANCH   4   9
ATOM      9  C   UNL     1     -33.705  25.916   4.273  0.00  0.00    +0.000 C 
ATOM     10  C   UNL     1     -33.297  26.609   5.363  0.00  0.00    +0.000 C 
BRANCH  10  11
ATOM     11  C   UNL     1     -32.603  27.908   5.332  0.00  0.00    +0.000 C 
ATOM     12  C   UNL     1     -32.019  28.392   6.491  0.00  0.00    +0.003 C 
ATOM     13  C   UNL     1     -32.547  28.619   4.144  0.00  0.00    +0.003 C 
ATOM     14  C   UNL     1     -31.362  29.623   6.461  0.00  0.00    +0.037 C 
ATOM     15  C   UNL     1     -31.889  29.848   4.114  0.00  0.00    +0.037 C 
ATOM     16  C   UNL     1     -31.296  30.351   5.273  0.00  0.00    +0.139 C 
BRANCH  16  17
ATOM     17  O   UNL     1     -30.656  31.550   5.244  0.00  0.00    -0.471 OA
ATOM     18  C   UNL     1     -29.283  31.545   4.857  0.00  0.00    +0.252 C 
ENDBRANCH  16  17
ENDBRANCH  10  11
ENDBRANCH   4   9
BRANCH   1  19
ATOM     19  O   UNL     1     -35.826  22.200   1.978  0.00  0.00    -0.450 OA
BRANCH  19  25
ATOM     20  O   UNL     1     -37.502  23.822   2.049  0.00  0.00    -0.316 OA
ATOM     21  C   UNL     1     -39.864  23.279   2.014  0.00  0.00    +0.169 C 
ATOM     22  C   UNL     1     -39.538  21.864   1.535  0.00  0.00    +0.173 C 
ATOM     23  C   UNL     1     -38.776  24.264   1.578  0.00  0.00    +0.177 C 
ATOM     24  C   UNL     1     -38.103  21.476   1.890  0.00  0.00    +0.210 C 
ATOM     25  C   UNL     1     -37.115  22.570   1.488  0.00  0.00    +0.318 C 
BRANCH  21  26
ATOM     26  O   UNL     1     -41.115  23.686   1.468  0.00  0.00    -0.379 OA
ATOM     27  H   UNL     1     -41.089  24.636   1.274  0.00  0.00    +0.211 HD
ENDBRANCH  21  26
BRANCH  22  28
ATOM     28  O   UNL     1     -40.446  20.964   2.170  0.00  0.00    -0.379 OA
ATOM     29  H   UNL     1     -40.000  20.120   2.341  0.00  0.00    +0.211 HD
ENDBRANCH  22  28
BRANCH  24  30
ATOM     30  O   UNL     1     -37.752  20.278   1.197  0.00  0.00    -0.377 OA
ATOM     31  H   UNL     1     -38.162  20.281   0.318  0.00  0.00    +0.211 HD
ENDBRANCH  24  30
BRANCH  23  32
ATOM     32  C   UNL     1     -39.017  25.660   2.143  0.00  0.00    +0.169 C 
BRANCH  32  33
ATOM     33  O   UNL     1     -39.664  25.534   3.396  0.00  0.00    -0.379 OA
ATOM     34  H   UNL     1     -39.009  25.622   4.107  0.00  0.00    +0.211 HD
ENDBRANCH  32  33
ENDBRANCH  23  32
ENDBRANCH  19  25
ENDBRANCH   1  19
TORSDOF 11
ENDMDL
MODEL 5
REMARK VINA RESULT:      -6.5      3.488      5.765
REMARK  Name = 5316606
REMARK  11 active torsions:
REMARK  status: ('A' for Active; 'I' for Inactive)
REMARK    1  A    between atoms: C_1  and  O_19
REMARK    2  A    between atoms: C_4  and  C_9
REMARK    3  A    between atoms: C_5  and  O_7
REMARK    4  A    between atoms: C_10  and  C_11
REMARK    5  A    between atoms: C_16  and  O_17
REMARK    6  A    between atoms: O_19  and  C_25
REMARK    7  A    between atoms: C_21  and  O_26
REMARK    8  A    between atoms: C_22  and  O_28
REMARK    9  A    between atoms: C_23  and  C_32
REMARK   10  A    between atoms: C_24  and  O_30
REMARK   11  A    between atoms: C_32  and  O_33
REMARK                            x       y       z     vdW  Elec       q    Type
REMARK                         _______ _______ _______ _____ _____    ______ ____
ROOT
ATOM      1  C   UNL     1     -34.670  25.000   5.139  0.00  0.00    +0.144 C 
ATOM      2  C   UNL     1     -34.501  23.754   4.542  0.00  0.00    +0.037 C 
ATOM      3  C   UNL     1     -35.870  25.691   5.002  0.00  0.00    +0.074 C 
ATOM      4  C   UNL     1     -35.543  23.194   3.801  0.00  0.00    +0.006 C 
ATOM      5  C   UNL     1     -36.911  25.131   4.262  0.00  0.00    +0.137 C 
ATOM      6  C   UNL     1     -36.747  23.883   3.661  0.00  0.00    +0.037 C 
ENDROOT
BRANCH   5   7
ATOM      7  O   UNL     1     -38.087  25.803   4.125  0.00  0.00    -0.505 OA
ATOM      8  H   UNL     1     -38.584  25.723   3.335  0.00  0.00    +0.292 HD
ENDBRANCH   5   7
BRANCH   4   9
ATOM      9  C   UNL     1     -35.371  21.893   3.174  0.00  0.00    +0.000 C 
ATOM     10  C   UNL     1     -35.175  21.684   1.851  0.00  0.00    +0.000 C 
BRANCH  10  11
ATOM     11  C   UNL     1     -34.982  20.367   1.218  0.00  0.00    +0.000 C 
ATOM     12  C   UNL     1     -33.837  19.641   1.500  0.00  0.00    +0.003 C 
ATOM     13  C   UNL     1     -35.950  19.880   0.355  0.00  0.00    +0.003 C 
ATOM     14  C   UNL     1     -33.654  18.394   0.900  0.00  0.00    +0.037 C 
ATOM     15  C   UNL     1     -35.768  18.635  -0.243  0.00  0.00    +0.037 C 
ATOM     16  C   UNL     1     -34.620  17.890   0.029  0.00  0.00    +0.139 C 
BRANCH  16  17
ATOM     17  O   UNL     1     -34.441  16.676  -0.555  0.00  0.00    -0.471 OA
ATOM     18  C   UNL     1     -35.461  15.699  -0.350  0.00  0.00    +0.252 C 
ENDBRANCH  16  17
ENDBRANCH  10  11
ENDBRANCH   4   9
BRANCH   1  19
ATOM     19  O   UNL     1     -33.650  25.548   5.865  0.00  0.00    -0.450 OA
BRANCH  19  25
ATOM     20  O   UNL     1     -32.792  27.024   4.274  0.00  0.00    -0.316 OA
ATOM     21  C   UNL     1     -31.377  28.906   4.850  0.00  0.00    +0.169 C 
ATOM     22  C   UNL     1     -31.796  28.781   6.315  0.00  0.00    +0.173 C 
ATOM     23  C   UNL     1     -32.473  28.372   3.924  0.00  0.00    +0.177 C 
ATOM     24  C   UNL     1     -32.307  27.375   6.627  0.00  0.00    +0.210 C 
ATOM     25  C   UNL     1     -33.329  26.912   5.590  0.00  0.00    +0.318 C 
BRANCH  21  26
ATOM     26  O   UNL     1     -31.129  30.275   4.544  0.00  0.00    -0.379 OA
ATOM     27  H   UNL     1     -31.609  30.838   5.171  0.00  0.00    +0.211 HD
ENDBRANCH  21  26
BRANCH  22  28
ATOM     28  O   UNL     1     -30.655  29.064   7.125  0.00  0.00    -0.379 OA
ATOM     29  H   UNL     1     -29.846  28.916   6.610  0.00  0.00    +0.211 HD
ENDBRANCH  22  28
BRANCH  24  30
ATOM     30  O   UNL     1     -32.937  27.375   7.908  0.00  0.00    -0.377 OA
ATOM     31  H   UNL     1     -32.484  28.002   8.491  0.00  0.00    +0.211 HD
ENDBRANCH  24  30
BRANCH  23  32
ATOM     32  C   UNL     1     -32.032  28.376   2.464  0.00  0.00    +0.169 C 
BRANCH  32  33
ATOM     33  O   UNL     1     -30.619  28.321   2.419  0.00  0.00    -0.379 OA
ATOM     34  H   UNL     1     -30.261  29.223   2.417  0.00  0.00    +0.211 HD
ENDBRANCH  32  33
ENDBRANCH  23  32
ENDBRANCH  19  25
ENDBRANCH   1  19
TORSDOF 11
ENDMDL
MODEL 6
REMARK VINA RESULT:      -6.4      1.930      2.932
REMARK  Name = 5316606
REMARK  11 active torsions:
REMARK  status: ('A' for Active; 'I' for Inactive)
REMARK    1  A    between atoms: C_1  and  O_19
REMARK    2  A    between atoms: C_4  and  C_9
REMARK    3  A    between atoms: C_5  and  O_7
REMARK    4  A    between atoms: C_10  and  C_11
REMARK    5  A    between atoms: C_16  and  O_17
REMARK    6  A    between atoms: O_19  and  C_25
REMARK    7  A    between atoms: C_21  and  O_26
REMARK    8  A    between atoms: C_22  and  O_28
REMARK    9  A    between atoms: C_23  and  C_32
REMARK   10  A    between atoms: C_24  and  O_30
REMARK   11  A    between atoms: C_32  and  O_33
REMARK                            x       y       z     vdW  Elec       q    Type
REMARK                         _______ _______ _______ _____ _____    ______ ____
ROOT
ATOM      1  C   UNL     1     -37.412  23.007   3.111  0.00  0.00    +0.144 C 
ATOM      2  C   UNL     1     -36.180  22.376   2.970  0.00  0.00    +0.037 C 
ATOM      3  C   UNL     1     -38.546  22.485   2.496  0.00  0.00    +0.074 C 
ATOM      4  C   UNL     1     -36.080  21.212   2.206  0.00  0.00    +0.006 C 
ATOM      5  C   UNL     1     -38.447  21.322   1.732  0.00  0.00    +0.137 C 
ATOM      6  C   UNL     1     -37.214  20.685   1.587  0.00  0.00    +0.037 C 
ENDROOT
BRANCH   5   7
ATOM      7  O   UNL     1     -39.553  20.809   1.128  0.00  0.00    -0.505 OA
ATOM      8  H   UNL     1     -39.830  19.935   1.322  0.00  0.00    +0.292 HD
ENDBRANCH   5   7
BRANCH   4   9
ATOM      9  C   UNL     1     -34.794  20.549   2.055  0.00  0.00    +0.000 C 
ATOM     10  C   UNL     1     -34.184  20.290   0.874  0.00  0.00    +0.000 C 
BRANCH  10  11
ATOM     11  C   UNL     1     -32.873  19.636   0.722  0.00  0.00    +0.000 C 
ATOM     12  C   UNL     1     -31.879  20.269  -0.007  0.00  0.00    +0.003 C 
ATOM     13  C   UNL     1     -32.658  18.400   1.311  0.00  0.00    +0.003 C 
ATOM     14  C   UNL     1     -30.638  19.649  -0.151  0.00  0.00    +0.037 C 
ATOM     15  C   UNL     1     -31.418  17.781   1.167  0.00  0.00    +0.037 C 
ATOM     16  C   UNL     1     -30.406  18.405   0.436  0.00  0.00    +0.139 C 
BRANCH  16  17
ATOM     17  O   UNL     1     -29.196  17.801   0.295  0.00  0.00    -0.471 OA
ATOM     18  C   UNL     1     -28.504  17.444   1.490  0.00  0.00    +0.252 C 
ENDBRANCH  16  17
ENDBRANCH  10  11
ENDBRANCH   4   9
BRANCH   1  19
ATOM     19  O   UNL     1     -37.509  24.147   3.860  0.00  0.00    -0.450 OA
BRANCH  19  25
ATOM     20  O   UNL     1     -36.406  25.044   2.009  0.00  0.00    -0.316 OA
ATOM     21  C   UNL     1     -34.748  26.804   2.189  0.00  0.00    +0.169 C 
ATOM     22  C   UNL     1     -35.218  27.110   3.611  0.00  0.00    +0.173 C 
ATOM     23  C   UNL     1     -35.886  26.204   1.358  0.00  0.00    +0.177 C 
ATOM     24  C   UNL     1     -35.936  25.910   4.228  0.00  0.00    +0.210 C 
ATOM     25  C   UNL     1     -36.988  25.341   3.277  0.00  0.00    +0.318 C 
BRANCH  21  26
ATOM     26  O   UNL     1     -34.297  28.005   1.572  0.00  0.00    -0.379 OA
ATOM     27  H   UNL     1     -34.146  28.681   2.251  0.00  0.00    +0.211 HD
ENDBRANCH  21  26
BRANCH  22  28
ATOM     28  O   UNL     1     -34.069  27.433   4.395  0.00  0.00    -0.379 OA
ATOM     29  H   UNL     1     -34.285  28.158   5.002  0.00  0.00    +0.211 HD
ENDBRANCH  22  28
BRANCH  24  30
ATOM     30  O   UNL     1     -36.592  26.318   5.429  0.00  0.00    -0.377 OA
ATOM     31  H   UNL     1     -37.456  26.701   5.211  0.00  0.00    +0.211 HD
ENDBRANCH  24  30
BRANCH  23  32
ATOM     32  C   UNL     1     -35.412  25.781  -0.028  0.00  0.00    +0.169 C 
BRANCH  32  33
ATOM     33  O   UNL     1     -34.020  25.533   0.027  0.00  0.00    -0.379 OA
ATOM     34  H   UNL     1     -33.698  25.704   0.926  0.00  0.00    +0.211 HD
ENDBRANCH  32  33
ENDBRANCH  23  32
ENDBRANCH  19  25
ENDBRANCH   1  19
TORSDOF 11
ENDMDL
MODEL 7
REMARK VINA RESULT:      -6.2      5.305     10.643
REMARK  Name = 5316606
REMARK  11 active torsions:
REMARK  status: ('A' for Active; 'I' for Inactive)
REMARK    1  A    between atoms: C_1  and  O_19
REMARK    2  A    between atoms: C_4  and  C_9
REMARK    3  A    between atoms: C_5  and  O_7
REMARK    4  A    between atoms: C_10  and  C_11
REMARK    5  A    between atoms: C_16  and  O_17
REMARK    6  A    between atoms: O_19  and  C_25
REMARK    7  A    between atoms: C_21  and  O_26
REMARK    8  A    between atoms: C_22  and  O_28
REMARK    9  A    between atoms: C_23  and  C_32
REMARK   10  A    between atoms: C_24  and  O_30
REMARK   11  A    between atoms: C_32  and  O_33
REMARK                            x       y       z     vdW  Elec       q    Type
REMARK                         _______ _______ _______ _____ _____    ______ ____
ROOT
ATOM      1  C   UNL     1     -39.233  24.750   1.862  0.00  0.00    +0.144 C 
ATOM      2  C   UNL     1     -39.833  25.670   2.717  0.00  0.00    +0.037 C 
ATOM      3  C   UNL     1     -39.992  24.063   0.920  0.00  0.00    +0.074 C 
ATOM      4  C   UNL     1     -41.206  25.905   2.629  0.00  0.00    +0.006 C 
ATOM      5  C   UNL     1     -41.365  24.298   0.832  0.00  0.00    +0.137 C 
ATOM      6  C   UNL     1     -41.971  25.218   1.687  0.00  0.00    +0.037 C 
ENDROOT
BRANCH   5   7
ATOM      7  O   UNL     1     -42.112  23.627  -0.087  0.00  0.00    -0.505 OA
ATOM      8  H   UNL     1     -41.927  22.728  -0.275  0.00  0.00    +0.292 HD
ENDBRANCH   5   7
BRANCH   4   9
ATOM      9  C   UNL     1     -41.838  26.865   3.521  0.00  0.00    +0.000 C 
ATOM     10  C   UNL     1     -43.173  26.999   3.702  0.00  0.00    +0.000 C 
BRANCH  10  11
ATOM     11  C   UNL     1     -43.813  27.958   4.620  0.00  0.00    +0.000 C 
ATOM     12  C   UNL     1     -45.049  27.654   5.166  0.00  0.00    +0.003 C 
ATOM     13  C   UNL     1     -43.165  29.146   4.920  0.00  0.00    +0.003 C 
ATOM     14  C   UNL     1     -45.654  28.562   6.034  0.00  0.00    +0.037 C 
ATOM     15  C   UNL     1     -43.770  30.053   5.788  0.00  0.00    +0.037 C 
ATOM     16  C   UNL     1     -45.015  29.762   6.346  0.00  0.00    +0.139 C 
BRANCH  16  17
ATOM     17  O   UNL     1     -45.606  30.647   7.193  0.00  0.00    -0.471 OA
ATOM     18  C   UNL     1     -45.116  30.693   8.532  0.00  0.00    +0.252 C 
ENDBRANCH  16  17
ENDBRANCH  10  11
ENDBRANCH   4   9
BRANCH   1  19
ATOM     19  O   UNL     1     -37.887  24.521   1.948  0.00  0.00    -0.450 OA
BRANCH  19  25
ATOM     20  O   UNL     1     -36.377  24.909   3.683  0.00  0.00    -0.316 OA
ATOM     21  C   UNL     1     -35.193  23.126   4.823  0.00  0.00    +0.169 C 
ATOM     22  C   UNL     1     -36.168  22.100   4.244  0.00  0.00    +0.173 C 
ATOM     23  C   UNL     1     -35.861  24.498   4.951  0.00  0.00    +0.177 C 
ATOM     24  C   UNL     1     -36.848  22.633   2.983  0.00  0.00    +0.210 C 
ATOM     25  C   UNL     1     -37.399  24.041   3.201  0.00  0.00    +0.318 C 
BRANCH  21  26
ATOM     26  O   UNL     1     -34.759  22.691   6.108  0.00  0.00    -0.379 OA
ATOM     27  H   UNL     1     -35.520  22.363   6.612  0.00  0.00    +0.211 HD
ENDBRANCH  21  26
BRANCH  22  28
ATOM     28  O   UNL     1     -35.429  20.921   3.924  0.00  0.00    -0.379 OA
ATOM     29  H   UNL     1     -35.497  20.743   2.973  0.00  0.00    +0.211 HD
ENDBRANCH  22  28
BRANCH  24  30
ATOM     30  O   UNL     1     -37.935  21.775   2.634  0.00  0.00    -0.377 OA
ATOM     31  H   UNL     1     -38.736  22.306   2.501  0.00  0.00    +0.211 HD
ENDBRANCH  24  30
BRANCH  23  32
ATOM     32  C   UNL     1     -34.876  25.565   5.415  0.00  0.00    +0.169 C 
BRANCH  32  33
ATOM     33  O   UNL     1     -33.588  25.231   4.933  0.00  0.00    -0.379 OA
ATOM     34  H   UNL     1     -33.053  26.037   4.856  0.00  0.00    +0.211 HD
ENDBRANCH  32  33
ENDBRANCH  23  32
ENDBRANCH  19  25
ENDBRANCH   1  19
TORSDOF 11
ENDMDL
MODEL 8
REMARK VINA RESULT:      -6.1      1.489      2.115
REMARK  Name = 5316606
REMARK  11 active torsions:
REMARK  status: ('A' for Active; 'I' for Inactive)
REMARK    1  A    between atoms: C_1  and  O_19
REMARK    2  A    between atoms: C_4  and  C_9
REMARK    3  A    between atoms: C_5  and  O_7
REMARK    4  A    between atoms: C_10  and  C_11
REMARK    5  A    between atoms: C_16  and  O_17
REMARK    6  A    between atoms: O_19  and  C_25
REMARK    7  A    between atoms: C_21  and  O_26
REMARK    8  A    between atoms: C_22  and  O_28
REMARK    9  A    between atoms: C_23  and  C_32
REMARK   10  A    between atoms: C_24  and  O_30
REMARK   11  A    between atoms: C_32  and  O_33
REMARK                            x       y       z     vdW  Elec       q    Type
REMARK                         _______ _______ _______ _____ _____    ______ ____
ROOT
ATOM      1  C   UNL     1     -39.029  21.215   1.083  0.00  0.00    +0.144 C 
ATOM      2  C   UNL     1     -37.854  20.471   1.046  0.00  0.00    +0.037 C 
ATOM      3  C   UNL     1     -39.940  21.148   0.034  0.00  0.00    +0.074 C 
ATOM      4  C   UNL     1     -37.587  19.652  -0.052  0.00  0.00    +0.006 C 
ATOM      5  C   UNL     1     -39.673  20.330  -1.064  0.00  0.00    +0.137 C 
ATOM      6  C   UNL     1     -38.497  19.582  -1.107  0.00  0.00    +0.037 C 
ENDROOT
BRANCH   5   7
ATOM      7  O   UNL     1     -40.561  20.263  -2.093  0.00  0.00    -0.505 OA
ATOM      8  H   UNL     1     -41.395  19.855  -1.967  0.00  0.00    +0.292 HD
ENDBRANCH   5   7
BRANCH   4   9
ATOM      9  C   UNL     1     -36.359  18.873  -0.097  0.00  0.00    +0.000 C 
ATOM     10  C   UNL     1     -35.212  19.185   0.551  0.00  0.00    +0.000 C 
BRANCH  10  11
ATOM     11  C   UNL     1     -33.975  18.386   0.521  0.00  0.00    +0.000 C 
ATOM     12  C   UNL     1     -33.986  17.141  -0.088  0.00  0.00    +0.003 C 
ATOM     13  C   UNL     1     -32.824  18.894   1.101  0.00  0.00    +0.003 C 
ATOM     14  C   UNL     1     -32.814  16.384  -0.115  0.00  0.00    +0.037 C 
ATOM     15  C   UNL     1     -31.653  18.138   1.073  0.00  0.00    +0.037 C 
ATOM     16  C   UNL     1     -31.648  16.883   0.465  0.00  0.00    +0.139 C 
BRANCH  16  17
ATOM     17  O   UNL     1     -30.506  16.144   0.438  0.00  0.00    -0.471 OA
ATOM     18  C   UNL     1     -29.429  16.640  -0.357  0.00  0.00    +0.252 C 
ENDBRANCH  16  17
ENDBRANCH  10  11
ENDBRANCH   4   9
BRANCH   1  19
ATOM     19  O   UNL     1     -39.290  22.016   2.160  0.00  0.00    -0.450 OA
BRANCH  19  25
ATOM     20  O   UNL     1     -37.547  22.899   3.435  0.00  0.00    -0.316 OA
ATOM     21  C   UNL     1     -37.414  25.241   4.044  0.00  0.00    +0.169 C 
ATOM     22  C   UNL     1     -38.459  25.583   2.982  0.00  0.00    +0.173 C 
ATOM     23  C   UNL     1     -36.639  23.979   3.657  0.00  0.00    +0.177 C 
ATOM     24  C   UNL     1     -39.305  24.362   2.624  0.00  0.00    +0.210 C 
ATOM     25  C   UNL     1     -38.431  23.142   2.344  0.00  0.00    +0.318 C 
BRANCH  21  26
ATOM     26  O   UNL     1     -36.505  26.329   4.180  0.00  0.00    -0.379 OA
ATOM     27  H   UNL     1     -36.546  26.886   3.386  0.00  0.00    +0.211 HD
ENDBRANCH  21  26
BRANCH  22  28
ATOM     28  O   UNL     1     -39.301  26.610   3.506  0.00  0.00    -0.379 OA
ATOM     29  H   UNL     1     -39.754  27.062   2.777  0.00  0.00    +0.211 HD
ENDBRANCH  22  28
BRANCH  24  30
ATOM     30  O   UNL     1     -40.070  24.644   1.452  0.00  0.00    -0.377 OA
ATOM     31  H   UNL     1     -39.815  24.032   0.745  0.00  0.00    +0.211 HD
ENDBRANCH  24  30
BRANCH  23  32
ATOM     32  C   UNL     1     -35.672  23.550   4.756  0.00  0.00    +0.169 C 
BRANCH  32  33
ATOM     33  O   UNL     1     -36.262  22.492   5.488  0.00  0.00    -0.379 OA
ATOM     34  H   UNL     1     -37.196  22.409   5.238  0.00  0.00    +0.211 HD
ENDBRANCH  32  33
ENDBRANCH  23  32
ENDBRANCH  19  25
ENDBRANCH   1  19
TORSDOF 11
ENDMDL
MODEL 9
REMARK VINA RESULT:      -6.1      3.586      8.325
REMARK  Name = 5316606
REMARK  11 active torsions:
REMARK  status: ('A' for Active; 'I' for Inactive)
REMARK    1  A    between atoms: C_1  and  O_19
REMARK    2  A    between atoms: C_4  and  C_9
REMARK    3  A    between atoms: C_5  and  O_7
REMARK    4  A    between atoms: C_10  and  C_11
REMARK    5  A    between atoms: C_16  and  O_17
REMARK    6  A    between atoms: O_19  and  C_25
REMARK    7  A    between atoms: C_21  and  O_26
REMARK    8  A    between atoms: C_22  and  O_28
REMARK    9  A    between atoms: C_23  and  C_32
REMARK   10  A    between atoms: C_24  and  O_30
REMARK   11  A    between atoms: C_32  and  O_33
REMARK                            x       y       z     vdW  Elec       q    Type
REMARK                         _______ _______ _______ _____ _____    ______ ____
ROOT
ATOM      1  C   UNL     1     -35.487  22.548   2.811  0.00  0.00    +0.144 C 
ATOM      2  C   UNL     1     -34.968  23.797   3.138  0.00  0.00    +0.037 C 
ATOM      3  C   UNL     1     -35.650  21.574   3.791  0.00  0.00    +0.074 C 
ATOM      4  C   UNL     1     -34.608  24.074   4.457  0.00  0.00    +0.006 C 
ATOM      5  C   UNL     1     -35.290  21.851   5.110  0.00  0.00    +0.137 C 
ATOM      6  C   UNL     1     -34.769  23.101   5.443  0.00  0.00    +0.037 C 
ENDROOT
BRANCH   5   7
ATOM      7  O   UNL     1     -35.447  20.900   6.072  0.00  0.00    -0.505 OA
ATOM      8  H   UNL     1     -35.021  20.997   6.900  0.00  0.00    +0.292 HD
ENDBRANCH   5   7
BRANCH   4   9
ATOM      9  C   UNL     1     -34.064  25.378   4.804  0.00  0.00    +0.000 C 
ATOM     10  C   UNL     1     -33.577  26.281   3.919  0.00  0.00    +0.000 C 
BRANCH  10  11
ATOM     11  C   UNL     1     -33.044  27.609   4.268  0.00  0.00    +0.000 C 
ATOM     12  C   UNL     1     -32.366  27.775   5.465  0.00  0.00    +0.003 C 
ATOM     13  C   UNL     1     -33.231  28.667   3.393  0.00  0.00    +0.003 C 
ATOM     14  C   UNL     1     -31.862  29.033   5.795  0.00  0.00    +0.037 C 
ATOM     15  C   UNL     1     -32.726  29.924   3.723  0.00  0.00    +0.037 C 
ATOM     16  C   UNL     1     -32.041  30.108   4.924  0.00  0.00    +0.139 C 
BRANCH  16  17
ATOM     17  O   UNL     1     -31.550  31.334   5.247  0.00  0.00    -0.471 OA
ATOM     18  C   UNL     1     -30.204  31.617   4.865  0.00  0.00    +0.252 C 
ENDBRANCH  16  17
ENDBRANCH  10  11
ENDBRANCH   4   9
BRANCH   1  19
ATOM     19  O   UNL     1     -35.841  22.276   1.518  0.00  0.00    -0.450 OA
BRANCH  19  25
ATOM     20  O   UNL     1     -36.111  20.164   0.565  0.00  0.00    -0.316 OA
ATOM     21  C   UNL     1     -38.174  19.447  -0.486  0.00  0.00    +0.169 C 
ATOM     22  C   UNL     1     -38.921  20.604   0.176  0.00  0.00    +0.173 C 
ATOM     23  C   UNL     1     -36.959  19.035   0.350  0.00  0.00    +0.177 C 
ATOM     24  C   UNL     1     -37.965  21.731   0.566  0.00  0.00    +0.210 C 
ATOM     25  C   UNL     1     -36.748  21.193   1.318  0.00  0.00    +0.318 C 
BRANCH  21  26
ATOM     26  O   UNL     1     -39.052  18.333  -0.622  0.00  0.00    -0.379 OA
ATOM     27  H   UNL     1     -39.963  18.650  -0.722  0.00  0.00    +0.211 HD
ENDBRANCH  21  26
BRANCH  22  28
ATOM     28  O   UNL     1     -39.885  21.097  -0.755  0.00  0.00    -0.379 OA
ATOM     29  H   UNL     1     -40.766  21.082  -0.348  0.00  0.00    +0.211 HD
ENDBRANCH  22  28
BRANCH  24  30
ATOM     30  O   UNL     1     -38.644  22.655   1.416  0.00  0.00    -0.377 OA
ATOM     31  H   UNL     1     -39.527  22.835   1.058  0.00  0.00    +0.211 HD
ENDBRANCH  24  30
BRANCH  23  32
ATOM     32  C   UNL     1     -36.130  17.962  -0.348  0.00  0.00    +0.169 C 
BRANCH  32  33
ATOM     33  O   UNL     1     -36.588  16.691   0.075  0.00  0.00    -0.379 OA
ATOM     34  H   UNL     1     -37.553  16.713   0.173  0.00  0.00    +0.211 HD
ENDBRANCH  32  33
ENDBRANCH  23  32
ENDBRANCH  19  25
ENDBRANCH   1  19
TORSDOF 11
ENDMDL
