MODEL 1
REMARK VINA RESULT:      -5.9      0.000      0.000
REMARK  Name = 5344
REMARK  4 active torsions:
REMARK  status: ('A' for Active; 'I' for Inactive)
REMARK    1  A    between atoms: S_1  and  C_4
REMARK    2  A    between atoms: S_1  and  N_13
REMARK    3  A    between atoms: C_9  and  N_10
REMARK    4  A    between atoms: N_13  and  C_17
REMARK                            x       y       z     vdW  Elec       q    Type
REMARK                         _______ _______ _______ _____ _____    ______ ____
ROOT
ATOM      1  S   UNL     1     -33.071  27.485   4.192  0.00  0.00    +0.076 S 
ATOM      2  O   UNL     1     -33.959  28.541   3.719  0.00  0.00    -0.150 OA
ATOM      3  O   UNL     1     -31.883  27.165   3.411  0.00  0.00    -0.150 OA
ENDROOT
BRANCH   1   4
ATOM      4  C   UNL     1     -34.022  26.034   4.382  0.00  0.00    +0.125 C 
ATOM      5  C   UNL     1     -34.732  25.814   5.563  0.00  0.00    +0.021 C 
ATOM      6  C   UNL     1     -34.073  25.093   3.354  0.00  0.00    +0.021 C 
ATOM      7  C   UNL     1     -35.491  24.655   5.715  0.00  0.00    +0.015 C 
ATOM      8  C   UNL     1     -34.834  23.934   3.506  0.00  0.00    +0.015 C 
ATOM      9  C   UNL     1     -35.543  23.715   4.687  0.00  0.00    +0.042 C 
BRANCH   9  10
ATOM     10  N   UNL     1     -36.312  22.542   4.839  0.00  0.00    -0.357 N 
ATOM     11  H   UNL     1     -36.687  22.093   4.047  0.00  0.00    +0.142 HD
ATOM     12  H   UNL     1     -36.474  22.173   5.737  0.00  0.00    +0.142 HD
ENDBRANCH   9  10
ENDBRANCH   1   4
BRANCH   1  13
ATOM     13  N   UNL     1     -32.614  27.856   5.811  0.00  0.00    -0.183 N 
ATOM     14  H   UNL     1     -33.257  27.772   6.552  0.00  0.00    +0.177 HD
BRANCH  13  17
ATOM     15  O   UNL     1     -30.234  27.480   6.422  0.00  0.00    -0.338 OA
ATOM     16  N   UNL     1     -29.073  28.229   6.569  0.00  0.00    -0.080 NA
ATOM     17  C   UNL     1     -31.265  28.295   6.050  0.00  0.00    +0.241 A 
ATOM     18  C   UNL     1     -30.792  29.586   5.947  0.00  0.00    +0.048 A 
ATOM     19  C   UNL     1     -29.431  29.483   6.279  0.00  0.00    +0.098 A 
ATOM     20  C   UNL     1     -31.547  30.794   5.575  0.00  0.00    +0.037 C 
ATOM     21  C   UNL     1     -28.426  30.558   6.337  0.00  0.00    +0.055 C 
ENDBRANCH  13  17
ENDBRANCH   1  13
TORSDOF 4
ENDMDL
MODEL 2
REMARK VINA RESULT:      -5.7      5.691      7.787
REMARK  Name = 5344
REMARK  4 active torsions:
REMARK  status: ('A' for Active; 'I' for Inactive)
REMARK    1  A    between atoms: S_1  and  C_4
REMARK    2  A    between atoms: S_1  and  N_13
REMARK    3  A    between atoms: C_9  and  N_10
REMARK    4  A    between atoms: N_13  and  C_17
REMARK                            x       y       z     vdW  Elec       q    Type
REMARK                         _______ _______ _______ _____ _____    ______ ____
ROOT
ATOM      1  S   UNL     1     -35.646  20.649   2.179  0.00  0.00    +0.076 S 
ATOM      2  O   UNL     1     -35.371  20.632   3.611  0.00  0.00    -0.150 OA
ATOM      3  O   UNL     1     -36.685  19.774   1.652  0.00  0.00    -0.150 OA
ENDROOT
BRANCH   1   4
ATOM      4  C   UNL     1     -34.151  20.305   1.346  0.00  0.00    +0.125 C 
ATOM      5  C   UNL     1     -33.595  21.256   0.489  0.00  0.00    +0.021 C 
ATOM      6  C   UNL     1     -33.512  19.081   1.536  0.00  0.00    +0.021 C 
ATOM      7  C   UNL     1     -32.401  20.981  -0.177  0.00  0.00    +0.015 C 
ATOM      8  C   UNL     1     -32.316  18.806   0.870  0.00  0.00    +0.015 C 
ATOM      9  C   UNL     1     -31.762  19.757   0.014  0.00  0.00    +0.042 C 
BRANCH   9  10
ATOM     10  N   UNL     1     -30.553  19.479  -0.659  0.00  0.00    -0.357 N 
ATOM     11  H   UNL     1     -29.803  20.115  -0.606  0.00  0.00    +0.142 HD
ATOM     12  H   UNL     1     -30.459  18.650  -1.180  0.00  0.00    +0.142 HD
ENDBRANCH   9  10
ENDBRANCH   1   4
BRANCH   1  13
ATOM     13  N   UNL     1     -35.974  22.276   1.717  0.00  0.00    -0.183 N 
ATOM     14  H   UNL     1     -35.994  22.540   0.768  0.00  0.00    +0.177 HD
BRANCH  13  17
ATOM     15  O   UNL     1     -37.308  23.240   3.579  0.00  0.00    -0.338 OA
ATOM     16  N   UNL     1     -37.228  24.307   4.466  0.00  0.00    -0.080 NA
ATOM     17  C   UNL     1     -36.218  23.239   2.758  0.00  0.00    +0.241 A 
ATOM     18  C   UNL     1     -35.410  24.304   3.094  0.00  0.00    +0.048 A 
ATOM     19  C   UNL     1     -36.085  24.928   4.157  0.00  0.00    +0.098 A 
ATOM     20  C   UNL     1     -34.131  24.695   2.477  0.00  0.00    +0.037 C 
ATOM     21  C   UNL     1     -35.681  26.125   4.912  0.00  0.00    +0.055 C 
ENDBRANCH  13  17
ENDBRANCH   1  13
TORSDOF 4
ENDMDL
MODEL 3
REMARK VINA RESULT:      -5.6      1.954      2.663
REMARK  Name = 5344
REMARK  4 active torsions:
REMARK  status: ('A' for Active; 'I' for Inactive)
REMARK    1  A    between atoms: S_1  and  C_4
REMARK    2  A    between atoms: S_1  and  N_13
REMARK    3  A    between atoms: C_9  and  N_10
REMARK    4  A    between atoms: N_13  and  C_17
REMARK                            x       y       z     vdW  Elec       q    Type
REMARK                         _______ _______ _______ _____ _____    ______ ____
ROOT
ATOM      1  S   UNL     1     -34.752  26.241   3.179  0.00  0.00    +0.076 S 
ATOM      2  O   UNL     1     -35.497  27.244   3.933  0.00  0.00    -0.150 OA
ATOM      3  O   UNL     1     -35.031  26.081   1.758  0.00  0.00    -0.150 OA
ENDROOT
BRANCH   1   4
ATOM      4  C   UNL     1     -34.981  24.701   3.970  0.00  0.00    +0.125 C 
ATOM      5  C   UNL     1     -35.243  23.560   3.212  0.00  0.00    +0.021 C 
ATOM      6  C   UNL     1     -34.902  24.612   5.359  0.00  0.00    +0.021 C 
ATOM      7  C   UNL     1     -35.426  22.330   3.843  0.00  0.00    +0.015 C 
ATOM      8  C   UNL     1     -35.085  23.381   5.991  0.00  0.00    +0.015 C 
ATOM      9  C   UNL     1     -35.347  22.241   5.232  0.00  0.00    +0.042 C 
BRANCH   9  10
ATOM     10  N   UNL     1     -35.531  20.997   5.872  0.00  0.00    -0.357 N 
ATOM     11  H   UNL     1     -35.773  20.966   6.826  0.00  0.00    +0.142 HD
ATOM     12  H   UNL     1     -35.417  20.161   5.365  0.00  0.00    +0.142 HD
ENDBRANCH   9  10
ENDBRANCH   1   4
BRANCH   1  13
ATOM     13  N   UNL     1     -33.071  26.541   3.407  0.00  0.00    -0.183 N 
ATOM     14  H   UNL     1     -32.394  26.053   2.885  0.00  0.00    +0.177 HD
BRANCH  13  17
ATOM     15  O   UNL     1     -32.555  27.287   5.721  0.00  0.00    -0.338 OA
ATOM     16  N   UNL     1     -32.171  28.453   6.371  0.00  0.00    -0.080 NA
ATOM     17  C   UNL     1     -32.685  27.525   4.383  0.00  0.00    +0.241 A 
ATOM     18  C   UNL     1     -32.388  28.848   4.139  0.00  0.00    +0.048 A 
ATOM     19  C   UNL     1     -32.077  29.372   5.405  0.00  0.00    +0.098 A 
ATOM     20  C   UNL     1     -32.396  29.550   2.844  0.00  0.00    +0.037 C 
ATOM     21  C   UNL     1     -31.685  30.749   5.748  0.00  0.00    +0.055 C 
ENDBRANCH  13  17
ENDBRANCH   1  13
TORSDOF 4
ENDMDL
MODEL 4
REMARK VINA RESULT:      -5.6      5.442      8.080
REMARK  Name = 5344
REMARK  4 active torsions:
REMARK  status: ('A' for Active; 'I' for Inactive)
REMARK    1  A    between atoms: S_1  and  C_4
REMARK    2  A    between atoms: S_1  and  N_13
REMARK    3  A    between atoms: C_9  and  N_10
REMARK    4  A    between atoms: N_13  and  C_17
REMARK                            x       y       z     vdW  Elec       q    Type
REMARK                         _______ _______ _______ _____ _____    ______ ____
ROOT
ATOM      1  S   UNL     1     -36.505  25.881   2.871  0.00  0.00    +0.076 S 
ATOM      2  O   UNL     1     -36.538  25.539   1.453  0.00  0.00    -0.150 OA
ATOM      3  O   UNL     1     -35.643  26.971   3.311  0.00  0.00    -0.150 OA
ENDROOT
BRANCH   1   4
ATOM      4  C   UNL     1     -36.079  24.439   3.758  0.00  0.00    +0.125 C 
ATOM      5  C   UNL     1     -35.960  23.220   3.090  0.00  0.00    +0.021 C 
ATOM      6  C   UNL     1     -35.859  24.504   5.133  0.00  0.00    +0.021 C 
ATOM      7  C   UNL     1     -35.620  22.067   3.798  0.00  0.00    +0.015 C 
ATOM      8  C   UNL     1     -35.518  23.351   5.841  0.00  0.00    +0.015 C 
ATOM      9  C   UNL     1     -35.399  22.133   5.173  0.00  0.00    +0.042 C 
BRANCH   9  10
ATOM     10  N   UNL     1     -35.054  20.968   5.889  0.00  0.00    -0.357 N 
ATOM     11  H   UNL     1     -35.017  20.099   5.427  0.00  0.00    +0.142 HD
ATOM     12  H   UNL     1     -34.851  21.023   6.851  0.00  0.00    +0.142 HD
ENDBRANCH   9  10
ENDBRANCH   1   4
BRANCH   1  13
ATOM     13  N   UNL     1     -38.122  26.182   3.386  0.00  0.00    -0.183 N 
ATOM     14  H   UNL     1     -38.317  26.446   4.315  0.00  0.00    +0.177 HD
BRANCH  13  17
ATOM     15  O   UNL     1     -39.705  27.056   1.682  0.00  0.00    -0.338 OA
ATOM     16  N   UNL     1     -40.706  26.567   0.852  0.00  0.00    -0.080 NA
ATOM     17  C   UNL     1     -39.178  26.036   2.420  0.00  0.00    +0.241 A 
ATOM     18  C   UNL     1     -39.825  24.867   2.084  0.00  0.00    +0.048 A 
ATOM     19  C   UNL     1     -40.759  25.256   1.109  0.00  0.00    +0.098 A 
ATOM     20  C   UNL     1     -39.588  23.518   2.626  0.00  0.00    +0.037 C 
ATOM     21  C   UNL     1     -41.730  24.413   0.393  0.00  0.00    +0.055 C 
ENDBRANCH  13  17
ENDBRANCH   1  13
TORSDOF 4
ENDMDL
MODEL 5
REMARK VINA RESULT:      -5.6      3.526      5.158
REMARK  Name = 5344
REMARK  4 active torsions:
REMARK  status: ('A' for Active; 'I' for Inactive)
REMARK    1  A    between atoms: S_1  and  C_4
REMARK    2  A    between atoms: S_1  and  N_13
REMARK    3  A    between atoms: C_9  and  N_10
REMARK    4  A    between atoms: N_13  and  C_17
REMARK                            x       y       z     vdW  Elec       q    Type
REMARK                         _______ _______ _______ _____ _____    ______ ____
ROOT
ATOM      1  S   UNL     1     -35.847  23.384   5.126  0.00  0.00    +0.076 S 
ATOM      2  O   UNL     1     -35.921  22.526   6.304  0.00  0.00    -0.150 OA
ATOM      3  O   UNL     1     -36.691  24.571   5.069  0.00  0.00    -0.150 OA
ENDROOT
BRANCH   1   4
ATOM      4  C   UNL     1     -36.177  22.395   3.726  0.00  0.00    +0.125 C 
ATOM      5  C   UNL     1     -37.238  22.718   2.879  0.00  0.00    +0.021 C 
ATOM      6  C   UNL     1     -35.381  21.283   3.454  0.00  0.00    +0.021 C 
ATOM      7  C   UNL     1     -37.502  21.928   1.760  0.00  0.00    +0.015 C 
ATOM      8  C   UNL     1     -35.645  20.494   2.334  0.00  0.00    +0.015 C 
ATOM      9  C   UNL     1     -36.705  20.816   1.487  0.00  0.00    +0.042 C 
BRANCH   9  10
ATOM     10  N   UNL     1     -36.971  20.017   0.355  0.00  0.00    -0.357 N 
ATOM     11  H   UNL     1     -36.243  19.506  -0.068  0.00  0.00    +0.142 HD
ATOM     12  H   UNL     1     -37.883  19.971  -0.012  0.00  0.00    +0.142 HD
ENDBRANCH   9  10
ENDBRANCH   1   4
BRANCH   1  13
ATOM     13  N   UNL     1     -34.201  23.835   4.896  0.00  0.00    -0.183 N 
ATOM     14  H   UNL     1     -33.479  23.168   4.958  0.00  0.00    +0.177 HD
BRANCH  13  17
ATOM     15  O   UNL     1     -33.555  26.145   5.546  0.00  0.00    -0.338 OA
ATOM     16  N   UNL     1     -33.350  27.374   4.930  0.00  0.00    -0.080 NA
ATOM     17  C   UNL     1     -33.910  25.215   4.612  0.00  0.00    +0.241 A 
ATOM     18  C   UNL     1     -33.942  25.821   3.374  0.00  0.00    +0.048 A 
ATOM     19  C   UNL     1     -33.587  27.155   3.634  0.00  0.00    +0.098 A 
ATOM     20  C   UNL     1     -34.275  25.206   2.078  0.00  0.00    +0.037 C 
ATOM     21  C   UNL     1     -33.461  28.265   2.674  0.00  0.00    +0.055 C 
ENDBRANCH  13  17
ENDBRANCH   1  13
TORSDOF 4
ENDMDL
MODEL 6
REMARK VINA RESULT:      -5.6      5.925      8.022
REMARK  Name = 5344
REMARK  4 active torsions:
REMARK  status: ('A' for Active; 'I' for Inactive)
REMARK    1  A    between atoms: S_1  and  C_4
REMARK    2  A    between atoms: S_1  and  N_13
REMARK    3  A    between atoms: C_9  and  N_10
REMARK    4  A    between atoms: N_13  and  C_17
REMARK                            x       y       z     vdW  Elec       q    Type
REMARK                         _______ _______ _______ _____ _____    ______ ____
ROOT
ATOM      1  S   UNL     1     -36.560  21.193   1.462  0.00  0.00    +0.076 S 
ATOM      2  O   UNL     1     -37.910  20.679   1.258  0.00  0.00    -0.150 OA
ATOM      3  O   UNL     1     -36.145  22.384   0.732  0.00  0.00    -0.150 OA
ENDROOT
BRANCH   1   4
ATOM      4  C   UNL     1     -35.439  19.902   1.109  0.00  0.00    +0.125 C 
ATOM      5  C   UNL     1     -34.230  19.819   1.801  0.00  0.00    +0.021 C 
ATOM      6  C   UNL     1     -35.751  18.954   0.135  0.00  0.00    +0.021 C 
ATOM      7  C   UNL     1     -33.334  18.788   1.518  0.00  0.00    +0.015 C 
ATOM      8  C   UNL     1     -34.855  17.922  -0.147  0.00  0.00    +0.015 C 
ATOM      9  C   UNL     1     -33.647  17.840   0.545  0.00  0.00    +0.042 C 
BRANCH   9  10
ATOM     10  N   UNL     1     -32.742  16.796   0.259  0.00  0.00    -0.357 N 
ATOM     11  H   UNL     1     -31.790  16.893   0.493  0.00  0.00    +0.142 HD
ATOM     12  H   UNL     1     -33.061  15.972  -0.174  0.00  0.00    +0.142 HD
ENDBRANCH   9  10
ENDBRANCH   1   4
BRANCH   1  13
ATOM     13  N   UNL     1     -36.333  21.444   3.151  0.00  0.00    -0.183 N 
ATOM     14  H   UNL     1     -36.043  20.708   3.739  0.00  0.00    +0.177 HD
BRANCH  13  17
ATOM     15  O   UNL     1     -37.663  23.531   3.374  0.00  0.00    -0.338 OA
ATOM     16  N   UNL     1     -37.586  24.739   4.056  0.00  0.00    -0.080 NA
ATOM     17  C   UNL     1     -36.580  22.759   3.680  0.00  0.00    +0.241 A 
ATOM     18  C   UNL     1     -35.780  23.449   4.565  0.00  0.00    +0.048 A 
ATOM     19  C   UNL     1     -36.454  24.667   4.762  0.00  0.00    +0.098 A 
ATOM     20  C   UNL     1     -34.510  23.008   5.166  0.00  0.00    +0.037 C 
ATOM     21  C   UNL     1     -36.054  25.799   5.614  0.00  0.00    +0.055 C 
ENDBRANCH  13  17
ENDBRANCH   1  13
TORSDOF 4
ENDMDL
MODEL 7
REMARK VINA RESULT:      -5.5      3.696      6.752
REMARK  Name = 5344
REMARK  4 active torsions:
REMARK  status: ('A' for Active; 'I' for Inactive)
REMARK    1  A    between atoms: S_1  and  C_4
REMARK    2  A    between atoms: S_1  and  N_13
REMARK    3  A    between atoms: C_9  and  N_10
REMARK    4  A    between atoms: N_13  and  C_17
REMARK                            x       y       z     vdW  Elec       q    Type
REMARK                         _______ _______ _______ _____ _____    ______ ____
ROOT
ATOM      1  S   UNL     1     -36.256  26.974   2.281  0.00  0.00    +0.076 S 
ATOM      2  O   UNL     1     -35.481  25.879   1.706  0.00  0.00    -0.150 OA
ATOM      3  O   UNL     1     -37.395  27.495   1.535  0.00  0.00    -0.150 OA
ENDROOT
BRANCH   1   4
ATOM      4  C   UNL     1     -35.156  28.289   2.611  0.00  0.00    +0.125 C 
ATOM      5  C   UNL     1     -35.508  29.595   2.269  0.00  0.00    +0.021 C 
ATOM      6  C   UNL     1     -33.926  28.035   3.215  0.00  0.00    +0.021 C 
ATOM      7  C   UNL     1     -34.629  30.646   2.532  0.00  0.00    +0.015 C 
ATOM      8  C   UNL     1     -33.047  29.086   3.479  0.00  0.00    +0.015 C 
ATOM      9  C   UNL     1     -33.399  30.391   3.137  0.00  0.00    +0.042 C 
BRANCH   9  10
ATOM     10  N   UNL     1     -32.510  31.453   3.405  0.00  0.00    -0.357 N 
ATOM     11  H   UNL     1     -31.578  31.406   3.090  0.00  0.00    +0.142 HD
ATOM     12  H   UNL     1     -32.821  32.242   3.905  0.00  0.00    +0.142 HD
ENDBRANCH   9  10
ENDBRANCH   1   4
BRANCH   1  13
ATOM     13  N   UNL     1     -36.767  26.499   3.856  0.00  0.00    -0.183 N 
ATOM     14  H   UNL     1     -37.224  27.134   4.453  0.00  0.00    +0.177 HD
BRANCH  13  17
ATOM     15  O   UNL     1     -37.203  24.053   3.851  0.00  0.00    -0.338 OA
ATOM     16  N   UNL     1     -36.690  22.909   4.451  0.00  0.00    -0.080 NA
ATOM     17  C   UNL     1     -36.505  25.148   4.273  0.00  0.00    +0.241 A 
ATOM     18  C   UNL     1     -35.527  24.737   5.153  0.00  0.00    +0.048 A 
ATOM     19  C   UNL     1     -35.689  23.342   5.224  0.00  0.00    +0.098 A 
ATOM     20  C   UNL     1     -34.540  25.572   5.858  0.00  0.00    +0.037 C 
ATOM     21  C   UNL     1     -34.914  22.377   6.019  0.00  0.00    +0.055 C 
ENDBRANCH  13  17
ENDBRANCH   1  13
TORSDOF 4
ENDMDL
MODEL 8
REMARK VINA RESULT:      -5.5      6.393      8.283
REMARK  Name = 5344
REMARK  4 active torsions:
REMARK  status: ('A' for Active; 'I' for Inactive)
REMARK    1  A    between atoms: S_1  and  C_4
REMARK    2  A    between atoms: S_1  and  N_13
REMARK    3  A    between atoms: C_9  and  N_10
REMARK    4  A    between atoms: N_13  and  C_17
REMARK                            x       y       z     vdW  Elec       q    Type
REMARK                         _______ _______ _______ _____ _____    ______ ____
ROOT
ATOM      1  S   UNL     1     -34.698  21.517   0.367  0.00  0.00    +0.076 S 
ATOM      2  O   UNL     1     -35.277  21.387  -0.966  0.00  0.00    -0.150 OA
ATOM      3  O   UNL     1     -34.108  22.792   0.753  0.00  0.00    -0.150 OA
ENDROOT
BRANCH   1   4
ATOM      4  C   UNL     1     -33.495  20.266   0.549  0.00  0.00    +0.125 C 
ATOM      5  C   UNL     1     -33.830  19.062   1.171  0.00  0.00    +0.021 C 
ATOM      6  C   UNL     1     -32.200  20.468   0.075  0.00  0.00    +0.021 C 
ATOM      7  C   UNL     1     -32.869  18.062   1.318  0.00  0.00    +0.015 C 
ATOM      8  C   UNL     1     -31.239  19.467   0.220  0.00  0.00    +0.015 C 
ATOM      9  C   UNL     1     -31.574  18.264   0.842  0.00  0.00    +0.042 C 
BRANCH   9  10
ATOM     10  N   UNL     1     -30.601  17.253   0.989  0.00  0.00    -0.357 N 
ATOM     11  H   UNL     1     -30.572  16.503   0.352  0.00  0.00    +0.142 HD
ATOM     12  H   UNL     1     -29.953  17.297   1.728  0.00  0.00    +0.142 HD
ENDBRANCH   9  10
ENDBRANCH   1   4
BRANCH   1  13
ATOM     13  N   UNL     1     -35.898  21.065   1.517  0.00  0.00    -0.183 N 
ATOM     14  H   UNL     1     -36.733  20.627   1.233  0.00  0.00    +0.177 HD
BRANCH  13  17
ATOM     15  O   UNL     1     -35.115  20.460   3.797  0.00  0.00    -0.338 OA
ATOM     16  N   UNL     1     -35.008  21.058   5.047  0.00  0.00    -0.080 NA
ATOM     17  C   UNL     1     -35.645  21.347   2.905  0.00  0.00    +0.241 A 
ATOM     18  C   UNL     1     -35.892  22.536   3.557  0.00  0.00    +0.048 A 
ATOM     19  C   UNL     1     -35.478  22.298   4.879  0.00  0.00    +0.098 A 
ATOM     20  C   UNL     1     -36.461  23.772   2.994  0.00  0.00    +0.037 C 
ATOM     21  C   UNL     1     -35.512  23.223   6.023  0.00  0.00    +0.055 C 
ENDBRANCH  13  17
ENDBRANCH   1  13
TORSDOF 4
ENDMDL
MODEL 9
REMARK VINA RESULT:      -5.5      3.615      4.589
REMARK  Name = 5344
REMARK  4 active torsions:
REMARK  status: ('A' for Active; 'I' for Inactive)
REMARK    1  A    between atoms: S_1  and  C_4
REMARK    2  A    between atoms: S_1  and  N_13
REMARK    3  A    between atoms: C_9  and  N_10
REMARK    4  A    between atoms: N_13  and  C_17
REMARK                            x       y       z     vdW  Elec       q    Type
REMARK                         _______ _______ _______ _____ _____    ______ ____
ROOT
ATOM      1  S   UNL     1     -34.465  26.035   4.792  0.00  0.00    +0.076 S 
ATOM      2  O   UNL     1     -33.275  25.915   5.626  0.00  0.00    -0.150 OA
ATOM      3  O   UNL     1     -35.651  26.673   5.349  0.00  0.00    -0.150 OA
ENDROOT
BRANCH   1   4
ATOM      4  C   UNL     1     -34.896  24.434   4.246  0.00  0.00    +0.125 C 
ATOM      5  C   UNL     1     -35.026  24.174   2.881  0.00  0.00    +0.021 C 
ATOM      6  C   UNL     1     -35.112  23.415   5.172  0.00  0.00    +0.021 C 
ATOM      7  C   UNL     1     -35.371  22.895   2.444  0.00  0.00    +0.015 C 
ATOM      8  C   UNL     1     -35.456  22.135   4.735  0.00  0.00    +0.015 C 
ATOM      9  C   UNL     1     -35.586  21.876   3.371  0.00  0.00    +0.042 C 
BRANCH   9  10
ATOM     10  N   UNL     1     -35.934  20.582   2.930  0.00  0.00    -0.357 N 
ATOM     11  H   UNL     1     -36.801  20.430   2.490  0.00  0.00    +0.142 HD
ATOM     12  H   UNL     1     -35.310  19.832   3.062  0.00  0.00    +0.142 HD
ENDBRANCH   9  10
ENDBRANCH   1   4
BRANCH   1  13
ATOM     13  N   UNL     1     -34.016  26.829   3.331  0.00  0.00    -0.183 N 
ATOM     14  H   UNL     1     -33.558  26.341   2.609  0.00  0.00    +0.177 HD
BRANCH  13  17
ATOM     15  O   UNL     1     -33.665  29.239   3.828  0.00  0.00    -0.338 OA
ATOM     16  N   UNL     1     -34.227  30.460   3.477  0.00  0.00    -0.080 NA
ATOM     17  C   UNL     1     -34.329  28.227   3.196  0.00  0.00    +0.241 A 
ATOM     18  C   UNL     1     -35.332  28.771   2.423  0.00  0.00    +0.048 A 
ATOM     19  C   UNL     1     -35.220  30.156   2.636  0.00  0.00    +0.098 A 
ATOM     20  C   UNL     1     -36.299  28.060   1.570  0.00  0.00    +0.037 C 
ATOM     21  C   UNL     1     -36.042  31.233   2.061  0.00  0.00    +0.055 C 
ENDBRANCH  13  17
ENDBRANCH   1  13
TORSDOF 4
ENDMDL
