MODEL 1
REMARK VINA RESULT:      -5.4      0.000      0.000
REMARK  Name = 53217
REMARK  9 active torsions:
REMARK  status: ('A' for Active; 'I' for Inactive)
REMARK    1  A    between atoms: C_1  and  O_20
REMARK    2  A    between atoms: C_2  and  N_9
REMARK    3  A    between atoms: C_4  and  N_10
REMARK    4  A    between atoms: C_11  and  S_12
REMARK    5  A    between atoms: S_12  and  C_13
REMARK    6  A    between atoms: C_13  and  N_15
REMARK    7  A    between atoms: C_16  and  O_18
REMARK    8  A    between atoms: O_20  and  C_21
REMARK    9  A    between atoms: C_21  and  C_22
REMARK                            x       y       z     vdW  Elec       q    Type
REMARK                         _______ _______ _______ _____ _____    ______ ____
ROOT
ATOM      1  C   UNL     1     -34.096  25.864   5.280  0.00  0.00    +0.140 C 
ATOM      2  C   UNL     1     -35.429  23.856   5.109  0.00  0.00    +0.163 C 
ATOM      3  C   UNL     1     -34.281  24.509   5.559  0.00  0.00    +0.062 C 
ATOM      4  C   UNL     1     -36.391  24.557   4.384  0.00  0.00    +0.105 C 
ATOM      5  C   UNL     1     -35.059  26.565   4.554  0.00  0.00    +0.039 C 
ATOM      6  C   UNL     1     -36.207  25.911   4.105  0.00  0.00    +0.024 C 
ENDROOT
BRANCH   2   9
ATOM      7  O   UNL     1     -36.020  22.145   6.539  0.00  0.00    -0.126 OA
ATOM      8  O   UNL     1     -35.315  21.628   4.524  0.00  0.00    -0.126 OA
ATOM      9  N   UNL     1     -35.596  22.475   5.406  0.00  0.00    +0.059 N 
ENDBRANCH   2   9
BRANCH   4  10
ATOM     10  N   UNL     1     -37.557  23.923   3.921  0.00  0.00    -0.235 NA
ATOM     11  C   UNL     1     -37.782  24.016   2.652  0.00  0.00    +0.132 C 
BRANCH  11  12
ATOM     12  S   UNL     1     -39.212  23.258   1.983  0.00  0.00    -0.071 S 
BRANCH  12  13
ATOM     13  C   UNL     1     -38.635  21.547   1.926  0.00  0.00    +0.157 C 
BRANCH  13  15
ATOM     14  O   UNL     1     -36.945  19.582   0.674  0.00  0.00    -0.226 OA
ATOM     15  N   UNL     1     -37.191  21.502   1.948  0.00  0.00    -0.260 N 
ATOM     16  C   UNL     1     -36.467  20.514   1.313  0.00  0.00    +0.402 C 
ATOM     17  H   UNL     1     -36.703  22.206   2.435  0.00  0.00    +0.154 HD
BRANCH  16  18
ATOM     18  O   UNL     1     -35.130  20.725   1.502  0.00  0.00    -0.431 OA
ATOM     19  C   UNL     1     -34.301  19.560   1.443  0.00  0.00    +0.257 C 
ENDBRANCH  16  18
ENDBRANCH  13  15
ENDBRANCH  12  13
ENDBRANCH  11  12
ENDBRANCH   4  10
BRANCH   1  20
ATOM     20  O   UNL     1     -32.977  26.503   5.718  0.00  0.00    -0.475 OA
BRANCH  20  21
ATOM     21  C   UNL     1     -32.692  27.778   5.149  0.00  0.00    +0.205 C 
BRANCH  21  22
ATOM     22  C   UNL     1     -31.858  28.583   6.134  0.00  0.00    +0.047 C 
ATOM     23  C   UNL     1     -31.909  30.071   5.836  0.00  0.00    +0.004 C 
ENDBRANCH  21  22
ENDBRANCH  20  21
ENDBRANCH   1  20
TORSDOF 9
ENDMDL
MODEL 2
REMARK VINA RESULT:      -5.3      2.582      3.500
REMARK  Name = 53217
REMARK  9 active torsions:
REMARK  status: ('A' for Active; 'I' for Inactive)
REMARK    1  A    between atoms: C_1  and  O_20
REMARK    2  A    between atoms: C_2  and  N_9
REMARK    3  A    between atoms: C_4  and  N_10
REMARK    4  A    between atoms: C_11  and  S_12
REMARK    5  A    between atoms: S_12  and  C_13
REMARK    6  A    between atoms: C_13  and  N_15
REMARK    7  A    between atoms: C_16  and  O_18
REMARK    8  A    between atoms: O_20  and  C_21
REMARK    9  A    between atoms: C_21  and  C_22
REMARK                            x       y       z     vdW  Elec       q    Type
REMARK                         _______ _______ _______ _____ _____    ______ ____
ROOT
ATOM      1  C   UNL     1     -34.230  25.917   4.861  0.00  0.00    +0.140 C 
ATOM      2  C   UNL     1     -35.508  23.866   4.885  0.00  0.00    +0.163 C 
ATOM      3  C   UNL     1     -34.362  24.580   5.239  0.00  0.00    +0.062 C 
ATOM      4  C   UNL     1     -36.520  24.488   4.156  0.00  0.00    +0.105 C 
ATOM      5  C   UNL     1     -35.243  26.539   4.131  0.00  0.00    +0.039 C 
ATOM      6  C   UNL     1     -36.389  25.825   3.779  0.00  0.00    +0.024 C 
ENDROOT
BRANCH   2   9
ATOM      7  O   UNL     1     -35.295  21.608   4.467  0.00  0.00    -0.126 OA
ATOM      8  O   UNL     1     -36.039  22.242   6.434  0.00  0.00    -0.126 OA
ATOM      9  N   UNL     1     -35.620  22.505   5.281  0.00  0.00    +0.059 N 
ENDBRANCH   2   9
BRANCH   4  10
ATOM     10  N   UNL     1     -37.684  23.791   3.788  0.00  0.00    -0.235 NA
ATOM     11  C   UNL     1     -37.720  23.360   2.571  0.00  0.00    +0.132 C 
BRANCH  11  12
ATOM     12  S   UNL     1     -39.131  22.482   2.021  0.00  0.00    -0.071 S 
BRANCH  12  13
ATOM     13  C   UNL     1     -40.256  23.871   1.763  0.00  0.00    +0.157 C 
BRANCH  13  15
ATOM     14  O   UNL     1     -40.295  26.489   2.959  0.00  0.00    -0.226 OA
ATOM     15  N   UNL     1     -39.523  25.037   1.326  0.00  0.00    -0.260 N 
ATOM     16  C   UNL     1     -39.608  26.255   1.970  0.00  0.00    +0.402 C 
ATOM     17  H   UNL     1     -38.939  24.961   0.536  0.00  0.00    +0.154 HD
BRANCH  16  18
ATOM     18  O   UNL     1     -38.811  27.169   1.340  0.00  0.00    -0.431 OA
ATOM     19  C   UNL     1     -37.856  26.633   0.419  0.00  0.00    +0.257 C 
ENDBRANCH  16  18
ENDBRANCH  13  15
ENDBRANCH  12  13
ENDBRANCH  11  12
ENDBRANCH   4  10
BRANCH   1  20
ATOM     20  O   UNL     1     -33.113  26.614   5.206  0.00  0.00    -0.475 OA
BRANCH  20  21
ATOM     21  C   UNL     1     -32.696  27.650   4.319  0.00  0.00    +0.205 C 
BRANCH  21  22
ATOM     22  C   UNL     1     -32.003  28.739   5.125  0.00  0.00    +0.047 C 
ATOM     23  C   UNL     1     -31.960  28.406   6.606  0.00  0.00    +0.004 C 
ENDBRANCH  21  22
ENDBRANCH  20  21
ENDBRANCH   1  20
TORSDOF 9
ENDMDL
MODEL 3
REMARK VINA RESULT:      -5.2      2.733      3.781
REMARK  Name = 53217
REMARK  9 active torsions:
REMARK  status: ('A' for Active; 'I' for Inactive)
REMARK    1  A    between atoms: C_1  and  O_20
REMARK    2  A    between atoms: C_2  and  N_9
REMARK    3  A    between atoms: C_4  and  N_10
REMARK    4  A    between atoms: C_11  and  S_12
REMARK    5  A    between atoms: S_12  and  C_13
REMARK    6  A    between atoms: C_13  and  N_15
REMARK    7  A    between atoms: C_16  and  O_18
REMARK    8  A    between atoms: O_20  and  C_21
REMARK    9  A    between atoms: C_21  and  C_22
REMARK                            x       y       z     vdW  Elec       q    Type
REMARK                         _______ _______ _______ _____ _____    ______ ____
ROOT
ATOM      1  C   UNL     1     -34.576  25.988   5.031  0.00  0.00    +0.140 C 
ATOM      2  C   UNL     1     -35.629  23.814   4.980  0.00  0.00    +0.163 C 
ATOM      3  C   UNL     1     -34.603  24.649   5.422  0.00  0.00    +0.062 C 
ATOM      4  C   UNL     1     -36.628  24.318   4.149  0.00  0.00    +0.105 C 
ATOM      5  C   UNL     1     -35.576  26.492   4.198  0.00  0.00    +0.039 C 
ATOM      6  C   UNL     1     -36.603  25.656   3.757  0.00  0.00    +0.024 C 
ENDROOT
BRANCH   2   9
ATOM      7  O   UNL     1     -36.054  22.169   6.540  0.00  0.00    -0.126 OA
ATOM      8  O   UNL     1     -35.222  21.577   4.596  0.00  0.00    -0.126 OA
ATOM      9  N   UNL     1     -35.635  22.453   5.393  0.00  0.00    +0.059 N 
ENDBRANCH   2   9
BRANCH   4  10
ATOM     10  N   UNL     1     -37.674  23.498   3.690  0.00  0.00    -0.235 NA
ATOM     11  C   UNL     1     -37.698  23.275   2.418  0.00  0.00    +0.132 C 
BRANCH  11  12
ATOM     12  S   UNL     1     -38.965  22.265   1.753  0.00  0.00    -0.071 S 
BRANCH  12  13
ATOM     13  C   UNL     1     -40.153  23.549   1.303  0.00  0.00    +0.157 C 
BRANCH  13  15
ATOM     14  O   UNL     1     -40.240  26.410   1.000  0.00  0.00    -0.226 OA
ATOM     15  N   UNL     1     -40.254  24.533   2.357  0.00  0.00    -0.260 N 
ATOM     16  C   UNL     1     -40.290  25.889   2.109  0.00  0.00    +0.402 C 
ATOM     17  H   UNL     1     -40.300  24.222   3.291  0.00  0.00    +0.154 HD
BRANCH  16  18
ATOM     18  O   UNL     1     -40.388  26.573   3.287  0.00  0.00    -0.431 OA
ATOM     19  C   UNL     1     -41.717  26.884   3.719  0.00  0.00    +0.257 C 
ENDBRANCH  16  18
ENDBRANCH  13  15
ENDBRANCH  12  13
ENDBRANCH  11  12
ENDBRANCH   4  10
BRANCH   1  20
ATOM     20  O   UNL     1     -33.575  26.804   5.461  0.00  0.00    -0.475 OA
BRANCH  20  21
ATOM     21  C   UNL     1     -32.968  27.655   4.491  0.00  0.00    +0.205 C 
BRANCH  21  22
ATOM     22  C   UNL     1     -31.780  28.358   5.128  0.00  0.00    +0.047 C 
ATOM     23  C   UNL     1     -31.959  28.530   6.626  0.00  0.00    +0.004 C 
ENDBRANCH  21  22
ENDBRANCH  20  21
ENDBRANCH   1  20
TORSDOF 9
ENDMDL
MODEL 4
REMARK VINA RESULT:      -5.2      4.618      8.622
REMARK  Name = 53217
REMARK  9 active torsions:
REMARK  status: ('A' for Active; 'I' for Inactive)
REMARK    1  A    between atoms: C_1  and  O_20
REMARK    2  A    between atoms: C_2  and  N_9
REMARK    3  A    between atoms: C_4  and  N_10
REMARK    4  A    between atoms: C_11  and  S_12
REMARK    5  A    between atoms: S_12  and  C_13
REMARK    6  A    between atoms: C_13  and  N_15
REMARK    7  A    between atoms: C_16  and  O_18
REMARK    8  A    between atoms: O_20  and  C_21
REMARK    9  A    between atoms: C_21  and  C_22
REMARK                            x       y       z     vdW  Elec       q    Type
REMARK                         _______ _______ _______ _____ _____    ______ ____
ROOT
ATOM      1  C   UNL     1     -35.588  25.015   4.748  0.00  0.00    +0.140 C 
ATOM      2  C   UNL     1     -34.709  26.871   3.474  0.00  0.00    +0.163 C 
ATOM      3  C   UNL     1     -35.595  25.799   3.594  0.00  0.00    +0.062 C 
ATOM      4  C   UNL     1     -33.818  27.157   4.507  0.00  0.00    +0.105 C 
ATOM      5  C   UNL     1     -34.696  25.303   5.782  0.00  0.00    +0.039 C 
ATOM      6  C   UNL     1     -33.811  26.374   5.661  0.00  0.00    +0.024 C 
ENDROOT
BRANCH   2   9
ATOM      7  O   UNL     1     -35.467  28.673   2.251  0.00  0.00    -0.126 OA
ATOM      8  O   UNL     1     -34.024  27.307   1.316  0.00  0.00    -0.126 OA
ATOM      9  N   UNL     1     -34.735  27.656   2.289  0.00  0.00    +0.059 N 
ENDBRANCH   2   9
BRANCH   4  10
ATOM     10  N   UNL     1     -32.916  28.231   4.411  0.00  0.00    -0.235 NA
ATOM     11  C   UNL     1     -31.906  28.191   5.215  0.00  0.00    +0.132 C 
BRANCH  11  12
ATOM     12  S   UNL     1     -30.729  29.487   5.170  0.00  0.00    -0.071 S 
BRANCH  12  13
ATOM     13  C   UNL     1     -30.271  29.525   6.917  0.00  0.00    +0.157 C 
BRANCH  13  15
ATOM     14  O   UNL     1     -28.068  29.999   8.708  0.00  0.00    -0.226 OA
ATOM     15  N   UNL     1     -29.145  28.652   7.161  0.00  0.00    -0.260 N 
ATOM     16  C   UNL     1     -28.134  28.970   8.044  0.00  0.00    +0.402 C 
ATOM     17  H   UNL     1     -29.098  27.795   6.678  0.00  0.00    +0.154 HD
BRANCH  16  18
ATOM     18  O   UNL     1     -27.210  27.965   8.072  0.00  0.00    -0.431 OA
ATOM     19  C   UNL     1     -27.521  26.809   7.286  0.00  0.00    +0.257 C 
ENDBRANCH  16  18
ENDBRANCH  13  15
ENDBRANCH  12  13
ENDBRANCH  11  12
ENDBRANCH   4  10
BRANCH   1  20
ATOM     20  O   UNL     1     -36.452  23.970   4.867  0.00  0.00    -0.475 OA
BRANCH  20  21
ATOM     21  C   UNL     1     -36.143  22.785   4.137  0.00  0.00    +0.205 C 
BRANCH  21  22
ATOM     22  C   UNL     1     -35.189  21.934   4.960  0.00  0.00    +0.047 C 
ATOM     23  C   UNL     1     -35.592  21.887   6.424  0.00  0.00    +0.004 C 
ENDBRANCH  21  22
ENDBRANCH  20  21
ENDBRANCH   1  20
TORSDOF 9
ENDMDL
MODEL 5
REMARK VINA RESULT:      -5.1      1.849      2.723
REMARK  Name = 53217
REMARK  9 active torsions:
REMARK  status: ('A' for Active; 'I' for Inactive)
REMARK    1  A    between atoms: C_1  and  O_20
REMARK    2  A    between atoms: C_2  and  N_9
REMARK    3  A    between atoms: C_4  and  N_10
REMARK    4  A    between atoms: C_11  and  S_12
REMARK    5  A    between atoms: S_12  and  C_13
REMARK    6  A    between atoms: C_13  and  N_15
REMARK    7  A    between atoms: C_16  and  O_18
REMARK    8  A    between atoms: O_20  and  C_21
REMARK    9  A    between atoms: C_21  and  C_22
REMARK                            x       y       z     vdW  Elec       q    Type
REMARK                         _______ _______ _______ _____ _____    ______ ____
ROOT
ATOM      1  C   UNL     1     -34.105  25.895   4.973  0.00  0.00    +0.140 C 
ATOM      2  C   UNL     1     -35.459  23.893   4.943  0.00  0.00    +0.163 C 
ATOM      3  C   UNL     1     -34.278  24.548   5.295  0.00  0.00    +0.062 C 
ATOM      4  C   UNL     1     -36.466  24.585   4.272  0.00  0.00    +0.105 C 
ATOM      5  C   UNL     1     -35.114  26.587   4.301  0.00  0.00    +0.039 C 
ATOM      6  C   UNL     1     -36.295  25.932   3.951  0.00  0.00    +0.024 C 
ENDROOT
BRANCH   2   9
ATOM      7  O   UNL     1     -35.351  21.650   4.418  0.00  0.00    -0.126 OA
ATOM      8  O   UNL     1     -36.002  22.221   6.435  0.00  0.00    -0.126 OA
ATOM      9  N   UNL     1     -35.612  22.521   5.282  0.00  0.00    +0.059 N 
ENDBRANCH   2   9
BRANCH   4  10
ATOM     10  N   UNL     1     -37.666  23.949   3.907  0.00  0.00    -0.235 NA
ATOM     11  C   UNL     1     -38.242  24.402   2.844  0.00  0.00    +0.132 C 
BRANCH  11  12
ATOM     12  S   UNL     1     -39.743  23.674   2.312  0.00  0.00    -0.071 S 
BRANCH  12  13
ATOM     13  C   UNL     1     -39.171  21.979   2.063  0.00  0.00    +0.157 C 
BRANCH  13  15
ATOM     14  O   UNL     1     -39.218  21.474  -0.771  0.00  0.00    -0.226 OA
ATOM     15  N   UNL     1     -40.158  21.218   1.331  0.00  0.00    -0.260 N 
ATOM     16  C   UNL     1     -40.093  21.031  -0.034  0.00  0.00    +0.402 C 
ATOM     17  H   UNL     1     -40.909  20.816   1.827  0.00  0.00    +0.154 HD
BRANCH  16  18
ATOM     18  O   UNL     1     -41.153  20.276  -0.450  0.00  0.00    -0.431 OA
ATOM     19  C   UNL     1     -42.263  21.002  -0.986  0.00  0.00    +0.257 C 
ENDBRANCH  16  18
ENDBRANCH  13  15
ENDBRANCH  12  13
ENDBRANCH  11  12
ENDBRANCH   4  10
BRANCH   1  20
ATOM     20  O   UNL     1     -32.954  26.535   5.316  0.00  0.00    -0.475 OA
BRANCH  20  21
ATOM     21  C   UNL     1     -32.875  27.067   6.636  0.00  0.00    +0.205 C 
BRANCH  21  22
ATOM     22  C   UNL     1     -31.949  28.274   6.626  0.00  0.00    +0.047 C 
ATOM     23  C   UNL     1     -32.028  29.037   5.316  0.00  0.00    +0.004 C 
ENDBRANCH  21  22
ENDBRANCH  20  21
ENDBRANCH   1  20
TORSDOF 9
ENDMDL
MODEL 6
REMARK VINA RESULT:      -5.0      2.345      3.068
REMARK  Name = 53217
REMARK  9 active torsions:
REMARK  status: ('A' for Active; 'I' for Inactive)
REMARK    1  A    between atoms: C_1  and  O_20
REMARK    2  A    between atoms: C_2  and  N_9
REMARK    3  A    between atoms: C_4  and  N_10
REMARK    4  A    between atoms: C_11  and  S_12
REMARK    5  A    between atoms: S_12  and  C_13
REMARK    6  A    between atoms: C_13  and  N_15
REMARK    7  A    between atoms: C_16  and  O_18
REMARK    8  A    between atoms: O_20  and  C_21
REMARK    9  A    between atoms: C_21  and  C_22
REMARK                            x       y       z     vdW  Elec       q    Type
REMARK                         _______ _______ _______ _____ _____    ______ ____
ROOT
ATOM      1  C   UNL     1     -33.568  26.706   4.578  0.00  0.00    +0.140 C 
ATOM      2  C   UNL     1     -34.657  24.552   4.468  0.00  0.00    +0.163 C 
ATOM      3  C   UNL     1     -34.223  25.650   5.212  0.00  0.00    +0.062 C 
ATOM      4  C   UNL     1     -34.437  24.511   3.092  0.00  0.00    +0.105 C 
ATOM      5  C   UNL     1     -33.348  26.665   3.201  0.00  0.00    +0.039 C 
ATOM      6  C   UNL     1     -33.782  25.567   2.458  0.00  0.00    +0.024 C 
ENDROOT
BRANCH   2   9
ATOM      7  O   UNL     1     -36.566  23.379   5.017  0.00  0.00    -0.126 OA
ATOM      8  O   UNL     1     -34.645  22.688   5.826  0.00  0.00    -0.126 OA
ATOM      9  N   UNL     1     -35.322  23.488   5.137  0.00  0.00    +0.059 N 
ENDBRANCH   2   9
BRANCH   4  10
ATOM     10  N   UNL     1     -34.865  23.417   2.321  0.00  0.00    -0.235 NA
ATOM     11  C   UNL     1     -35.759  23.675   1.426  0.00  0.00    +0.132 C 
BRANCH  11  12
ATOM     12  S   UNL     1     -36.356  22.375   0.416  0.00  0.00    -0.071 S 
BRANCH  12  13
ATOM     13  C   UNL     1     -37.810  21.904   1.378  0.00  0.00    +0.157 C 
BRANCH  13  15
ATOM     14  O   UNL     1     -40.392  23.091   1.841  0.00  0.00    -0.226 OA
ATOM     15  N   UNL     1     -38.134  22.935   2.338  0.00  0.00    -0.260 N 
ATOM     16  C   UNL     1     -39.409  23.441   2.486  0.00  0.00    +0.402 C 
ATOM     17  H   UNL     1     -37.415  23.291   2.909  0.00  0.00    +0.154 HD
BRANCH  16  18
ATOM     18  O   UNL     1     -39.417  24.398   3.461  0.00  0.00    -0.431 OA
ATOM     19  C   UNL     1     -38.596  25.544   3.217  0.00  0.00    +0.257 C 
ENDBRANCH  16  18
ENDBRANCH  13  15
ENDBRANCH  12  13
ENDBRANCH  11  12
ENDBRANCH   4  10
BRANCH   1  20
ATOM     20  O   UNL     1     -33.144  27.778   5.302  0.00  0.00    -0.475 OA
BRANCH  20  21
ATOM     21  C   UNL     1     -32.045  28.521   4.780  0.00  0.00    +0.205 C 
BRANCH  21  22
ATOM     22  C   UNL     1     -31.930  29.832   5.542  0.00  0.00    +0.047 C 
ATOM     23  C   UNL     1     -31.584  29.610   7.003  0.00  0.00    +0.004 C 
ENDBRANCH  21  22
ENDBRANCH  20  21
ENDBRANCH   1  20
TORSDOF 9
ENDMDL
MODEL 7
REMARK VINA RESULT:      -5.0      3.369      7.531
REMARK  Name = 53217
REMARK  9 active torsions:
REMARK  status: ('A' for Active; 'I' for Inactive)
REMARK    1  A    between atoms: C_1  and  O_20
REMARK    2  A    between atoms: C_2  and  N_9
REMARK    3  A    between atoms: C_4  and  N_10
REMARK    4  A    between atoms: C_11  and  S_12
REMARK    5  A    between atoms: S_12  and  C_13
REMARK    6  A    between atoms: C_13  and  N_15
REMARK    7  A    between atoms: C_16  and  O_18
REMARK    8  A    between atoms: O_20  and  C_21
REMARK    9  A    between atoms: C_21  and  C_22
REMARK                            x       y       z     vdW  Elec       q    Type
REMARK                         _______ _______ _______ _____ _____    ______ ____
ROOT
ATOM      1  C   UNL     1     -35.982  24.106   4.465  0.00  0.00    +0.140 C 
ATOM      2  C   UNL     1     -34.544  26.020   4.787  0.00  0.00    +0.163 C 
ATOM      3  C   UNL     1     -34.886  24.702   5.089  0.00  0.00    +0.062 C 
ATOM      4  C   UNL     1     -35.297  26.741   3.862  0.00  0.00    +0.105 C 
ATOM      5  C   UNL     1     -36.735  24.828   3.539  0.00  0.00    +0.039 C 
ATOM      6  C   UNL     1     -36.392  26.146   3.237  0.00  0.00    +0.024 C 
ENDROOT
BRANCH   2   9
ATOM      7  O   UNL     1     -32.411  26.897   4.755  0.00  0.00    -0.126 OA
ATOM      8  O   UNL     1     -33.479  26.817   6.672  0.00  0.00    -0.126 OA
ATOM      9  N   UNL     1     -33.422  26.606   5.436  0.00  0.00    +0.059 N 
ENDBRANCH   2   9
BRANCH   4  10
ATOM     10  N   UNL     1     -34.972  28.071   3.540  0.00  0.00    -0.235 NA
ATOM     11  C   UNL     1     -35.417  28.499   2.405  0.00  0.00    +0.132 C 
BRANCH  11  12
ATOM     12  S   UNL     1     -35.062  30.143   1.916  0.00  0.00    -0.071 S 
BRANCH  12  13
ATOM     13  C   UNL     1     -33.347  30.248   2.473  0.00  0.00    +0.157 C 
BRANCH  13  15
ATOM     14  O   UNL     1     -31.018  30.041   4.152  0.00  0.00    -0.226 OA
ATOM     15  N   UNL     1     -33.293  30.404   3.909  0.00  0.00    -0.260 N 
ATOM     16  C   UNL     1     -32.122  30.286   4.628  0.00  0.00    +0.402 C 
ATOM     17  H   UNL     1     -34.127  30.601   4.395  0.00  0.00    +0.154 HD
BRANCH  16  18
ATOM     18  O   UNL     1     -32.371  30.481   5.957  0.00  0.00    -0.431 OA
ATOM     19  C   UNL     1     -31.574  29.709   6.860  0.00  0.00    +0.257 C 
ENDBRANCH  16  18
ENDBRANCH  13  15
ENDBRANCH  12  13
ENDBRANCH  11  12
ENDBRANCH   4  10
BRANCH   1  20
ATOM     20  O   UNL     1     -36.316  22.819   4.758  0.00  0.00    -0.475 OA
BRANCH  20  21
ATOM     21  C   UNL     1     -35.450  21.796   4.273  0.00  0.00    +0.205 C 
BRANCH  21  22
ATOM     22  C   UNL     1     -35.833  21.465   2.839  0.00  0.00    +0.047 C 
ATOM     23  C   UNL     1     -34.973  20.353   2.265  0.00  0.00    +0.004 C 
ENDBRANCH  21  22
ENDBRANCH  20  21
ENDBRANCH   1  20
TORSDOF 9
ENDMDL
MODEL 8
REMARK VINA RESULT:      -4.9      2.088      2.789
REMARK  Name = 53217
REMARK  9 active torsions:
REMARK  status: ('A' for Active; 'I' for Inactive)
REMARK    1  A    between atoms: C_1  and  O_20
REMARK    2  A    between atoms: C_2  and  N_9
REMARK    3  A    between atoms: C_4  and  N_10
REMARK    4  A    between atoms: C_11  and  S_12
REMARK    5  A    between atoms: S_12  and  C_13
REMARK    6  A    between atoms: C_13  and  N_15
REMARK    7  A    between atoms: C_16  and  O_18
REMARK    8  A    between atoms: O_20  and  C_21
REMARK    9  A    between atoms: C_21  and  C_22
REMARK                            x       y       z     vdW  Elec       q    Type
REMARK                         _______ _______ _______ _____ _____    ______ ____
ROOT
ATOM      1  C   UNL     1     -34.136  26.267   4.974  0.00  0.00    +0.140 C 
ATOM      2  C   UNL     1     -35.756  26.390   3.185  0.00  0.00    +0.163 C 
ATOM      3  C   UNL     1     -34.524  26.759   3.727  0.00  0.00    +0.062 C 
ATOM      4  C   UNL     1     -36.599  25.531   3.890  0.00  0.00    +0.105 C 
ATOM      5  C   UNL     1     -34.980  25.408   5.678  0.00  0.00    +0.039 C 
ATOM      6  C   UNL     1     -36.211  25.039   5.136  0.00  0.00    +0.024 C 
ENDROOT
BRANCH   2   9
ATOM      7  O   UNL     1     -35.886  26.222   0.889  0.00  0.00    -0.126 OA
ATOM      8  O   UNL     1     -36.693  28.023   1.852  0.00  0.00    -0.126 OA
ATOM      9  N   UNL     1     -36.130  26.903   1.913  0.00  0.00    +0.059 N 
ENDBRANCH   2   9
BRANCH   4  10
ATOM     10  N   UNL     1     -37.844  25.144   3.365  0.00  0.00    -0.235 NA
ATOM     11  C   UNL     1     -37.938  23.912   2.990  0.00  0.00    +0.132 C 
BRANCH  11  12
ATOM     12  S   UNL     1     -39.452  23.338   2.322  0.00  0.00    -0.071 S 
BRANCH  12  13
ATOM     13  C   UNL     1     -38.923  21.704   1.764  0.00  0.00    +0.157 C 
BRANCH  13  15
ATOM     14  O   UNL     1     -36.791  20.050   0.761  0.00  0.00    -0.226 OA
ATOM     15  N   UNL     1     -37.735  21.289   2.476  0.00  0.00    -0.260 N 
ATOM     16  C   UNL     1     -36.765  20.492   1.905  0.00  0.00    +0.402 C 
ATOM     17  H   UNL     1     -37.613  21.588   3.406  0.00  0.00    +0.154 HD
BRANCH  16  18
ATOM     18  O   UNL     1     -35.764  20.262   2.806  0.00  0.00    -0.431 OA
ATOM     19  C   UNL     1     -35.425  21.364   3.655  0.00  0.00    +0.257 C 
ENDBRANCH  16  18
ENDBRANCH  13  15
ENDBRANCH  12  13
ENDBRANCH  11  12
ENDBRANCH   4  10
BRANCH   1  20
ATOM     20  O   UNL     1     -32.935  26.625   5.503  0.00  0.00    -0.475 OA
BRANCH  20  21
ATOM     21  C   UNL     1     -32.455  27.934   5.201  0.00  0.00    +0.205 C 
BRANCH  21  22
ATOM     22  C   UNL     1     -31.776  28.507   6.434  0.00  0.00    +0.047 C 
ATOM     23  C   UNL     1     -31.717  30.024   6.395  0.00  0.00    +0.004 C 
ENDBRANCH  21  22
ENDBRANCH  20  21
ENDBRANCH   1  20
TORSDOF 9
ENDMDL
MODEL 9
REMARK VINA RESULT:      -4.9      4.348      7.903
REMARK  Name = 53217
REMARK  9 active torsions:
REMARK  status: ('A' for Active; 'I' for Inactive)
REMARK    1  A    between atoms: C_1  and  O_20
REMARK    2  A    between atoms: C_2  and  N_9
REMARK    3  A    between atoms: C_4  and  N_10
REMARK    4  A    between atoms: C_11  and  S_12
REMARK    5  A    between atoms: S_12  and  C_13
REMARK    6  A    between atoms: C_13  and  N_15
REMARK    7  A    between atoms: C_16  and  O_18
REMARK    8  A    between atoms: O_20  and  C_21
REMARK    9  A    between atoms: C_21  and  C_22
REMARK                            x       y       z     vdW  Elec       q    Type
REMARK                         _______ _______ _______ _____ _____    ______ ____
ROOT
ATOM      1  C   UNL     1     -35.046  24.626   4.587  0.00  0.00    +0.140 C 
ATOM      2  C   UNL     1     -33.303  25.993   3.621  0.00  0.00    +0.163 C 
ATOM      3  C   UNL     1     -34.232  24.959   3.503  0.00  0.00    +0.062 C 
ATOM      4  C   UNL     1     -33.189  26.694   4.821  0.00  0.00    +0.105 C 
ATOM      5  C   UNL     1     -34.931  25.327   5.787  0.00  0.00    +0.039 C 
ATOM      6  C   UNL     1     -34.002  26.362   5.905  0.00  0.00    +0.024 C 
ENDROOT
BRANCH   2   9
ATOM      7  O   UNL     1     -32.923  27.114   1.642  0.00  0.00    -0.126 OA
ATOM      8  O   UNL     1     -31.350  25.790   2.413  0.00  0.00    -0.126 OA
ATOM      9  N   UNL     1     -32.485  26.315   2.503  0.00  0.00    +0.059 N 
ENDBRANCH   2   9
BRANCH   4  10
ATOM     10  N   UNL     1     -32.261  27.740   4.966  0.00  0.00    -0.235 NA
ATOM     11  C   UNL     1     -32.072  28.162   6.172  0.00  0.00    +0.132 C 
BRANCH  11  12
ATOM     12  S   UNL     1     -30.936  29.465   6.451  0.00  0.00    -0.071 S 
BRANCH  12  13
ATOM     13  C   UNL     1     -31.364  30.528   5.055  0.00  0.00    +0.157 C 
BRANCH  13  15
ATOM     14  O   UNL     1     -32.859  30.871   2.619  0.00  0.00    -0.226 OA
ATOM     15  N   UNL     1     -32.800  30.630   4.922  0.00  0.00    -0.260 N 
ATOM     16  C   UNL     1     -33.426  30.793   3.704  0.00  0.00    +0.402 C 
ATOM     17  H   UNL     1     -33.355  30.581   5.735  0.00  0.00    +0.154 HD
BRANCH  16  18
ATOM     18  O   UNL     1     -34.779  30.858   3.882  0.00  0.00    -0.431 OA
ATOM     19  C   UNL     1     -35.565  30.882   2.687  0.00  0.00    +0.257 C 
ENDBRANCH  16  18
ENDBRANCH  13  15
ENDBRANCH  12  13
ENDBRANCH  11  12
ENDBRANCH   4  10
BRANCH   1  20
ATOM     20  O   UNL     1     -35.953  23.618   4.473  0.00  0.00    -0.475 OA
BRANCH  20  21
ATOM     21  C   UNL     1     -35.575  22.489   3.687  0.00  0.00    +0.205 C 
BRANCH  21  22
ATOM     22  C   UNL     1     -35.229  21.336   4.616  0.00  0.00    +0.047 C 
ATOM     23  C   UNL     1     -35.312  21.740   6.077  0.00  0.00    +0.004 C 
ENDBRANCH  21  22
ENDBRANCH  20  21
ENDBRANCH   1  20
TORSDOF 9
ENDMDL
