MODEL 1
REMARK VINA RESULT:      -7.3      0.000      0.000
REMARK  Name = 56967399
REMARK  7 active torsions:
REMARK  status: ('A' for Active; 'I' for Inactive)
REMARK    1  A    between atoms: C_1  and  N_20
REMARK    2  A    between atoms: C_2  and  O_26
REMARK    3  A    between atoms: C_3  and  N_8
REMARK    4  A    between atoms: C_9  and  C_13
REMARK    5  A    between atoms: N_20  and  S_22
REMARK    6  A    between atoms: O_26  and  C_27
REMARK    7  A    between atoms: C_27  and  C_28
REMARK                            x       y       z     vdW  Elec       q    Type
REMARK                         _______ _______ _______ _____ _____    ______ ____
ROOT
ATOM      1  C   UNL     1     -40.071  24.012   1.196  0.00  0.00    +0.102 C 
ATOM      2  C   UNL     1     -39.535  24.653   2.312  0.00  0.00    +0.155 C 
ATOM      3  C   UNL     1     -41.587  25.900   2.581  0.00  0.00    +0.054 C 
ATOM      4  C   UNL     1     -40.294  25.596   3.005  0.00  0.00    +0.053 C 
ATOM      5  C   UNL     1     -41.365  24.314   0.772  0.00  0.00    +0.020 C 
ATOM      6  C   UNL     1     -42.123  25.258   1.465  0.00  0.00    +0.016 C 
ENDROOT
BRANCH   3   8
ATOM      7  O   UNL     1     -42.220  28.752   1.907  0.00  0.00    -0.270 OA
ATOM      8  N   UNL     1     -42.358  26.858   3.285  0.00  0.00    -0.280 N 
ATOM      9  C   UNL     1     -42.630  28.187   2.934  0.00  0.00    +0.250 C 
ATOM     10  H   UNL     1     -42.754  26.550   4.132  0.00  0.00    +0.155 HD
BRANCH   9  13
ATOM     11  O   UNL     1     -43.548  30.411   7.207  0.00  0.00    -0.435 OA
ATOM     12  O   UNL     1     -45.786  31.004   6.540  0.00  0.00    -0.435 OA
ATOM     13  C   UNL     1     -43.483  28.924   3.853  0.00  0.00    +0.057 C 
ATOM     14  C   UNL     1     -43.844  29.981   5.949  0.00  0.00    +0.177 C 
ATOM     15  C   UNL     1     -45.122  30.320   5.569  0.00  0.00    +0.176 C 
ATOM     16  C   UNL     1     -42.998  29.282   5.112  0.00  0.00    +0.045 C 
ATOM     17  C   UNL     1     -44.789  29.270   3.464  0.00  0.00    +0.008 C 
ATOM     18  C   UNL     1     -45.626  29.978   4.330  0.00  0.00    +0.040 C 
ATOM     19  C   UNL     1     -44.782  31.058   7.574  0.00  0.00    +0.429 C 
ENDBRANCH   9  13
ENDBRANCH   3   8
BRANCH   1  20
ATOM     20  N   UNL     1     -39.307  23.041   0.475  0.00  0.00    -0.190 N 
ATOM     21  C   UNL     1     -38.168  23.539  -0.347  0.00  0.00    +0.139 C 
BRANCH  20  22
ATOM     22  S   UNL     1     -39.162  21.470   1.173  0.00  0.00    +0.059 S 
ATOM     23  O   UNL     1     -40.382  21.147   1.891  0.00  0.00    -0.154 OA
ATOM     24  O   UNL     1     -37.875  21.334   1.828  0.00  0.00    -0.154 OA
ATOM     25  C   UNL     1     -39.132  20.441  -0.279  0.00  0.00    +0.200 C 
ENDBRANCH  20  22
ENDBRANCH   1  20
BRANCH   2  26
ATOM     26  O   UNL     1     -38.274  24.369   2.743  0.00  0.00    -0.469 OA
BRANCH  26  27
ATOM     27  C   UNL     1     -37.357  25.458   2.822  0.00  0.00    +0.232 C 
BRANCH  27  28
ATOM     28  C   UNL     1     -36.266  25.111   3.792  0.00  0.00    +0.017 C 
ATOM     29  C   UNL     1     -35.184  25.968   3.991  0.00  0.00    -0.022 C 
ATOM     30  C   UNL     1     -36.345  23.911   4.498  0.00  0.00    -0.005 C 
ATOM     31  C   UNL     1     -35.341  23.568   5.405  0.00  0.00    -0.022 C 
ATOM     32  C   UNL     1     -34.180  25.624   4.898  0.00  0.00    -0.005 C 
ATOM     33  C   UNL     1     -34.259  24.425   5.605  0.00  0.00    -0.005 C 
ATOM     34  C   UNL     1     -35.077  27.257   3.246  0.00  0.00    +0.031 C 
ATOM     35  C   UNL     1     -35.426  22.285   6.161  0.00  0.00    +0.031 C 
ENDBRANCH  27  28
ENDBRANCH  26  27
ENDBRANCH   2  26
TORSDOF 7
ENDMDL
MODEL 2
REMARK VINA RESULT:      -7.2      4.701     10.867
REMARK  Name = 56967399
REMARK  7 active torsions:
REMARK  status: ('A' for Active; 'I' for Inactive)
REMARK    1  A    between atoms: C_1  and  N_20
REMARK    2  A    between atoms: C_2  and  O_26
REMARK    3  A    between atoms: C_3  and  N_8
REMARK    4  A    between atoms: C_9  and  C_13
REMARK    5  A    between atoms: N_20  and  S_22
REMARK    6  A    between atoms: O_26  and  C_27
REMARK    7  A    between atoms: C_27  and  C_28
REMARK                            x       y       z     vdW  Elec       q    Type
REMARK                         _______ _______ _______ _____ _____    ______ ____
ROOT
ATOM      1  C   UNL     1     -37.324  23.588   0.675  0.00  0.00    +0.102 C 
ATOM      2  C   UNL     1     -35.934  23.688   0.733  0.00  0.00    +0.155 C 
ATOM      3  C   UNL     1     -35.748  21.306   0.373  0.00  0.00    +0.054 C 
ATOM      4  C   UNL     1     -35.146  22.547   0.582  0.00  0.00    +0.053 C 
ATOM      5  C   UNL     1     -37.926  22.347   0.465  0.00  0.00    +0.020 C 
ATOM      6  C   UNL     1     -37.138  21.206   0.313  0.00  0.00    +0.016 C 
ENDROOT
BRANCH   3   8
ATOM      7  O   UNL     1     -34.349  19.628   2.426  0.00  0.00    -0.270 OA
ATOM      8  N   UNL     1     -34.948  20.147   0.217  0.00  0.00    -0.280 N 
ATOM      9  C   UNL     1     -34.309  19.389   1.208  0.00  0.00    +0.250 C 
ATOM     10  H   UNL     1     -34.824  19.834  -0.707  0.00  0.00    +0.155 HD
BRANCH   9  13
ATOM     11  O   UNL     1     -30.208  16.766   0.622  0.00  0.00    -0.435 OA
ATOM     12  O   UNL     1     -31.374  14.999  -0.527  0.00  0.00    -0.435 OA
ATOM     13  C   UNL     1     -33.572  18.226   0.741  0.00  0.00    +0.057 C 
ATOM     14  C   UNL     1     -31.540  17.020   0.501  0.00  0.00    +0.177 C 
ATOM     15  C   UNL     1     -32.206  16.010  -0.157  0.00  0.00    +0.176 C 
ATOM     16  C   UNL     1     -32.196  18.142   0.962  0.00  0.00    +0.045 C 
ATOM     17  C   UNL     1     -34.253  17.195   0.069  0.00  0.00    +0.008 C 
ATOM     18  C   UNL     1     -33.565  16.068  -0.388  0.00  0.00    +0.040 C 
ATOM     19  C   UNL     1     -30.110  15.484  -0.031  0.00  0.00    +0.429 C 
ENDBRANCH   9  13
ENDBRANCH   3   8
BRANCH   1  20
ATOM     20  N   UNL     1     -38.145  24.748   0.828  0.00  0.00    -0.190 N 
ATOM     21  C   UNL     1     -38.971  25.163  -0.341  0.00  0.00    +0.139 C 
BRANCH  20  22
ATOM     22  S   UNL     1     -38.770  25.074   2.403  0.00  0.00    +0.059 S 
ATOM     23  O   UNL     1     -38.607  26.485   2.704  0.00  0.00    -0.154 OA
ATOM     24  O   UNL     1     -38.303  24.071   3.341  0.00  0.00    -0.154 OA
ATOM     25  C   UNL     1     -40.512  24.800   2.154  0.00  0.00    +0.200 C 
ENDBRANCH  20  22
ENDBRANCH   1  20
BRANCH   2  26
ATOM     26  O   UNL     1     -35.328  24.891   0.936  0.00  0.00    -0.469 OA
BRANCH  26  27
ATOM     27  C   UNL     1     -34.239  24.921   1.857  0.00  0.00    +0.232 C 
BRANCH  27  28
ATOM     28  C   UNL     1     -34.781  24.969   3.255  0.00  0.00    +0.017 C 
ATOM     29  C   UNL     1     -35.238  26.165   3.807  0.00  0.00    -0.022 C 
ATOM     30  C   UNL     1     -34.824  23.793   4.005  0.00  0.00    -0.005 C 
ATOM     31  C   UNL     1     -35.323  23.815   5.307  0.00  0.00    -0.022 C 
ATOM     32  C   UNL     1     -35.737  26.187   5.110  0.00  0.00    -0.005 C 
ATOM     33  C   UNL     1     -35.780  25.012   5.860  0.00  0.00    -0.005 C 
ATOM     34  C   UNL     1     -35.201  27.436   3.024  0.00  0.00    +0.031 C 
ATOM     35  C   UNL     1     -35.370  22.558   6.110  0.00  0.00    +0.031 C 
ENDBRANCH  27  28
ENDBRANCH  26  27
ENDBRANCH   2  26
TORSDOF 7
ENDMDL
MODEL 3
REMARK VINA RESULT:      -7.2      3.030      9.822
REMARK  Name = 56967399
REMARK  7 active torsions:
REMARK  status: ('A' for Active; 'I' for Inactive)
REMARK    1  A    between atoms: C_1  and  N_20
REMARK    2  A    between atoms: C_2  and  O_26
REMARK    3  A    between atoms: C_3  and  N_8
REMARK    4  A    between atoms: C_9  and  C_13
REMARK    5  A    between atoms: N_20  and  S_22
REMARK    6  A    between atoms: O_26  and  C_27
REMARK    7  A    between atoms: C_27  and  C_28
REMARK                            x       y       z     vdW  Elec       q    Type
REMARK                         _______ _______ _______ _____ _____    ______ ____
ROOT
ATOM      1  C   UNL     1     -44.304  28.253   3.449  0.00  0.00    +0.102 C 
ATOM      2  C   UNL     1     -43.207  28.743   4.157  0.00  0.00    +0.155 C 
ATOM      3  C   UNL     1     -41.967  26.739   3.623  0.00  0.00    +0.054 C 
ATOM      4  C   UNL     1     -42.039  27.987   4.244  0.00  0.00    +0.053 C 
ATOM      5  C   UNL     1     -44.233  27.007   2.827  0.00  0.00    +0.020 C 
ATOM      6  C   UNL     1     -43.064  26.250   2.914  0.00  0.00    +0.016 C 
ENDROOT
BRANCH   3   8
ATOM      7  O   UNL     1     -39.594  26.626   1.794  0.00  0.00    -0.270 OA
ATOM      8  N   UNL     1     -40.780  25.971   3.710  0.00  0.00    -0.280 N 
ATOM      9  C   UNL     1     -39.690  25.947   2.829  0.00  0.00    +0.250 C 
ATOM     10  H   UNL     1     -40.712  25.375   4.490  0.00  0.00    +0.155 HD
BRANCH   9  13
ATOM     11  O   UNL     1     -35.603  24.878   5.318  0.00  0.00    -0.435 OA
ATOM     12  O   UNL     1     -35.449  22.684   4.335  0.00  0.00    -0.435 OA
ATOM     13  C   UNL     1     -38.593  25.067   3.201  0.00  0.00    +0.057 C 
ATOM     14  C   UNL     1     -36.618  24.631   4.445  0.00  0.00    +0.177 C 
ATOM     15  C   UNL     1     -36.530  23.377   3.883  0.00  0.00    +0.176 C 
ATOM     16  C   UNL     1     -37.640  25.500   4.124  0.00  0.00    +0.045 C 
ATOM     17  C   UNL     1     -38.504  23.787   2.626  0.00  0.00    +0.008 C 
ATOM     18  C   UNL     1     -37.458  22.925   2.969  0.00  0.00    +0.040 C 
ATOM     19  C   UNL     1     -34.867  23.640   5.243  0.00  0.00    +0.429 C 
ENDBRANCH   9  13
ENDBRANCH   3   8
BRANCH   1  20
ATOM     20  N   UNL     1     -45.509  29.017   3.351  0.00  0.00    -0.190 N 
ATOM     21  C   UNL     1     -45.864  29.568   2.012  0.00  0.00    +0.139 C 
BRANCH  20  22
ATOM     22  S   UNL     1     -46.804  28.594   4.409  0.00  0.00    +0.059 S 
ATOM     23  O   UNL     1     -47.597  29.776   4.697  0.00  0.00    -0.154 OA
ATOM     24  O   UNL     1     -46.309  27.768   5.495  0.00  0.00    -0.154 OA
ATOM     25  C   UNL     1     -47.793  27.554   3.357  0.00  0.00    +0.200 C 
ENDBRANCH  20  22
ENDBRANCH   1  20
BRANCH   2  26
ATOM     26  O   UNL     1     -43.258  29.959   4.770  0.00  0.00    -0.469 OA
BRANCH  26  27
ATOM     27  C   UNL     1     -43.438  29.965   6.185  0.00  0.00    +0.232 C 
BRANCH  27  28
ATOM     28  C   UNL     1     -44.645  30.790   6.522  0.00  0.00    +0.017 C 
ATOM     29  C   UNL     1     -45.439  30.480   7.626  0.00  0.00    -0.022 C 
ATOM     30  C   UNL     1     -44.969  31.879   5.713  0.00  0.00    -0.005 C 
ATOM     31  C   UNL     1     -46.087  32.659   6.008  0.00  0.00    -0.022 C 
ATOM     32  C   UNL     1     -46.558  31.260   7.921  0.00  0.00    -0.005 C 
ATOM     33  C   UNL     1     -46.882  32.349   7.112  0.00  0.00    -0.005 C 
ATOM     34  C   UNL     1     -45.112  29.318   8.505  0.00  0.00    +0.031 C 
ATOM     35  C   UNL     1     -46.434  33.824   5.144  0.00  0.00    +0.031 C 
ENDBRANCH  27  28
ENDBRANCH  26  27
ENDBRANCH   2  26
TORSDOF 7
ENDMDL
MODEL 4
REMARK VINA RESULT:      -7.2      3.060      8.648
REMARK  Name = 56967399
REMARK  7 active torsions:
REMARK  status: ('A' for Active; 'I' for Inactive)
REMARK    1  A    between atoms: C_1  and  N_20
REMARK    2  A    between atoms: C_2  and  O_26
REMARK    3  A    between atoms: C_3  and  N_8
REMARK    4  A    between atoms: C_9  and  C_13
REMARK    5  A    between atoms: N_20  and  S_22
REMARK    6  A    between atoms: O_26  and  C_27
REMARK    7  A    between atoms: C_27  and  C_28
REMARK                            x       y       z     vdW  Elec       q    Type
REMARK                         _______ _______ _______ _____ _____    ______ ____
ROOT
ATOM      1  C   UNL     1     -42.962  26.309   1.911  0.00  0.00    +0.102 C 
ATOM      2  C   UNL     1     -42.707  26.551   3.261  0.00  0.00    +0.155 C 
ATOM      3  C   UNL     1     -40.345  26.222   2.872  0.00  0.00    +0.054 C 
ATOM      4  C   UNL     1     -41.398  26.508   3.741  0.00  0.00    +0.053 C 
ATOM      5  C   UNL     1     -41.909  26.024   1.042  0.00  0.00    +0.020 C 
ATOM      6  C   UNL     1     -40.600  25.981   1.523  0.00  0.00    +0.016 C 
ENDROOT
BRANCH   3   8
ATOM      7  O   UNL     1     -38.526  23.884   3.337  0.00  0.00    -0.270 OA
ATOM      8  N   UNL     1     -39.015  26.179   3.360  0.00  0.00    -0.280 N 
ATOM      9  C   UNL     1     -38.196  25.059   3.563  0.00  0.00    +0.250 C 
ATOM     10  H   UNL     1     -38.614  27.048   3.586  0.00  0.00    +0.155 HD
BRANCH   9  13
ATOM     11  O   UNL     1     -34.124  27.775   3.846  0.00  0.00    -0.435 OA
ATOM     12  O   UNL     1     -33.069  26.229   5.364  0.00  0.00    -0.435 OA
ATOM     13  C   UNL     1     -36.855  25.335   4.054  0.00  0.00    +0.057 C 
ATOM     14  C   UNL     1     -34.920  26.710   4.135  0.00  0.00    +0.177 C 
ATOM     15  C   UNL     1     -34.318  25.826   5.002  0.00  0.00    +0.176 C 
ATOM     16  C   UNL     1     -36.191  26.491   3.643  0.00  0.00    +0.045 C 
ATOM     17  C   UNL     1     -36.240  24.432   4.939  0.00  0.00    +0.008 C 
ATOM     18  C   UNL     1     -34.952  24.677   5.424  0.00  0.00    +0.040 C 
ATOM     19  C   UNL     1     -32.953  27.464   4.628  0.00  0.00    +0.429 C 
ENDBRANCH   9  13
ENDBRANCH   3   8
BRANCH   1  20
ATOM     20  N   UNL     1     -44.298  26.351   1.404  0.00  0.00    -0.190 N 
ATOM     21  C   UNL     1     -44.584  27.313   0.303  0.00  0.00    +0.139 C 
BRANCH  20  22
ATOM     22  S   UNL     1     -45.204  24.882   1.436  0.00  0.00    +0.059 S 
ATOM     23  O   UNL     1     -45.750  24.682   2.766  0.00  0.00    -0.154 OA
ATOM     24  O   UNL     1     -44.454  23.821   0.790  0.00  0.00    -0.154 OA
ATOM     25  C   UNL     1     -46.573  25.290   0.373  0.00  0.00    +0.200 C 
ENDBRANCH  20  22
ENDBRANCH   1  20
BRANCH   2  26
ATOM     26  O   UNL     1     -43.722  26.832   4.125  0.00  0.00    -0.469 OA
BRANCH  26  27
ATOM     27  C   UNL     1     -43.963  28.208   4.414  0.00  0.00    +0.232 C 
BRANCH  27  28
ATOM     28  C   UNL     1     -44.683  28.314   5.726  0.00  0.00    +0.017 C 
ATOM     29  C   UNL     1     -44.510  29.425   6.551  0.00  0.00    -0.022 C 
ATOM     30  C   UNL     1     -45.535  27.281   6.117  0.00  0.00    -0.005 C 
ATOM     31  C   UNL     1     -46.214  27.359   7.333  0.00  0.00    -0.022 C 
ATOM     32  C   UNL     1     -45.190  29.504   7.767  0.00  0.00    -0.005 C 
ATOM     33  C   UNL     1     -46.041  28.471   8.158  0.00  0.00    -0.005 C 
ATOM     34  C   UNL     1     -43.603  30.543   6.154  0.00  0.00    +0.031 C 
ATOM     35  C   UNL     1     -47.126  26.255   7.751  0.00  0.00    +0.031 C 
ENDBRANCH  27  28
ENDBRANCH  26  27
ENDBRANCH   2  26
TORSDOF 7
ENDMDL
MODEL 5
REMARK VINA RESULT:      -7.0      4.452     10.243
REMARK  Name = 56967399
REMARK  7 active torsions:
REMARK  status: ('A' for Active; 'I' for Inactive)
REMARK    1  A    between atoms: C_1  and  N_20
REMARK    2  A    between atoms: C_2  and  O_26
REMARK    3  A    between atoms: C_3  and  N_8
REMARK    4  A    between atoms: C_9  and  C_13
REMARK    5  A    between atoms: N_20  and  S_22
REMARK    6  A    between atoms: O_26  and  C_27
REMARK    7  A    between atoms: C_27  and  C_28
REMARK                            x       y       z     vdW  Elec       q    Type
REMARK                         _______ _______ _______ _____ _____    ______ ____
ROOT
ATOM      1  C   UNL     1     -38.286  24.097   0.360  0.00  0.00    +0.102 C 
ATOM      2  C   UNL     1     -37.119  24.567   0.961  0.00  0.00    +0.155 C 
ATOM      3  C   UNL     1     -35.948  22.579   0.243  0.00  0.00    +0.054 C 
ATOM      4  C   UNL     1     -35.950  23.809   0.902  0.00  0.00    +0.053 C 
ATOM      5  C   UNL     1     -38.284  22.868  -0.300  0.00  0.00    +0.020 C 
ATOM      6  C   UNL     1     -37.115  22.109  -0.359  0.00  0.00    +0.016 C 
ENDROOT
BRANCH   3   8
ATOM      7  O   UNL     1     -35.043  20.278   1.938  0.00  0.00    -0.270 OA
ATOM      8  N   UNL     1     -34.761  21.809   0.183  0.00  0.00    -0.280 N 
ATOM      9  C   UNL     1     -34.374  20.736   0.998  0.00  0.00    +0.250 C 
ATOM     10  H   UNL     1     -34.123  22.060  -0.524  0.00  0.00    +0.155 HD
BRANCH   9  13
ATOM     11  O   UNL     1     -31.126  17.068   1.180  0.00  0.00    -0.435 OA
ATOM     12  O   UNL     1     -29.531  18.270  -0.168  0.00  0.00    -0.435 OA
ATOM     13  C   UNL     1     -33.097  20.121   0.674  0.00  0.00    +0.057 C 
ATOM     14  C   UNL     1     -31.582  18.296   0.812  0.00  0.00    +0.177 C 
ATOM     15  C   UNL     1     -30.671  18.983   0.042  0.00  0.00    +0.176 C 
ATOM     16  C   UNL     1     -32.806  18.839   1.145  0.00  0.00    +0.045 C 
ATOM     17  C   UNL     1     -32.166  20.822  -0.112  0.00  0.00    +0.008 C 
ATOM     18  C   UNL     1     -30.933  20.250  -0.436  0.00  0.00    +0.040 C 
ATOM     19  C   UNL     1     -29.827  17.058   0.555  0.00  0.00    +0.429 C 
ENDBRANCH   9  13
ENDBRANCH   3   8
BRANCH   1  20
ATOM     20  N   UNL     1     -39.492  24.863   0.411  0.00  0.00    -0.190 N 
ATOM     21  C   UNL     1     -39.891  25.596  -0.824  0.00  0.00    +0.139 C 
BRANCH  20  22
ATOM     22  S   UNL     1     -40.751  24.291   1.442  0.00  0.00    +0.059 S 
ATOM     23  O   UNL     1     -40.191  23.384   2.428  0.00  0.00    -0.154 OA
ATOM     24  O   UNL     1     -41.898  23.889   0.651  0.00  0.00    -0.154 OA
ATOM     25  C   UNL     1     -41.199  25.780   2.310  0.00  0.00    +0.200 C 
ENDBRANCH  20  22
ENDBRANCH   1  20
BRANCH   2  26
ATOM     26  O   UNL     1     -37.100  25.766   1.608  0.00  0.00    -0.469 OA
BRANCH  26  27
ATOM     27  C   UNL     1     -37.521  25.773   2.971  0.00  0.00    +0.232 C 
BRANCH  27  28
ATOM     28  C   UNL     1     -36.367  25.375   3.842  0.00  0.00    +0.017 C 
ATOM     29  C   UNL     1     -35.240  26.189   3.957  0.00  0.00    -0.022 C 
ATOM     30  C   UNL     1     -36.431  24.171   4.544  0.00  0.00    -0.005 C 
ATOM     31  C   UNL     1     -35.368  23.781   5.359  0.00  0.00    -0.022 C 
ATOM     32  C   UNL     1     -34.177  25.799   4.773  0.00  0.00    -0.005 C 
ATOM     33  C   UNL     1     -34.241  24.595   5.474  0.00  0.00    -0.005 C 
ATOM     34  C   UNL     1     -35.148  27.482   3.215  0.00  0.00    +0.031 C 
ATOM     35  C   UNL     1     -35.437  22.493   6.110  0.00  0.00    +0.031 C 
ENDBRANCH  27  28
ENDBRANCH  26  27
ENDBRANCH   2  26
TORSDOF 7
ENDMDL
MODEL 6
REMARK VINA RESULT:      -7.0      3.943     10.583
REMARK  Name = 56967399
REMARK  7 active torsions:
REMARK  status: ('A' for Active; 'I' for Inactive)
REMARK    1  A    between atoms: C_1  and  N_20
REMARK    2  A    between atoms: C_2  and  O_26
REMARK    3  A    between atoms: C_3  and  N_8
REMARK    4  A    between atoms: C_9  and  C_13
REMARK    5  A    between atoms: N_20  and  S_22
REMARK    6  A    between atoms: O_26  and  C_27
REMARK    7  A    between atoms: C_27  and  C_28
REMARK                            x       y       z     vdW  Elec       q    Type
REMARK                         _______ _______ _______ _____ _____    ______ ____
ROOT
ATOM      1  C   UNL     1     -36.096  22.575   3.621  0.00  0.00    +0.102 C 
ATOM      2  C   UNL     1     -37.341  22.665   3.000  0.00  0.00    +0.155 C 
ATOM      3  C   UNL     1     -36.931  20.567   1.874  0.00  0.00    +0.054 C 
ATOM      4  C   UNL     1     -37.759  21.661   2.127  0.00  0.00    +0.053 C 
ATOM      5  C   UNL     1     -35.269  21.480   3.370  0.00  0.00    +0.020 C 
ATOM      6  C   UNL     1     -35.686  20.476   2.497  0.00  0.00    +0.016 C 
ENDROOT
BRANCH   3   8
ATOM      7  O   UNL     1     -35.882  19.781  -0.822  0.00  0.00    -0.270 OA
ATOM      8  N   UNL     1     -37.356  19.546   0.988  0.00  0.00    -0.280 N 
ATOM      9  C   UNL     1     -36.836  19.210  -0.269  0.00  0.00    +0.250 C 
ATOM     10  H   UNL     1     -38.116  19.001   1.296  0.00  0.00    +0.155 HD
BRANCH   9  13
ATOM     11  O   UNL     1     -38.809  14.722  -0.343  0.00  0.00    -0.435 OA
ATOM     12  O   UNL     1     -39.263  14.843  -2.706  0.00  0.00    -0.435 OA
ATOM     13  C   UNL     1     -37.470  18.086  -0.939  0.00  0.00    +0.057 C 
ATOM     14  C   UNL     1     -38.411  15.905  -0.886  0.00  0.00    +0.177 C 
ATOM     15  C   UNL     1     -38.669  15.974  -2.236  0.00  0.00    +0.176 C 
ATOM     16  C   UNL     1     -37.811  16.947  -0.207  0.00  0.00    +0.045 C 
ATOM     17  C   UNL     1     -37.734  18.156  -2.318  0.00  0.00    +0.008 C 
ATOM     18  C   UNL     1     -38.342  17.088  -2.982  0.00  0.00    +0.040 C 
ATOM     19  C   UNL     1     -39.348  14.055  -1.502  0.00  0.00    +0.429 C 
ENDBRANCH   9  13
ENDBRANCH   3   8
BRANCH   1  20
ATOM     20  N   UNL     1     -35.654  23.596   4.519  0.00  0.00    -0.190 N 
ATOM     21  C   UNL     1     -35.411  23.205   5.936  0.00  0.00    +0.139 C 
BRANCH  20  22
ATOM     22  S   UNL     1     -34.683  24.862   3.862  0.00  0.00    +0.059 S 
ATOM     23  O   UNL     1     -34.781  24.843   2.414  0.00  0.00    -0.154 OA
ATOM     24  O   UNL     1     -33.382  24.875   4.504  0.00  0.00    -0.154 OA
ATOM     25  C   UNL     1     -35.565  26.306   4.418  0.00  0.00    +0.200 C 
ENDBRANCH  20  22
ENDBRANCH   1  20
BRANCH   2  26
ATOM     26  O   UNL     1     -38.164  23.726   3.234  0.00  0.00    -0.469 OA
BRANCH  26  27
ATOM     27  C   UNL     1     -38.325  24.667   2.174  0.00  0.00    +0.232 C 
BRANCH  27  28
ATOM     28  C   UNL     1     -39.769  25.064   2.087  0.00  0.00    +0.017 C 
ATOM     29  C   UNL     1     -40.605  24.520   1.113  0.00  0.00    -0.022 C 
ATOM     30  C   UNL     1     -40.272  25.993   2.998  0.00  0.00    -0.005 C 
ATOM     31  C   UNL     1     -41.612  26.377   2.935  0.00  0.00    -0.022 C 
ATOM     32  C   UNL     1     -41.945  24.903   1.050  0.00  0.00    -0.005 C 
ATOM     33  C   UNL     1     -42.448  25.832   1.961  0.00  0.00    -0.005 C 
ATOM     34  C   UNL     1     -40.089  23.524   0.126  0.00  0.00    +0.031 C 
ATOM     35  C   UNL     1     -42.151  27.370   3.909  0.00  0.00    +0.031 C 
ENDBRANCH  27  28
ENDBRANCH  26  27
ENDBRANCH   2  26
TORSDOF 7
ENDMDL
MODEL 7
REMARK VINA RESULT:      -7.0      2.372      3.789
REMARK  Name = 56967399
REMARK  7 active torsions:
REMARK  status: ('A' for Active; 'I' for Inactive)
REMARK    1  A    between atoms: C_1  and  N_20
REMARK    2  A    between atoms: C_2  and  O_26
REMARK    3  A    between atoms: C_3  and  N_8
REMARK    4  A    between atoms: C_9  and  C_13
REMARK    5  A    between atoms: N_20  and  S_22
REMARK    6  A    between atoms: O_26  and  C_27
REMARK    7  A    between atoms: C_27  and  C_28
REMARK                            x       y       z     vdW  Elec       q    Type
REMARK                         _______ _______ _______ _____ _____    ______ ____
ROOT
ATOM      1  C   UNL     1     -38.065  20.585   0.295  0.00  0.00    +0.102 C 
ATOM      2  C   UNL     1     -37.613  21.417   1.319  0.00  0.00    +0.155 C 
ATOM      3  C   UNL     1     -39.719  22.601   1.287  0.00  0.00    +0.054 C 
ATOM      4  C   UNL     1     -38.440  22.425   1.815  0.00  0.00    +0.053 C 
ATOM      5  C   UNL     1     -39.344  20.761  -0.232  0.00  0.00    +0.020 C 
ATOM      6  C   UNL     1     -40.171  21.768   0.264  0.00  0.00    +0.016 C 
ENDROOT
BRANCH   3   8
ATOM      7  O   UNL     1     -40.470  25.251   0.103  0.00  0.00    -0.270 OA
ATOM      8  N   UNL     1     -40.560  23.624   1.791  0.00  0.00    -0.280 N 
ATOM      9  C   UNL     1     -40.886  24.854   1.204  0.00  0.00    +0.250 C 
ATOM     10  H   UNL     1     -40.967  23.449   2.670  0.00  0.00    +0.155 HD
BRANCH   9  13
ATOM     11  O   UNL     1     -41.911  28.418   4.411  0.00  0.00    -0.435 OA
ATOM     12  O   UNL     1     -44.288  28.126   4.140  0.00  0.00    -0.435 OA
ATOM     13  C   UNL     1     -41.804  25.693   1.956  0.00  0.00    +0.057 C 
ATOM     14  C   UNL     1     -42.213  27.433   3.521  0.00  0.00    +0.177 C 
ATOM     15  C   UNL     1     -43.570  27.266   3.367  0.00  0.00    +0.176 C 
ATOM     16  C   UNL     1     -41.303  26.661   2.828  0.00  0.00    +0.045 C 
ATOM     17  C   UNL     1     -43.191  25.522   1.799  0.00  0.00    +0.008 C 
ATOM     18  C   UNL     1     -44.092  26.317   2.512  0.00  0.00    +0.040 C 
ATOM     19  C   UNL     1     -43.230  28.853   4.798  0.00  0.00    +0.429 C 
ENDBRANCH   9  13
ENDBRANCH   3   8
BRANCH   1  20
ATOM     20  N   UNL     1     -37.229  19.547  -0.223  0.00  0.00    -0.190 N 
ATOM     21  C   UNL     1     -37.827  18.189  -0.358  0.00  0.00    +0.139 C 
BRANCH  20  22
ATOM     22  S   UNL     1     -36.015  20.003  -1.361  0.00  0.00    +0.059 S 
ATOM     23  O   UNL     1     -34.707  19.893  -0.741  0.00  0.00    -0.154 OA
ATOM     24  O   UNL     1     -36.400  21.228  -2.036  0.00  0.00    -0.154 OA
ATOM     25  C   UNL     1     -36.133  18.682  -2.549  0.00  0.00    +0.200 C 
ENDBRANCH  20  22
ENDBRANCH   1  20
BRANCH   2  26
ATOM     26  O   UNL     1     -36.367  21.260   1.849  0.00  0.00    -0.469 OA
BRANCH  26  27
ATOM     27  C   UNL     1     -35.443  22.330   1.660  0.00  0.00    +0.232 C 
BRANCH  27  28
ATOM     28  C   UNL     1     -35.192  23.000   2.978  0.00  0.00    +0.017 C 
ATOM     29  C   UNL     1     -34.729  24.314   3.038  0.00  0.00    -0.022 C 
ATOM     30  C   UNL     1     -35.429  22.290   4.155  0.00  0.00    -0.005 C 
ATOM     31  C   UNL     1     -35.202  22.894   5.392  0.00  0.00    -0.022 C 
ATOM     32  C   UNL     1     -34.502  24.918   4.275  0.00  0.00    -0.005 C 
ATOM     33  C   UNL     1     -34.738  24.208   5.452  0.00  0.00    -0.005 C 
ATOM     34  C   UNL     1     -34.468  25.094   1.792  0.00  0.00    +0.031 C 
ATOM     35  C   UNL     1     -35.455  22.134   6.651  0.00  0.00    +0.031 C 
ENDBRANCH  27  28
ENDBRANCH  26  27
ENDBRANCH   2  26
TORSDOF 7
ENDMDL
MODEL 8
REMARK VINA RESULT:      -6.9      5.976      7.558
REMARK  Name = 56967399
REMARK  7 active torsions:
REMARK  status: ('A' for Active; 'I' for Inactive)
REMARK    1  A    between atoms: C_1  and  N_20
REMARK    2  A    between atoms: C_2  and  O_26
REMARK    3  A    between atoms: C_3  and  N_8
REMARK    4  A    between atoms: C_9  and  C_13
REMARK    5  A    between atoms: N_20  and  S_22
REMARK    6  A    between atoms: O_26  and  C_27
REMARK    7  A    between atoms: C_27  and  C_28
REMARK                            x       y       z     vdW  Elec       q    Type
REMARK                         _______ _______ _______ _____ _____    ______ ____
ROOT
ATOM      1  C   UNL     1     -32.889  29.019   3.748  0.00  0.00    +0.102 C 
ATOM      2  C   UNL     1     -34.094  28.379   3.462  0.00  0.00    +0.155 C 
ATOM      3  C   UNL     1     -35.087  30.506   2.888  0.00  0.00    +0.054 C 
ATOM      4  C   UNL     1     -35.194  29.122   3.032  0.00  0.00    +0.053 C 
ATOM      5  C   UNL     1     -32.782  30.402   3.603  0.00  0.00    +0.020 C 
ATOM      6  C   UNL     1     -33.881  31.146   3.173  0.00  0.00    +0.016 C 
ENDROOT
BRANCH   3   8
ATOM      7  O   UNL     1     -36.392  30.650   0.193  0.00  0.00    -0.270 OA
ATOM      8  N   UNL     1     -36.203  31.261   2.450  0.00  0.00    -0.280 N 
ATOM      9  C   UNL     1     -36.784  31.301   1.175  0.00  0.00    +0.250 C 
ATOM     10  H   UNL     1     -36.625  31.834   3.130  0.00  0.00    +0.155 HD
BRANCH   9  13
ATOM     11  O   UNL     1     -39.557  35.138   2.452  0.00  0.00    -0.435 OA
ATOM     12  O   UNL     1     -41.189  34.663   0.745  0.00  0.00    -0.435 OA
ATOM     13  C   UNL     1     -37.948  32.160   1.035  0.00  0.00    +0.057 C 
ATOM     14  C   UNL     1     -39.231  34.039   1.717  0.00  0.00    +0.177 C 
ATOM     15  C   UNL     1     -40.164  33.767   0.742  0.00  0.00    +0.176 C 
ATOM     16  C   UNL     1     -38.111  33.252   1.889  0.00  0.00    +0.045 C 
ATOM     17  C   UNL     1     -38.901  31.882   0.039  0.00  0.00    +0.008 C 
ATOM     18  C   UNL     1     -40.028  32.695  -0.114  0.00  0.00    +0.040 C 
ATOM     19  C   UNL     1     -40.798  35.528   1.830  0.00  0.00    +0.429 C 
ENDBRANCH   9  13
ENDBRANCH   3   8
BRANCH   1  20
ATOM     20  N   UNL     1     -31.753  28.271   4.189  0.00  0.00    -0.190 N 
ATOM     21  C   UNL     1     -30.656  28.046   3.206  0.00  0.00    +0.139 C 
BRANCH  20  22
ATOM     22  S   UNL     1     -31.320  28.397   5.855  0.00  0.00    +0.059 S 
ATOM     23  O   UNL     1     -31.570  29.750   6.317  0.00  0.00    -0.154 OA
ATOM     24  O   UNL     1     -30.027  27.779   6.080  0.00  0.00    -0.154 OA
ATOM     25  C   UNL     1     -32.548  27.358   6.617  0.00  0.00    +0.200 C 
ENDBRANCH  20  22
ENDBRANCH   1  20
BRANCH   2  26
ATOM     26  O   UNL     1     -34.218  27.029   3.596  0.00  0.00    -0.469 OA
BRANCH  26  27
ATOM     27  C   UNL     1     -35.455  26.539   4.109  0.00  0.00    +0.232 C 
BRANCH  27  28
ATOM     28  C   UNL     1     -35.465  25.042   4.019  0.00  0.00    +0.017 C 
ATOM     29  C   UNL     1     -35.639  24.398   2.793  0.00  0.00    -0.022 C 
ATOM     30  C   UNL     1     -35.297  24.291   5.182  0.00  0.00    -0.005 C 
ATOM     31  C   UNL     1     -35.303  22.897   5.121  0.00  0.00    -0.022 C 
ATOM     32  C   UNL     1     -35.645  23.004   2.732  0.00  0.00    -0.005 C 
ATOM     33  C   UNL     1     -35.477  22.254   3.895  0.00  0.00    -0.005 C 
ATOM     34  C   UNL     1     -35.821  25.180   1.534  0.00  0.00    +0.031 C 
ATOM     35  C   UNL     1     -35.123  22.094   6.365  0.00  0.00    +0.031 C 
ENDBRANCH  27  28
ENDBRANCH  26  27
ENDBRANCH   2  26
TORSDOF 7
ENDMDL
MODEL 9
REMARK VINA RESULT:      -6.9      2.815      8.954
REMARK  Name = 56967399
REMARK  7 active torsions:
REMARK  status: ('A' for Active; 'I' for Inactive)
REMARK    1  A    between atoms: C_1  and  N_20
REMARK    2  A    between atoms: C_2  and  O_26
REMARK    3  A    between atoms: C_3  and  N_8
REMARK    4  A    between atoms: C_9  and  C_13
REMARK    5  A    between atoms: N_20  and  S_22
REMARK    6  A    between atoms: O_26  and  C_27
REMARK    7  A    between atoms: C_27  and  C_28
REMARK                            x       y       z     vdW  Elec       q    Type
REMARK                         _______ _______ _______ _____ _____    ______ ____
ROOT
ATOM      1  C   UNL     1     -43.539  26.347   2.238  0.00  0.00    +0.102 C 
ATOM      2  C   UNL     1     -42.972  26.995   3.335  0.00  0.00    +0.155 C 
ATOM      3  C   UNL     1     -40.853  25.932   2.870  0.00  0.00    +0.054 C 
ATOM      4  C   UNL     1     -41.629  26.788   3.651  0.00  0.00    +0.053 C 
ATOM      5  C   UNL     1     -42.762  25.491   1.457  0.00  0.00    +0.020 C 
ATOM      6  C   UNL     1     -41.419  25.284   1.772  0.00  0.00    +0.016 C 
ENDROOT
BRANCH   3   8
ATOM      7  O   UNL     1     -39.268  23.392   3.027  0.00  0.00    -0.270 OA
ATOM      8  N   UNL     1     -39.489  25.722   3.190  0.00  0.00    -0.280 N 
ATOM      9  C   UNL     1     -38.783  24.512   3.253  0.00  0.00    +0.250 C 
ATOM     10  H   UNL     1     -38.968  26.531   3.395  0.00  0.00    +0.155 HD
BRANCH   9  13
ATOM     11  O   UNL     1     -34.887  26.886   5.048  0.00  0.00    -0.435 OA
ATOM     12  O   UNL     1     -33.410  25.043   4.574  0.00  0.00    -0.435 OA
ATOM     13  C   UNL     1     -37.372  24.617   3.586  0.00  0.00    +0.057 C 
ATOM     14  C   UNL     1     -35.538  25.837   4.475  0.00  0.00    +0.177 C 
ATOM     15  C   UNL     1     -34.694  24.784   4.203  0.00  0.00    +0.176 C 
ATOM     16  C   UNL     1     -36.884  25.784   4.177  0.00  0.00    +0.045 C 
ATOM     17  C   UNL     1     -36.510  23.542   3.308  0.00  0.00    +0.008 C 
ATOM     18  C   UNL     1     -35.150  23.621   3.619  0.00  0.00    +0.040 C 
ATOM     19  C   UNL     1     -33.540  26.376   5.108  0.00  0.00    +0.429 C 
ENDBRANCH   9  13
ENDBRANCH   3   8
BRANCH   1  20
ATOM     20  N   UNL     1     -44.913  26.549   1.902  0.00  0.00    -0.190 N 
ATOM     21  C   UNL     1     -45.209  27.308   0.653  0.00  0.00    +0.139 C 
BRANCH  20  22
ATOM     22  S   UNL     1     -46.034  25.327   2.378  0.00  0.00    +0.059 S 
ATOM     23  O   UNL     1     -45.924  25.104   3.809  0.00  0.00    -0.154 OA
ATOM     24  O   UNL     1     -45.967  24.206   1.460  0.00  0.00    -0.154 OA
ATOM     25  C   UNL     1     -47.589  26.149   2.103  0.00  0.00    +0.200 C 
ENDBRANCH  20  22
ENDBRANCH   1  20
BRANCH   2  26
ATOM     26  O   UNL     1     -43.714  27.836   4.109  0.00  0.00    -0.469 OA
BRANCH  26  27
ATOM     27  C   UNL     1     -43.728  29.214   3.740  0.00  0.00    +0.232 C 
BRANCH  27  28
ATOM     28  C   UNL     1     -44.310  30.017   4.865  0.00  0.00    +0.017 C 
ATOM     29  C   UNL     1     -45.385  30.880   4.649  0.00  0.00    -0.022 C 
ATOM     30  C   UNL     1     -43.761  29.893   6.141  0.00  0.00    -0.005 C 
ATOM     31  C   UNL     1     -44.287  30.631   7.202  0.00  0.00    -0.022 C 
ATOM     32  C   UNL     1     -45.911  31.618   5.710  0.00  0.00    -0.005 C 
ATOM     33  C   UNL     1     -45.362  31.493   6.986  0.00  0.00    -0.005 C 
ATOM     34  C   UNL     1     -45.989  31.030   3.292  0.00  0.00    +0.031 C 
ATOM     35  C   UNL     1     -43.700  30.498   8.567  0.00  0.00    +0.031 C 
ENDBRANCH  27  28
ENDBRANCH  26  27
ENDBRANCH   2  26
TORSDOF 7
ENDMDL
