MODEL 1
REMARK VINA RESULT:      -6.0      0.000      0.000
REMARK  Name = 193651
REMARK  7 active torsions:
REMARK  status: ('A' for Active; 'I' for Inactive)
REMARK    1  A    between atoms: C_2  and  O_7
REMARK    2  A    between atoms: C_3  and  O_9
REMARK    3  A    between atoms: C_4  and  O_11
REMARK    4  A    between atoms: C_5  and  C_22
REMARK    5  A    between atoms: C_6  and  N_13
REMARK    6  A    between atoms: N_13  and  C_15
REMARK    7  A    between atoms: C_22  and  O_23
REMARK                            x       y       z     vdW  Elec       q    Type
REMARK                         _______ _______ _______ _____ _____    ______ ____
ROOT
ATOM      1  O   UNL     1     -35.785  23.113   3.661  0.00  0.00    -0.333 OA
ATOM      2  C   UNL     1     -37.044  25.653   3.227  0.00  0.00    +0.171 C 
ATOM      3  C   UNL     1     -36.784  25.101   4.630  0.00  0.00    +0.169 C 
ATOM      4  C   UNL     1     -37.089  24.536   2.183  0.00  0.00    +0.186 C 
ATOM      5  C   UNL     1     -35.579  24.154   4.619  0.00  0.00    +0.175 C 
ATOM      6  C   UNL     1     -35.886  23.606   2.328  0.00  0.00    +0.219 C 
ENDROOT
BRANCH   2   7
ATOM      7  O   UNL     1     -38.287  26.357   3.217  0.00  0.00    -0.379 OA
ATOM      8  H   UNL     1     -38.411  26.783   2.355  0.00  0.00    +0.211 HD
ENDBRANCH   2   7
BRANCH   3   9
ATOM      9  O   UNL     1     -36.543  26.203   5.502  0.00  0.00    -0.379 OA
ATOM     10  H   UNL     1     -35.661  26.566   5.326  0.00  0.00    +0.211 HD
ENDBRANCH   3   9
BRANCH   4  11
ATOM     11  O   UNL     1     -37.070  25.118   0.880  0.00  0.00    -0.378 OA
ATOM     12  H   UNL     1     -37.546  25.963   0.897  0.00  0.00    +0.211 HD
ENDBRANCH   4  11
BRANCH   6  13
ATOM     13  N   UNL     1     -36.003  22.465   1.454  0.00  0.00    -0.309 N 
ATOM     14  H   UNL     1     -36.862  22.313   0.999  0.00  0.00    +0.149 HD
BRANCH  13  15
ATOM     15  C   UNL     1     -34.971  21.573   1.218  0.00  0.00    +0.046 C 
ATOM     16  C   UNL     1     -34.954  20.307   1.833  0.00  0.00    +0.014 C 
ATOM     17  C   UNL     1     -33.909  21.907   0.354  0.00  0.00    +0.014 C 
ATOM     18  C   UNL     1     -33.914  19.408   1.595  0.00  0.00    -0.003 C 
ATOM     19  C   UNL     1     -32.870  21.008   0.116  0.00  0.00    -0.003 C 
ATOM     20  C   UNL     1     -32.872  19.758   0.736  0.00  0.00    -0.022 C 
ATOM     21  C   UNL     1     -31.760  18.798   0.483  0.00  0.00    +0.031 C 
ENDBRANCH  13  15
ENDBRANCH   6  13
BRANCH   5  22
ATOM     22  C   UNL     1     -35.361  23.484   5.973  0.00  0.00    +0.169 C 
BRANCH  22  23
ATOM     23  O   UNL     1     -36.139  22.301   6.022  0.00  0.00    -0.379 OA
ATOM     24  H   UNL     1     -35.553  21.531   6.064  0.00  0.00    +0.211 HD
ENDBRANCH  22  23
ENDBRANCH   5  22
TORSDOF 7
ENDMDL
MODEL 2
REMARK VINA RESULT:      -6.0      2.903      5.552
REMARK  Name = 193651
REMARK  7 active torsions:
REMARK  status: ('A' for Active; 'I' for Inactive)
REMARK    1  A    between atoms: C_2  and  O_7
REMARK    2  A    between atoms: C_3  and  O_9
REMARK    3  A    between atoms: C_4  and  O_11
REMARK    4  A    between atoms: C_5  and  C_22
REMARK    5  A    between atoms: C_6  and  N_13
REMARK    6  A    between atoms: N_13  and  C_15
REMARK    7  A    between atoms: C_22  and  O_23
REMARK                            x       y       z     vdW  Elec       q    Type
REMARK                         _______ _______ _______ _____ _____    ______ ____
ROOT
ATOM      1  O   UNL     1     -36.762  23.366   2.509  0.00  0.00    -0.333 OA
ATOM      2  C   UNL     1     -39.629  23.304   2.462  0.00  0.00    +0.171 C 
ATOM      3  C   UNL     1     -38.781  22.143   1.941  0.00  0.00    +0.169 C 
ATOM      4  C   UNL     1     -38.846  24.618   2.462  0.00  0.00    +0.186 C 
ATOM      5  C   UNL     1     -37.424  22.107   2.654  0.00  0.00    +0.175 C 
ATOM      6  C   UNL     1     -37.478  24.437   3.118  0.00  0.00    +0.219 C 
ENDROOT
BRANCH   2   7
ATOM      7  O   UNL     1     -40.790  23.449   1.643  0.00  0.00    -0.379 OA
ATOM      8  H   UNL     1     -40.942  24.389   1.459  0.00  0.00    +0.211 HD
ENDBRANCH   2   7
BRANCH   3   9
ATOM      9  O   UNL     1     -39.497  20.933   2.172  0.00  0.00    -0.379 OA
ATOM     10  H   UNL     1     -39.416  20.683   3.105  0.00  0.00    +0.211 HD
ENDBRANCH   3   9
BRANCH   4  11
ATOM     11  O   UNL     1     -39.582  25.598   3.192  0.00  0.00    -0.378 OA
ATOM     12  H   UNL     1     -40.396  25.815   2.711  0.00  0.00    +0.211 HD
ENDBRANCH   4  11
BRANCH   6  13
ATOM     13  N   UNL     1     -36.674  25.626   2.981  0.00  0.00    -0.309 N 
ATOM     14  H   UNL     1     -36.841  26.215   2.210  0.00  0.00    +0.149 HD
BRANCH  13  15
ATOM     15  C   UNL     1     -35.682  25.986   3.876  0.00  0.00    +0.046 C 
ATOM     16  C   UNL     1     -35.722  25.553   5.215  0.00  0.00    +0.014 C 
ATOM     17  C   UNL     1     -34.603  26.797   3.472  0.00  0.00    +0.014 C 
ATOM     18  C   UNL     1     -34.722  25.916   6.117  0.00  0.00    -0.003 C 
ATOM     19  C   UNL     1     -33.603  27.160   4.375  0.00  0.00    -0.003 C 
ATOM     20  C   UNL     1     -33.663  26.720   5.697  0.00  0.00    -0.022 C 
ATOM     21  C   UNL     1     -32.594  27.110   6.662  0.00  0.00    +0.031 C 
ENDBRANCH  13  15
ENDBRANCH   6  13
BRANCH   5  22
ATOM     22  C   UNL     1     -36.498  21.041   2.077  0.00  0.00    +0.169 C 
BRANCH  22  23
ATOM     23  O   UNL     1     -36.809  19.798   2.682  0.00  0.00    -0.379 OA
ATOM     24  H   UNL     1     -36.359  19.734   3.538  0.00  0.00    +0.211 HD
ENDBRANCH  22  23
ENDBRANCH   5  22
TORSDOF 7
ENDMDL
MODEL 3
REMARK VINA RESULT:      -5.9      2.034      3.082
REMARK  Name = 193651
REMARK  7 active torsions:
REMARK  status: ('A' for Active; 'I' for Inactive)
REMARK    1  A    between atoms: C_2  and  O_7
REMARK    2  A    between atoms: C_3  and  O_9
REMARK    3  A    between atoms: C_4  and  O_11
REMARK    4  A    between atoms: C_5  and  C_22
REMARK    5  A    between atoms: C_6  and  N_13
REMARK    6  A    between atoms: N_13  and  C_15
REMARK    7  A    between atoms: C_22  and  O_23
REMARK                            x       y       z     vdW  Elec       q    Type
REMARK                         _______ _______ _______ _____ _____    ______ ____
ROOT
ATOM      1  O   UNL     1     -34.736  23.058   2.136  0.00  0.00    -0.333 OA
ATOM      2  C   UNL     1     -35.788  21.769   4.473  0.00  0.00    +0.171 C 
ATOM      3  C   UNL     1     -34.967  23.057   4.553  0.00  0.00    +0.169 C 
ATOM      4  C   UNL     1     -35.505  21.001   3.181  0.00  0.00    +0.186 C 
ATOM      5  C   UNL     1     -35.107  23.864   3.257  0.00  0.00    +0.175 C 
ATOM      6  C   UNL     1     -35.586  21.927   1.968  0.00  0.00    +0.219 C 
ENDROOT
BRANCH   2   7
ATOM      7  O   UNL     1     -35.476  20.937   5.592  0.00  0.00    -0.379 OA
ATOM      8  H   UNL     1     -35.835  21.333   6.400  0.00  0.00    +0.211 HD
ENDBRANCH   2   7
BRANCH   3   9
ATOM      9  O   UNL     1     -35.438  23.814   5.664  0.00  0.00    -0.379 OA
ATOM     10  H   UNL     1     -36.115  23.306   6.138  0.00  0.00    +0.211 HD
ENDBRANCH   3   9
BRANCH   4  11
ATOM     11  O   UNL     1     -36.474  19.963   3.036  0.00  0.00    -0.378 OA
ATOM     12  H   UNL     1     -36.554  19.725   2.099  0.00  0.00    +0.211 HD
ENDBRANCH   4  11
BRANCH   6  13
ATOM     13  N   UNL     1     -35.168  21.248   0.767  0.00  0.00    -0.309 N 
ATOM     14  H   UNL     1     -35.786  21.234   0.000  0.00  0.00    +0.149 HD
BRANCH  13  15
ATOM     15  C   UNL     1     -33.944  20.617   0.631  0.00  0.00    +0.046 C 
ATOM     16  C   UNL     1     -33.719  19.345   1.193  0.00  0.00    +0.014 C 
ATOM     17  C   UNL     1     -32.889  21.228  -0.074  0.00  0.00    +0.014 C 
ATOM     18  C   UNL     1     -32.485  18.709   1.056  0.00  0.00    -0.003 C 
ATOM     19  C   UNL     1     -31.655  20.592  -0.211  0.00  0.00    -0.003 C 
ATOM     20  C   UNL     1     -31.453  19.332   0.354  0.00  0.00    -0.022 C 
ATOM     21  C   UNL     1     -30.133  18.653   0.209  0.00  0.00    +0.031 C 
ENDBRANCH  13  15
ENDBRANCH   6  13
BRANCH   5  22
ATOM     22  C   UNL     1     -34.207  25.095   3.245  0.00  0.00    +0.169 C 
BRANCH  22  23
ATOM     23  O   UNL     1     -33.319  25.016   4.345  0.00  0.00    -0.379 OA
ATOM     24  H   UNL     1     -33.775  24.614   5.100  0.00  0.00    +0.211 HD
ENDBRANCH  22  23
ENDBRANCH   5  22
TORSDOF 7
ENDMDL
MODEL 4
REMARK VINA RESULT:      -5.9      1.241      2.885
REMARK  Name = 193651
REMARK  7 active torsions:
REMARK  status: ('A' for Active; 'I' for Inactive)
REMARK    1  A    between atoms: C_2  and  O_7
REMARK    2  A    between atoms: C_3  and  O_9
REMARK    3  A    between atoms: C_4  and  O_11
REMARK    4  A    between atoms: C_5  and  C_22
REMARK    5  A    between atoms: C_6  and  N_13
REMARK    6  A    between atoms: N_13  and  C_15
REMARK    7  A    between atoms: C_22  and  O_23
REMARK                            x       y       z     vdW  Elec       q    Type
REMARK                         _______ _______ _______ _____ _____    ______ ____
ROOT
ATOM      1  O   UNL     1     -37.397  23.677   2.628  0.00  0.00    -0.333 OA
ATOM      2  C   UNL     1     -35.932  23.960   5.078  0.00  0.00    +0.171 C 
ATOM      3  C   UNL     1     -36.464  25.167   4.302  0.00  0.00    +0.169 C 
ATOM      4  C   UNL     1     -35.773  22.736   4.174  0.00  0.00    +0.186 C 
ATOM      5  C   UNL     1     -37.703  24.777   3.488  0.00  0.00    +0.175 C 
ATOM      6  C   UNL     1     -37.036  22.501   3.347  0.00  0.00    +0.219 C 
ENDROOT
BRANCH   2   7
ATOM      7  O   UNL     1     -34.666  24.287   5.654  0.00  0.00    -0.379 OA
ATOM      8  H   UNL     1     -34.428  23.617   6.313  0.00  0.00    +0.211 HD
ENDBRANCH   2   7
BRANCH   3   9
ATOM      9  O   UNL     1     -36.787  26.189   5.241  0.00  0.00    -0.379 OA
ATOM     10  H   UNL     1     -36.146  26.913   5.163  0.00  0.00    +0.211 HD
ENDBRANCH   3   9
BRANCH   4  11
ATOM     11  O   UNL     1     -35.531  21.588   4.985  0.00  0.00    -0.378 OA
ATOM     12  H   UNL     1     -35.138  21.865   5.828  0.00  0.00    +0.211 HD
ENDBRANCH   4  11
BRANCH   6  13
ATOM     13  N   UNL     1     -36.838  21.449   2.382  0.00  0.00    -0.309 N 
ATOM     14  H   UNL     1     -37.603  20.870   2.160  0.00  0.00    +0.149 HD
BRANCH  13  15
ATOM     15  C   UNL     1     -35.631  21.210   1.748  0.00  0.00    +0.046 C 
ATOM     16  C   UNL     1     -34.939  19.999   1.941  0.00  0.00    +0.014 C 
ATOM     17  C   UNL     1     -35.062  22.172   0.889  0.00  0.00    +0.014 C 
ATOM     18  C   UNL     1     -33.723  19.758   1.302  0.00  0.00    -0.003 C 
ATOM     19  C   UNL     1     -33.846  21.930   0.250  0.00  0.00    -0.003 C 
ATOM     20  C   UNL     1     -33.176  20.724   0.456  0.00  0.00    -0.022 C 
ATOM     21  C   UNL     1     -31.875  20.467  -0.227  0.00  0.00    +0.031 C 
ENDBRANCH  13  15
ENDBRANCH   6  13
BRANCH   5  22
ATOM     22  C   UNL     1     -38.193  25.919   2.603  0.00  0.00    +0.169 C 
BRANCH  22  23
ATOM     23  O   UNL     1     -39.241  26.594   3.276  0.00  0.00    -0.379 OA
ATOM     24  H   UNL     1     -39.872  25.945   3.624  0.00  0.00    +0.211 HD
ENDBRANCH  22  23
ENDBRANCH   5  22
TORSDOF 7
ENDMDL
MODEL 5
REMARK VINA RESULT:      -5.9      1.243      3.059
REMARK  Name = 193651
REMARK  7 active torsions:
REMARK  status: ('A' for Active; 'I' for Inactive)
REMARK    1  A    between atoms: C_2  and  O_7
REMARK    2  A    between atoms: C_3  and  O_9
REMARK    3  A    between atoms: C_4  and  O_11
REMARK    4  A    between atoms: C_5  and  C_22
REMARK    5  A    between atoms: C_6  and  N_13
REMARK    6  A    between atoms: N_13  and  C_15
REMARK    7  A    between atoms: C_22  and  O_23
REMARK                            x       y       z     vdW  Elec       q    Type
REMARK                         _______ _______ _______ _____ _____    ______ ____
ROOT
ATOM      1  O   UNL     1     -37.382  23.660   2.648  0.00  0.00    -0.333 OA
ATOM      2  C   UNL     1     -35.906  23.972   5.087  0.00  0.00    +0.171 C 
ATOM      3  C   UNL     1     -36.450  25.169   4.306  0.00  0.00    +0.169 C 
ATOM      4  C   UNL     1     -35.743  22.743   4.193  0.00  0.00    +0.186 C 
ATOM      5  C   UNL     1     -37.691  24.765   3.501  0.00  0.00    +0.175 C 
ATOM      6  C   UNL     1     -37.009  22.492   3.375  0.00  0.00    +0.219 C 
ENDROOT
BRANCH   2   7
ATOM      7  O   UNL     1     -34.639  24.312   5.654  0.00  0.00    -0.379 OA
ATOM      8  H   UNL     1     -34.694  24.263   6.621  0.00  0.00    +0.211 HD
ENDBRANCH   2   7
BRANCH   3   9
ATOM      9  O   UNL     1     -36.775  26.197   5.238  0.00  0.00    -0.379 OA
ATOM     10  H   UNL     1     -36.458  25.945   6.119  0.00  0.00    +0.211 HD
ENDBRANCH   3   9
BRANCH   4  11
ATOM     11  O   UNL     1     -35.489  21.602   5.012  0.00  0.00    -0.378 OA
ATOM     12  H   UNL     1     -35.492  21.868   5.945  0.00  0.00    +0.211 HD
ENDBRANCH   4  11
BRANCH   6  13
ATOM     13  N   UNL     1     -36.808  21.434   2.417  0.00  0.00    -0.309 N 
ATOM     14  H   UNL     1     -37.568  20.842   2.211  0.00  0.00    +0.149 HD
BRANCH  13  15
ATOM     15  C   UNL     1     -35.607  21.206   1.768  0.00  0.00    +0.046 C 
ATOM     16  C   UNL     1     -35.034  22.190   0.939  0.00  0.00    +0.014 C 
ATOM     17  C   UNL     1     -34.924  19.983   1.919  0.00  0.00    +0.014 C 
ATOM     18  C   UNL     1     -33.824  21.960   0.285  0.00  0.00    -0.003 C 
ATOM     19  C   UNL     1     -33.713  19.754   1.265  0.00  0.00    -0.003 C 
ATOM     20  C   UNL     1     -33.163  20.742   0.448  0.00  0.00    -0.022 C 
ATOM     21  C   UNL     1     -31.869  20.496  -0.252  0.00  0.00    +0.031 C 
ENDBRANCH  13  15
ENDBRANCH   6  13
BRANCH   5  22
ATOM     22  C   UNL     1     -38.193  25.896   2.609  0.00  0.00    +0.169 C 
BRANCH  22  23
ATOM     23  O   UNL     1     -39.232  26.579   3.289  0.00  0.00    -0.379 OA
ATOM     24  H   UNL     1     -39.867  26.925   2.644  0.00  0.00    +0.211 HD
ENDBRANCH  22  23
ENDBRANCH   5  22
TORSDOF 7
ENDMDL
MODEL 6
REMARK VINA RESULT:      -5.9      1.827      2.689
REMARK  Name = 193651
REMARK  7 active torsions:
REMARK  status: ('A' for Active; 'I' for Inactive)
REMARK    1  A    between atoms: C_2  and  O_7
REMARK    2  A    between atoms: C_3  and  O_9
REMARK    3  A    between atoms: C_4  and  O_11
REMARK    4  A    between atoms: C_5  and  C_22
REMARK    5  A    between atoms: C_6  and  N_13
REMARK    6  A    between atoms: N_13  and  C_15
REMARK    7  A    between atoms: C_22  and  O_23
REMARK                            x       y       z     vdW  Elec       q    Type
REMARK                         _______ _______ _______ _____ _____    ______ ____
ROOT
ATOM      1  O   UNL     1     -35.240  21.091   3.556  0.00  0.00    -0.333 OA
ATOM      2  C   UNL     1     -36.907  22.991   2.202  0.00  0.00    +0.171 C 
ATOM      3  C   UNL     1     -36.864  22.887   3.728  0.00  0.00    +0.169 C 
ATOM      4  C   UNL     1     -36.452  21.692   1.536  0.00  0.00    +0.186 C 
ATOM      5  C   UNL     1     -35.507  22.344   4.190  0.00  0.00    +0.175 C 
ATOM      6  C   UNL     1     -35.137  21.202   2.140  0.00  0.00    +0.219 C 
ENDROOT
BRANCH   2   7
ATOM      7  O   UNL     1     -38.240  23.291   1.784  0.00  0.00    -0.379 OA
ATOM      8  H   UNL     1     -38.686  23.809   2.472  0.00  0.00    +0.211 HD
ENDBRANCH   2   7
BRANCH   3   9
ATOM      9  O   UNL     1     -37.091  24.186   4.267  0.00  0.00    -0.379 OA
ATOM     10  H   UNL     1     -36.949  24.852   3.576  0.00  0.00    +0.211 HD
ENDBRANCH   3   9
BRANCH   4  11
ATOM     11  O   UNL     1     -36.261  21.926   0.141  0.00  0.00    -0.378 OA
ATOM     12  H   UNL     1     -35.314  21.894  -0.065  0.00  0.00    +0.211 HD
ENDBRANCH   4  11
BRANCH   6  13
ATOM     13  N   UNL     1     -34.783  19.901   1.630  0.00  0.00    -0.309 N 
ATOM     14  H   UNL     1     -35.479  19.205   1.606  0.00  0.00    +0.149 HD
BRANCH  13  15
ATOM     15  C   UNL     1     -33.519  19.576   1.170  0.00  0.00    +0.046 C 
ATOM     16  C   UNL     1     -32.804  20.457   0.336  0.00  0.00    +0.014 C 
ATOM     17  C   UNL     1     -32.911  18.355   1.524  0.00  0.00    +0.014 C 
ATOM     18  C   UNL     1     -31.529  20.130  -0.128  0.00  0.00    -0.003 C 
ATOM     19  C   UNL     1     -31.637  18.029   1.060  0.00  0.00    -0.003 C 
ATOM     20  C   UNL     1     -30.946  18.916   0.234  0.00  0.00    -0.022 C 
ATOM     21  C   UNL     1     -29.584  18.565  -0.262  0.00  0.00    +0.031 C 
ENDBRANCH  13  15
ENDBRANCH   6  13
BRANCH   5  22
ATOM     22  C   UNL     1     -35.465  22.107   5.696  0.00  0.00    +0.169 C 
BRANCH  22  23
ATOM     23  O   UNL     1     -35.409  20.711   5.932  0.00  0.00    -0.379 OA
ATOM     24  H   UNL     1     -34.520  20.469   6.234  0.00  0.00    +0.211 HD
ENDBRANCH  22  23
ENDBRANCH   5  22
TORSDOF 7
ENDMDL
MODEL 7
REMARK VINA RESULT:      -5.9      1.192      1.390
REMARK  Name = 193651
REMARK  7 active torsions:
REMARK  status: ('A' for Active; 'I' for Inactive)
REMARK    1  A    between atoms: C_2  and  O_7
REMARK    2  A    between atoms: C_3  and  O_9
REMARK    3  A    between atoms: C_4  and  O_11
REMARK    4  A    between atoms: C_5  and  C_22
REMARK    5  A    between atoms: C_6  and  N_13
REMARK    6  A    between atoms: N_13  and  C_15
REMARK    7  A    between atoms: C_22  and  O_23
REMARK                            x       y       z     vdW  Elec       q    Type
REMARK                         _______ _______ _______ _____ _____    ______ ____
ROOT
ATOM      1  O   UNL     1     -35.415  23.185   3.274  0.00  0.00    -0.333 OA
ATOM      2  C   UNL     1     -37.780  24.802   3.405  0.00  0.00    +0.171 C 
ATOM      3  C   UNL     1     -36.685  24.872   4.471  0.00  0.00    +0.169 C 
ATOM      4  C   UNL     1     -37.748  23.471   2.652  0.00  0.00    +0.186 C 
ATOM      5  C   UNL     1     -35.329  24.480   3.873  0.00  0.00    +0.175 C 
ATOM      6  C   UNL     1     -36.331  23.144   2.183  0.00  0.00    +0.219 C 
ENDROOT
BRANCH   2   7
ATOM      7  O   UNL     1     -39.057  24.960   4.025  0.00  0.00    -0.379 OA
ATOM      8  H   UNL     1     -38.987  24.748   4.968  0.00  0.00    +0.211 HD
ENDBRANCH   2   7
BRANCH   3   9
ATOM      9  O   UNL     1     -36.641  26.205   4.973  0.00  0.00    -0.379 OA
ATOM     10  H   UNL     1     -36.957  26.817   4.291  0.00  0.00    +0.211 HD
ENDBRANCH   3   9
BRANCH   4  11
ATOM     11  O   UNL     1     -38.603  23.560   1.513  0.00  0.00    -0.378 OA
ATOM     12  H   UNL     1     -38.882  22.670   1.248  0.00  0.00    +0.211 HD
ENDBRANCH   4  11
BRANCH   6  13
ATOM     13  N   UNL     1     -36.264  21.821   1.613  0.00  0.00    -0.309 N 
ATOM     14  H   UNL     1     -37.108  21.339   1.454  0.00  0.00    +0.149 HD
BRANCH  13  15
ATOM     15  C   UNL     1     -35.078  21.193   1.275  0.00  0.00    +0.046 C 
ATOM     16  C   UNL     1     -34.758  19.923   1.793  0.00  0.00    +0.014 C 
ATOM     17  C   UNL     1     -34.158  21.806   0.401  0.00  0.00    +0.014 C 
ATOM     18  C   UNL     1     -33.563  19.290   1.452  0.00  0.00    -0.003 C 
ATOM     19  C   UNL     1     -32.964  21.172   0.060  0.00  0.00    -0.003 C 
ATOM     20  C   UNL     1     -32.665  19.915   0.585  0.00  0.00    -0.022 C 
ATOM     21  C   UNL     1     -31.387  19.238   0.221  0.00  0.00    +0.031 C 
ENDBRANCH  13  15
ENDBRANCH   6  13
BRANCH   5  22
ATOM     22  C   UNL     1     -34.231  24.416   4.930  0.00  0.00    +0.169 C 
BRANCH  22  23
ATOM     23  O   UNL     1     -33.679  25.711   5.086  0.00  0.00    -0.379 OA
ATOM     24  H   UNL     1     -34.382  26.374   5.003  0.00  0.00    +0.211 HD
ENDBRANCH  22  23
ENDBRANCH   5  22
TORSDOF 7
ENDMDL
MODEL 8
REMARK VINA RESULT:      -5.8      3.738      5.640
REMARK  Name = 193651
REMARK  7 active torsions:
REMARK  status: ('A' for Active; 'I' for Inactive)
REMARK    1  A    between atoms: C_2  and  O_7
REMARK    2  A    between atoms: C_3  and  O_9
REMARK    3  A    between atoms: C_4  and  O_11
REMARK    4  A    between atoms: C_5  and  C_22
REMARK    5  A    between atoms: C_6  and  N_13
REMARK    6  A    between atoms: N_13  and  C_15
REMARK    7  A    between atoms: C_22  and  O_23
REMARK                            x       y       z     vdW  Elec       q    Type
REMARK                         _______ _______ _______ _____ _____    ______ ____
ROOT
ATOM      1  O   UNL     1     -36.895  23.932   4.713  0.00  0.00    -0.333 OA
ATOM      2  C   UNL     1     -35.397  26.201   3.800  0.00  0.00    +0.171 C 
ATOM      3  C   UNL     1     -34.829  25.203   4.811  0.00  0.00    +0.169 C 
ATOM      4  C   UNL     1     -36.926  26.180   3.787  0.00  0.00    +0.186 C 
ATOM      5  C   UNL     1     -35.472  23.824   4.622  0.00  0.00    +0.175 C 
ATOM      6  C   UNL     1     -37.451  24.749   3.686  0.00  0.00    +0.219 C 
ENDROOT
BRANCH   2   7
ATOM      7  O   UNL     1     -34.947  27.517   4.129  0.00  0.00    -0.379 OA
ATOM      8  H   UNL     1     -34.056  27.653   3.773  0.00  0.00    +0.211 HD
ENDBRANCH   2   7
BRANCH   3   9
ATOM      9  O   UNL     1     -33.419  25.126   4.613  0.00  0.00    -0.379 OA
ATOM     10  H   UNL     1     -33.226  24.478   3.918  0.00  0.00    +0.211 HD
ENDBRANCH   3   9
BRANCH   4  11
ATOM     11  O   UNL     1     -37.391  26.924   2.661  0.00  0.00    -0.378 OA
ATOM     12  H   UNL     1     -37.830  26.324   2.037  0.00  0.00    +0.211 HD
ENDBRANCH   4  11
BRANCH   6  13
ATOM     13  N   UNL     1     -38.884  24.709   3.832  0.00  0.00    -0.309 N 
ATOM     14  H   UNL     1     -39.262  24.776   4.738  0.00  0.00    +0.149 HD
BRANCH  13  15
ATOM     15  C   UNL     1     -39.759  24.584   2.766  0.00  0.00    +0.046 C 
ATOM     16  C   UNL     1     -39.653  23.507   1.865  0.00  0.00    +0.014 C 
ATOM     17  C   UNL     1     -40.780  25.531   2.554  0.00  0.00    +0.014 C 
ATOM     18  C   UNL     1     -40.534  23.382   0.791  0.00  0.00    -0.003 C 
ATOM     19  C   UNL     1     -41.661  25.405   1.480  0.00  0.00    -0.003 C 
ATOM     20  C   UNL     1     -41.539  24.331   0.598  0.00  0.00    -0.022 C 
ATOM     21  C   UNL     1     -42.480  24.197  -0.551  0.00  0.00    +0.031 C 
ENDBRANCH  13  15
ENDBRANCH   6  13
BRANCH   5  22
ATOM     22  C   UNL     1     -35.026  22.830   5.690  0.00  0.00    +0.169 C 
BRANCH  22  23
ATOM     23  O   UNL     1     -36.164  22.125   6.153  0.00  0.00    -0.379 OA
ATOM     24  H   UNL     1     -36.039  21.887   7.085  0.00  0.00    +0.211 HD
ENDBRANCH  22  23
ENDBRANCH   5  22
TORSDOF 7
ENDMDL
MODEL 9
REMARK VINA RESULT:      -5.7      3.292      5.207
REMARK  Name = 193651
REMARK  7 active torsions:
REMARK  status: ('A' for Active; 'I' for Inactive)
REMARK    1  A    between atoms: C_2  and  O_7
REMARK    2  A    between atoms: C_3  and  O_9
REMARK    3  A    between atoms: C_4  and  O_11
REMARK    4  A    between atoms: C_5  and  C_22
REMARK    5  A    between atoms: C_6  and  N_13
REMARK    6  A    between atoms: N_13  and  C_15
REMARK    7  A    between atoms: C_22  and  O_23
REMARK                            x       y       z     vdW  Elec       q    Type
REMARK                         _______ _______ _______ _____ _____    ______ ____
ROOT
ATOM      1  O   UNL     1     -37.666  24.086   2.425  0.00  0.00    -0.333 OA
ATOM      2  C   UNL     1     -39.482  21.993   1.689  0.00  0.00    +0.171 C 
ATOM      3  C   UNL     1     -39.965  23.393   2.072  0.00  0.00    +0.169 C 
ATOM      4  C   UNL     1     -38.096  21.699   2.264  0.00  0.00    +0.186 C 
ATOM      5  C   UNL     1     -38.884  24.436   1.764  0.00  0.00    +0.175 C 
ATOM      6  C   UNL     1     -37.130  22.847   1.972  0.00  0.00    +0.219 C 
ENDROOT
BRANCH   2   7
ATOM      7  O   UNL     1     -40.409  21.021   2.178  0.00  0.00    -0.379 OA
ATOM      8  H   UNL     1     -41.308  21.268   1.910  0.00  0.00    +0.211 HD
ENDBRANCH   2   7
BRANCH   3   9
ATOM      9  O   UNL     1     -41.150  23.671   1.331  0.00  0.00    -0.379 OA
ATOM     10  H   UNL     1     -41.649  24.376   1.772  0.00  0.00    +0.211 HD
ENDBRANCH   3   9
BRANCH   4  11
ATOM     11  O   UNL     1     -37.589  20.505   1.668  0.00  0.00    -0.378 OA
ATOM     12  H   UNL     1     -36.950  20.736   0.976  0.00  0.00    +0.211 HD
ENDBRANCH   4  11
BRANCH   6  13
ATOM     13  N   UNL     1     -35.870  22.650   2.643  0.00  0.00    -0.309 N 
ATOM     14  H   UNL     1     -35.380  21.812   2.478  0.00  0.00    +0.149 HD
BRANCH  13  15
ATOM     15  C   UNL     1     -35.309  23.576   3.506  0.00  0.00    +0.046 C 
ATOM     16  C   UNL     1     -35.543  23.508   4.892  0.00  0.00    +0.014 C 
ATOM     17  C   UNL     1     -34.488  24.612   3.020  0.00  0.00    +0.014 C 
ATOM     18  C   UNL     1     -34.978  24.442   5.761  0.00  0.00    -0.003 C 
ATOM     19  C   UNL     1     -33.923  25.545   3.889  0.00  0.00    -0.003 C 
ATOM     20  C   UNL     1     -34.168  25.460   5.260  0.00  0.00    -0.022 C 
ATOM     21  C   UNL     1     -33.564  26.459   6.189  0.00  0.00    +0.031 C 
ENDBRANCH  13  15
ENDBRANCH   6  13
BRANCH   5  22
ATOM     22  C   UNL     1     -39.276  25.830   2.245  0.00  0.00    +0.169 C 
BRANCH  22  23
ATOM     23  O   UNL     1     -38.649  26.069   3.493  0.00  0.00    -0.379 OA
ATOM     24  H   UNL     1     -38.744  27.005   3.728  0.00  0.00    +0.211 HD
ENDBRANCH  22  23
ENDBRANCH   5  22
TORSDOF 7
ENDMDL
