MODEL 1
REMARK VINA RESULT:      -6.4      0.000      0.000
REMARK  Name = 60150535
REMARK  6 active torsions:
REMARK  status: ('A' for Active; 'I' for Inactive)
REMARK    1  A    between atoms: C_3  and  C_14
REMARK    2  A    between atoms: C_5  and  C_26
REMARK    3  A    between atoms: C_8  and  O_29
REMARK    4  A    between atoms: C_15  and  O_20
REMARK    5  A    between atoms: C_19  and  C_23
REMARK    6  A    between atoms: O_29  and  C_30
REMARK                            x       y       z     vdW  Elec       q    Type
REMARK                         _______ _______ _______ _____ _____    ______ ____
ROOT
ATOM      1  N   UNL     1     -37.409  27.268   1.267  0.00  0.00    -0.331 N 
ATOM      2  N   UNL     1     -33.701  27.458   3.250  0.00  0.00    -0.211 NA
ATOM      3  C   UNL     1     -36.806  25.237   3.211  0.00  0.00    +0.011 C 
ATOM      4  C   UNL     1     -35.837  26.366   2.883  0.00  0.00    +0.053 C 
ATOM      5  C   UNL     1     -38.170  25.404   2.539  0.00  0.00    +0.062 C 
ATOM      6  C   UNL     1     -36.163  27.322   1.907  0.00  0.00    +0.117 C 
ATOM      7  C   UNL     1     -38.398  26.361   1.609  0.00  0.00    +0.027 C 
ATOM      8  C   UNL     1     -34.605  26.491   3.520  0.00  0.00    +0.222 C 
ATOM      9  C   UNL     1     -35.245  28.328   1.604  0.00  0.00    -0.003 C 
ATOM     10  C   UNL     1     -39.699  26.543   0.873  0.00  0.00    +0.047 C 
ATOM     11  C   UNL     1     -34.044  28.350   2.295  0.00  0.00    +0.095 C 
ATOM     12  C   UNL     1     -35.515  29.374   0.576  0.00  0.00    +0.030 C 
ATOM     13  H   UNL     1     -37.590  27.905   0.539  0.00  0.00    +0.147 HD
ENDROOT
BRANCH   3  14
ATOM     14  C   UNL     1     -36.217  23.911   2.820  0.00  0.00    +0.034 C 
ATOM     15  C   UNL     1     -36.031  22.906   3.770  0.00  0.00    +0.139 C 
ATOM     16  C   UNL     1     -35.854  23.690   1.492  0.00  0.00    +0.004 C 
ATOM     17  C   UNL     1     -35.483  21.681   3.391  0.00  0.00    +0.047 C 
ATOM     18  C   UNL     1     -35.306  22.464   1.112  0.00  0.00    +0.010 C 
ATOM     19  C   UNL     1     -35.120  21.460   2.063  0.00  0.00    +0.071 C 
BRANCH  15  20
ATOM     20  O   UNL     1     -36.380  23.105   5.072  0.00  0.00    -0.471 OA
ATOM     21  C   UNL     1     -35.593  22.446   6.062  0.00  0.00    +0.252 C 
ENDBRANCH  15  20
BRANCH  19  23
ATOM     22  N   UNL     1     -34.102  19.185   1.359  0.00  0.00    -0.191 NA
ATOM     23  C   UNL     1     -34.559  20.205   1.674  0.00  0.00    +0.101 C 
ENDBRANCH  19  23
ENDBRANCH   3  14
BRANCH   5  26
ATOM     24  O   UNL     1     -39.438  23.421   2.457  0.00  0.00    -0.270 OA
ATOM     25  N   UNL     1     -39.950  25.003   4.058  0.00  0.00    -0.325 N 
ATOM     26  C   UNL     1     -39.240  24.501   2.998  0.00  0.00    +0.244 C 
ATOM     27  H   UNL     1     -40.689  24.481   4.447  0.00  0.00    +0.145 HD
ATOM     28  H   UNL     1     -39.720  25.884   4.432  0.00  0.00    +0.145 HD
ENDBRANCH   5  26
BRANCH   8  29
ATOM     29  O   UNL     1     -34.248  25.602   4.502  0.00  0.00    -0.460 OA
BRANCH  29  30
ATOM     30  C   UNL     1     -34.516  25.990   5.844  0.00  0.00    +0.207 C 
ATOM     31  C   UNL     1     -33.283  26.649   6.423  0.00  0.00    +0.051 C 
ENDBRANCH  29  30
ENDBRANCH   8  29
TORSDOF 6
ENDMDL
MODEL 2
REMARK VINA RESULT:      -6.2      1.595      2.911
REMARK  Name = 60150535
REMARK  6 active torsions:
REMARK  status: ('A' for Active; 'I' for Inactive)
REMARK    1  A    between atoms: C_3  and  C_14
REMARK    2  A    between atoms: C_5  and  C_26
REMARK    3  A    between atoms: C_8  and  O_29
REMARK    4  A    between atoms: C_15  and  O_20
REMARK    5  A    between atoms: C_19  and  C_23
REMARK    6  A    between atoms: O_29  and  C_30
REMARK                            x       y       z     vdW  Elec       q    Type
REMARK                         _______ _______ _______ _____ _____    ______ ____
ROOT
ATOM      1  N   UNL     1     -35.059  27.316   2.366  0.00  0.00    -0.331 N 
ATOM      2  N   UNL     1     -34.462  25.216   5.964  0.00  0.00    -0.211 NA
ATOM      3  C   UNL     1     -36.691  25.004   2.871  0.00  0.00    +0.011 C 
ATOM      4  C   UNL     1     -35.632  25.487   3.855  0.00  0.00    +0.053 C 
ATOM      5  C   UNL     1     -36.904  25.966   1.701  0.00  0.00    +0.062 C 
ATOM      6  C   UNL     1     -34.840  26.607   3.554  0.00  0.00    +0.117 C 
ATOM      7  C   UNL     1     -36.092  27.028   1.490  0.00  0.00    +0.027 C 
ATOM      8  C   UNL     1     -35.403  24.844   5.069  0.00  0.00    +0.222 C 
ATOM      9  C   UNL     1     -33.857  27.009   4.458  0.00  0.00    -0.003 C 
ATOM     10  C   UNL     1     -36.216  27.979   0.329  0.00  0.00    +0.047 C 
ATOM     11  C   UNL     1     -33.710  26.288   5.633  0.00  0.00    +0.095 C 
ATOM     12  C   UNL     1     -32.971  28.183   4.207  0.00  0.00    +0.030 C 
ATOM     13  H   UNL     1     -34.449  28.056   2.141  0.00  0.00    +0.147 HD
ENDROOT
BRANCH   3  14
ATOM     14  C   UNL     1     -36.332  23.645   2.340  0.00  0.00    +0.034 C 
ATOM     15  C   UNL     1     -37.251  22.597   2.385  0.00  0.00    +0.139 C 
ATOM     16  C   UNL     1     -35.064  23.437   1.798  0.00  0.00    +0.004 C 
ATOM     17  C   UNL     1     -36.903  21.342   1.888  0.00  0.00    +0.047 C 
ATOM     18  C   UNL     1     -34.715  22.181   1.301  0.00  0.00    +0.010 C 
ATOM     19  C   UNL     1     -35.635  21.133   1.346  0.00  0.00    +0.071 C 
BRANCH  15  20
ATOM     20  O   UNL     1     -38.495  22.783   2.911  0.00  0.00    -0.471 OA
ATOM     21  C   UNL     1     -39.606  22.536   2.052  0.00  0.00    +0.252 C 
ENDBRANCH  15  20
BRANCH  19  23
ATOM     22  N   UNL     1     -34.987  18.802   0.424  0.00  0.00    -0.191 NA
ATOM     23  C   UNL     1     -35.278  19.846   0.837  0.00  0.00    +0.101 C 
ENDBRANCH  19  23
ENDBRANCH   3  14
BRANCH   5  26
ATOM     24  O   UNL     1     -37.966  25.122  -0.224  0.00  0.00    -0.270 OA
ATOM     25  N   UNL     1     -39.247  26.178   1.380  0.00  0.00    -0.325 N 
ATOM     26  C   UNL     1     -38.076  25.705   0.847  0.00  0.00    +0.244 C 
ATOM     27  H   UNL     1     -40.094  26.058   0.893  0.00  0.00    +0.145 HD
ATOM     28  H   UNL     1     -39.242  26.637   2.251  0.00  0.00    +0.145 HD
ENDBRANCH   5  26
BRANCH   8  29
ATOM     29  O   UNL     1     -36.168  23.763   5.426  0.00  0.00    -0.460 OA
BRANCH  29  30
ATOM     30  C   UNL     1     -35.526  22.748   6.188  0.00  0.00    +0.207 C 
ATOM     31  C   UNL     1     -35.172  21.594   5.275  0.00  0.00    +0.051 C 
ENDBRANCH  29  30
ENDBRANCH   8  29
TORSDOF 6
ENDMDL
MODEL 3
REMARK VINA RESULT:      -5.9      2.428      5.222
REMARK  Name = 60150535
REMARK  6 active torsions:
REMARK  status: ('A' for Active; 'I' for Inactive)
REMARK    1  A    between atoms: C_3  and  C_14
REMARK    2  A    between atoms: C_5  and  C_26
REMARK    3  A    between atoms: C_8  and  O_29
REMARK    4  A    between atoms: C_15  and  O_20
REMARK    5  A    between atoms: C_19  and  C_23
REMARK    6  A    between atoms: O_29  and  C_30
REMARK                            x       y       z     vdW  Elec       q    Type
REMARK                         _______ _______ _______ _____ _____    ______ ____
ROOT
ATOM      1  N   UNL     1     -34.852  23.663   4.958  0.00  0.00    -0.331 N 
ATOM      2  N   UNL     1     -34.618  27.049   2.469  0.00  0.00    -0.211 NA
ATOM      3  C   UNL     1     -35.651  23.383   2.210  0.00  0.00    +0.011 C 
ATOM      4  C   UNL     1     -35.150  24.702   2.784  0.00  0.00    +0.053 C 
ATOM      5  C   UNL     1     -35.513  22.214   3.187  0.00  0.00    +0.062 C 
ATOM      6  C   UNL     1     -34.795  24.799   4.139  0.00  0.00    +0.117 C 
ATOM      7  C   UNL     1     -35.159  22.400   4.480  0.00  0.00    +0.027 C 
ATOM      8  C   UNL     1     -35.034  25.850   2.004  0.00  0.00    +0.222 C 
ATOM      9  C   UNL     1     -34.369  26.027   4.647  0.00  0.00    -0.003 C 
ATOM     10  C   UNL     1     -35.059  21.299   5.504  0.00  0.00    +0.047 C 
ATOM     11  C   UNL     1     -34.301  27.107   3.780  0.00  0.00    +0.095 C 
ATOM     12  C   UNL     1     -33.982  26.211   6.075  0.00  0.00    +0.030 C 
ATOM     13  H   UNL     1     -34.665  23.766   5.918  0.00  0.00    +0.147 HD
ENDROOT
BRANCH   3  14
ATOM     14  C   UNL     1     -37.086  23.508   1.781  0.00  0.00    +0.034 C 
ATOM     15  C   UNL     1     -37.467  23.214   0.472  0.00  0.00    +0.139 C 
ATOM     16  C   UNL     1     -38.041  23.925   2.708  0.00  0.00    +0.004 C 
ATOM     17  C   UNL     1     -38.802  23.335   0.090  0.00  0.00    +0.047 C 
ATOM     18  C   UNL     1     -39.377  24.046   2.326  0.00  0.00    +0.010 C 
ATOM     19  C   UNL     1     -39.758  23.752   1.016  0.00  0.00    +0.071 C 
BRANCH  15  20
ATOM     20  O   UNL     1     -36.546  22.805  -0.446  0.00  0.00    -0.471 OA
ATOM     21  C   UNL     1     -36.691  21.485  -0.967  0.00  0.00    +0.252 C 
ENDBRANCH  15  20
BRANCH  19  23
ATOM     22  N   UNL     1     -42.238  23.977   0.308  0.00  0.00    -0.191 NA
ATOM     23  C   UNL     1     -41.126  23.877   0.625  0.00  0.00    +0.101 C 
ENDBRANCH  19  23
ENDBRANCH   3  14
BRANCH   5  26
ATOM     24  O   UNL     1     -34.806  20.188   2.215  0.00  0.00    -0.270 OA
ATOM     25  N   UNL     1     -37.055  20.494   2.638  0.00  0.00    -0.325 N 
ATOM     26  C   UNL     1     -35.736  20.868   2.631  0.00  0.00    +0.244 C 
ATOM     27  H   UNL     1     -37.319  19.612   2.290  0.00  0.00    +0.145 HD
ATOM     28  H   UNL     1     -37.739  21.107   2.993  0.00  0.00    +0.145 HD
ENDBRANCH   5  26
BRANCH   8  29
ATOM     29  O   UNL     1     -35.339  25.805   0.668  0.00  0.00    -0.460 OA
BRANCH  29  30
ATOM     30  C   UNL     1     -35.933  26.969   0.107  0.00  0.00    +0.207 C 
ATOM     31  C   UNL     1     -37.433  26.893   0.289  0.00  0.00    +0.051 C 
ENDBRANCH  29  30
ENDBRANCH   8  29
TORSDOF 6
ENDMDL
MODEL 4
REMARK VINA RESULT:      -5.9      3.316      5.195
REMARK  Name = 60150535
REMARK  6 active torsions:
REMARK  status: ('A' for Active; 'I' for Inactive)
REMARK    1  A    between atoms: C_3  and  C_14
REMARK    2  A    between atoms: C_5  and  C_26
REMARK    3  A    between atoms: C_8  and  O_29
REMARK    4  A    between atoms: C_15  and  O_20
REMARK    5  A    between atoms: C_19  and  C_23
REMARK    6  A    between atoms: O_29  and  C_30
REMARK                            x       y       z     vdW  Elec       q    Type
REMARK                         _______ _______ _______ _____ _____    ______ ____
ROOT
ATOM      1  N   UNL     1     -39.191  22.134   0.576  0.00  0.00    -0.331 N 
ATOM      2  N   UNL     1     -37.335  23.907   3.912  0.00  0.00    -0.211 NA
ATOM      3  C   UNL     1     -36.673  21.061   1.455  0.00  0.00    +0.011 C 
ATOM      4  C   UNL     1     -37.348  22.235   2.153  0.00  0.00    +0.053 C 
ATOM      5  C   UNL     1     -37.549  20.421   0.376  0.00  0.00    +0.062 C 
ATOM      6  C   UNL     1     -38.566  22.743   1.673  0.00  0.00    +0.117 C 
ATOM      7  C   UNL     1     -38.716  20.979  -0.022  0.00  0.00    +0.027 C 
ATOM      8  C   UNL     1     -36.790  22.849   3.272  0.00  0.00    +0.222 C 
ATOM      9  C   UNL     1     -39.147  23.839   2.311  0.00  0.00    -0.003 C 
ATOM     10  C   UNL     1     -39.595  20.429  -1.114  0.00  0.00    +0.047 C 
ATOM     11  C   UNL     1     -38.498  24.377   3.412  0.00  0.00    +0.095 C 
ATOM     12  C   UNL     1     -40.434  24.439   1.857  0.00  0.00    +0.030 C 
ATOM     13  H   UNL     1     -40.008  22.546   0.213  0.00  0.00    +0.147 HD
ENDROOT
BRANCH   3  14
ATOM     14  C   UNL     1     -35.368  21.491   0.847  0.00  0.00    +0.034 C 
ATOM     15  C   UNL     1     -34.221  20.712   0.995  0.00  0.00    +0.139 C 
ATOM     16  C   UNL     1     -35.311  22.685   0.129  0.00  0.00    +0.004 C 
ATOM     17  C   UNL     1     -33.018  21.125   0.424  0.00  0.00    +0.047 C 
ATOM     18  C   UNL     1     -34.107  23.100  -0.443  0.00  0.00    +0.010 C 
ATOM     19  C   UNL     1     -32.960  22.319  -0.294  0.00  0.00    +0.071 C 
BRANCH  15  20
ATOM     20  O   UNL     1     -34.259  19.542   1.694  0.00  0.00    -0.471 OA
ATOM     21  C   UNL     1     -33.335  18.526   1.308  0.00  0.00    +0.252 C 
ENDBRANCH  15  20
BRANCH  19  23
ATOM     22  N   UNL     1     -30.727  23.088  -1.354  0.00  0.00    -0.191 NA
ATOM     23  C   UNL     1     -31.728  22.744  -0.879  0.00  0.00    +0.101 C 
ENDBRANCH  19  23
ENDBRANCH   3  14
BRANCH   5  26
ATOM     24  O   UNL     1     -36.740  19.024  -1.339  0.00  0.00    -0.270 OA
ATOM     25  N   UNL     1     -37.076  18.126   0.761  0.00  0.00    -0.325 N 
ATOM     26  C   UNL     1     -37.081  19.135  -0.168  0.00  0.00    +0.244 C 
ATOM     27  H   UNL     1     -36.780  17.223   0.506  0.00  0.00    +0.145 HD
ATOM     28  H   UNL     1     -37.368  18.306   1.685  0.00  0.00    +0.145 HD
ENDBRANCH   5  26
BRANCH   8  29
ATOM     29  O   UNL     1     -35.617  22.374   3.800  0.00  0.00    -0.460 OA
BRANCH  29  30
ATOM     30  C   UNL     1     -35.218  22.911   5.056  0.00  0.00    +0.207 C 
ATOM     31  C   UNL     1     -35.260  21.813   6.097  0.00  0.00    +0.051 C 
ENDBRANCH  29  30
ENDBRANCH   8  29
TORSDOF 6
ENDMDL
MODEL 5
REMARK VINA RESULT:      -5.8      2.280      5.776
REMARK  Name = 60150535
REMARK  6 active torsions:
REMARK  status: ('A' for Active; 'I' for Inactive)
REMARK    1  A    between atoms: C_3  and  C_14
REMARK    2  A    between atoms: C_5  and  C_26
REMARK    3  A    between atoms: C_8  and  O_29
REMARK    4  A    between atoms: C_15  and  O_20
REMARK    5  A    between atoms: C_19  and  C_23
REMARK    6  A    between atoms: O_29  and  C_30
REMARK                            x       y       z     vdW  Elec       q    Type
REMARK                         _______ _______ _______ _____ _____    ______ ____
ROOT
ATOM      1  N   UNL     1     -36.183  21.870   3.635  0.00  0.00    -0.331 N 
ATOM      2  N   UNL     1     -35.334  25.641   5.301  0.00  0.00    -0.211 NA
ATOM      3  C   UNL     1     -36.699  24.205   2.037  0.00  0.00    +0.011 C 
ATOM      4  C   UNL     1     -36.133  24.290   3.450  0.00  0.00    +0.053 C 
ATOM      5  C   UNL     1     -36.789  22.770   1.515  0.00  0.00    +0.062 C 
ATOM      6  C   UNL     1     -35.921  23.124   4.203  0.00  0.00    +0.117 C 
ATOM      7  C   UNL     1     -36.562  21.701   2.314  0.00  0.00    +0.027 C 
ATOM      8  C   UNL     1     -35.816  25.509   4.045  0.00  0.00    +0.222 C 
ATOM      9  C   UNL     1     -35.432  23.233   5.505  0.00  0.00    -0.003 C 
ATOM     10  C   UNL     1     -36.687  20.266   1.875  0.00  0.00    +0.047 C 
ATOM     11  C   UNL     1     -35.159  24.499   6.000  0.00  0.00    +0.095 C 
ATOM     12  C   UNL     1     -35.187  22.043   6.370  0.00  0.00    +0.030 C 
ATOM     13  H   UNL     1     -36.094  21.071   4.202  0.00  0.00    +0.147 HD
ENDROOT
BRANCH   3  14
ATOM     14  C   UNL     1     -38.057  24.844   1.977  0.00  0.00    +0.034 C 
ATOM     15  C   UNL     1     -38.311  25.896   1.097  0.00  0.00    +0.139 C 
ATOM     16  C   UNL     1     -39.070  24.375   2.814  0.00  0.00    +0.004 C 
ATOM     17  C   UNL     1     -39.577  26.478   1.053  0.00  0.00    +0.047 C 
ATOM     18  C   UNL     1     -40.337  24.957   2.770  0.00  0.00    +0.010 C 
ATOM     19  C   UNL     1     -40.591  26.009   1.889  0.00  0.00    +0.071 C 
BRANCH  15  20
ATOM     20  O   UNL     1     -37.333  26.366   0.272  0.00  0.00    -0.471 OA
ATOM     21  C   UNL     1     -37.231  27.781   0.130  0.00  0.00    +0.252 C 
ENDBRANCH  15  20
BRANCH  19  23
ATOM     22  N   UNL     1     -42.942  27.090   1.808  0.00  0.00    -0.191 NA
ATOM     23  C   UNL     1     -41.888  26.606   1.845  0.00  0.00    +0.101 C 
ENDBRANCH  19  23
ENDBRANCH   3  14
BRANCH   5  26
ATOM     24  O   UNL     1     -38.208  22.330  -0.313  0.00  0.00    -0.270 OA
ATOM     25  N   UNL     1     -35.989  22.819  -0.720  0.00  0.00    -0.325 N 
ATOM     26  C   UNL     1     -37.084  22.614   0.080  0.00  0.00    +0.244 C 
ATOM     27  H   UNL     1     -36.072  22.741  -1.698  0.00  0.00    +0.145 HD
ATOM     28  H   UNL     1     -35.119  23.044  -0.317  0.00  0.00    +0.145 HD
ENDBRANCH   5  26
BRANCH   8  29
ATOM     29  O   UNL     1     -35.974  26.677   3.344  0.00  0.00    -0.460 OA
BRANCH  29  30
ATOM     30  C   UNL     1     -34.808  27.464   3.139  0.00  0.00    +0.207 C 
ATOM     31  C   UNL     1     -34.049  26.920   1.948  0.00  0.00    +0.051 C 
ENDBRANCH  29  30
ENDBRANCH   8  29
TORSDOF 6
ENDMDL
MODEL 6
REMARK VINA RESULT:      -5.7      2.363      5.227
REMARK  Name = 60150535
REMARK  6 active torsions:
REMARK  status: ('A' for Active; 'I' for Inactive)
REMARK    1  A    between atoms: C_3  and  C_14
REMARK    2  A    between atoms: C_5  and  C_26
REMARK    3  A    between atoms: C_8  and  O_29
REMARK    4  A    between atoms: C_15  and  O_20
REMARK    5  A    between atoms: C_19  and  C_23
REMARK    6  A    between atoms: O_29  and  C_30
REMARK                            x       y       z     vdW  Elec       q    Type
REMARK                         _______ _______ _______ _____ _____    ______ ____
ROOT
ATOM      1  N   UNL     1     -37.643  25.058   4.053  0.00  0.00    -0.331 N 
ATOM      2  N   UNL     1     -39.257  24.088   0.289  0.00  0.00    -0.211 NA
ATOM      3  C   UNL     1     -35.822  24.404   1.926  0.00  0.00    +0.011 C 
ATOM      4  C   UNL     1     -37.334  24.412   1.734  0.00  0.00    +0.053 C 
ATOM      5  C   UNL     1     -35.390  24.943   3.291  0.00  0.00    +0.062 C 
ATOM      6  C   UNL     1     -38.186  24.713   2.808  0.00  0.00    +0.117 C 
ATOM      7  C   UNL     1     -36.284  25.213   4.270  0.00  0.00    +0.027 C 
ATOM      8  C   UNL     1     -37.923  24.118   0.507  0.00  0.00    +0.222 C 
ATOM      9  C   UNL     1     -39.567  24.683   2.613  0.00  0.00    -0.003 C 
ATOM     10  C   UNL     1     -35.919  25.692   5.650  0.00  0.00    +0.047 C 
ATOM     11  C   UNL     1     -40.044  24.368   1.350  0.00  0.00    +0.095 C 
ATOM     12  C   UNL     1     -40.537  24.983   3.705  0.00  0.00    +0.030 C 
ATOM     13  H   UNL     1     -38.256  25.198   4.810  0.00  0.00    +0.147 HD
ENDROOT
BRANCH   3  14
ATOM     14  C   UNL     1     -35.278  23.016   1.743  0.00  0.00    +0.034 C 
ATOM     15  C   UNL     1     -34.281  22.760   0.802  0.00  0.00    +0.139 C 
ATOM     16  C   UNL     1     -35.781  21.977   2.526  0.00  0.00    +0.004 C 
ATOM     17  C   UNL     1     -33.786  21.466   0.645  0.00  0.00    +0.047 C 
ATOM     18  C   UNL     1     -35.286  20.682   2.369  0.00  0.00    +0.010 C 
ATOM     19  C   UNL     1     -34.288  20.426   1.427  0.00  0.00    +0.071 C 
BRANCH  15  20
ATOM     20  O   UNL     1     -33.778  23.763   0.029  0.00  0.00    -0.471 OA
ATOM     21  C   UNL     1     -32.454  23.594  -0.473  0.00  0.00    +0.252 C 
ENDBRANCH  15  20
BRANCH  19  23
ATOM     22  N   UNL     1     -33.370  18.023   1.135  0.00  0.00    -0.191 NA
ATOM     23  C   UNL     1     -33.782  19.100   1.266  0.00  0.00    +0.101 C 
ENDBRANCH  19  23
ENDBRANCH   3  14
BRANCH   5  26
ATOM     24  O   UNL     1     -33.335  24.775   4.430  0.00  0.00    -0.270 OA
ATOM     25  N   UNL     1     -33.415  25.958   2.449  0.00  0.00    -0.325 N 
ATOM     26  C   UNL     1     -33.950  25.205   3.463  0.00  0.00    +0.244 C 
ATOM     27  H   UNL     1     -32.459  26.193   2.462  0.00  0.00    +0.145 HD
ATOM     28  H   UNL     1     -33.986  26.263   1.707  0.00  0.00    +0.145 HD
ENDBRANCH   5  26
BRANCH   8  29
ATOM     29  O   UNL     1     -37.138  23.846  -0.584  0.00  0.00    -0.460 OA
BRANCH  29  30
ATOM     30  C   UNL     1     -37.647  22.906  -1.521  0.00  0.00    +0.207 C 
ATOM     31  C   UNL     1     -37.064  21.543  -1.219  0.00  0.00    +0.051 C 
ENDBRANCH  29  30
ENDBRANCH   8  29
TORSDOF 6
ENDMDL
MODEL 7
REMARK VINA RESULT:      -5.5      2.413      5.876
REMARK  Name = 60150535
REMARK  6 active torsions:
REMARK  status: ('A' for Active; 'I' for Inactive)
REMARK    1  A    between atoms: C_3  and  C_14
REMARK    2  A    between atoms: C_5  and  C_26
REMARK    3  A    between atoms: C_8  and  O_29
REMARK    4  A    between atoms: C_15  and  O_20
REMARK    5  A    between atoms: C_19  and  C_23
REMARK    6  A    between atoms: O_29  and  C_30
REMARK                            x       y       z     vdW  Elec       q    Type
REMARK                         _______ _______ _______ _____ _____    ______ ____
ROOT
ATOM      1  N   UNL     1     -37.217  22.831   3.464  0.00  0.00    -0.331 N 
ATOM      2  N   UNL     1     -39.672  25.266   1.064  0.00  0.00    -0.211 NA
ATOM      3  C   UNL     1     -36.419  25.561   3.041  0.00  0.00    +0.011 C 
ATOM      4  C   UNL     1     -37.689  24.978   2.432  0.00  0.00    +0.053 C 
ATOM      5  C   UNL     1     -35.733  24.608   4.022  0.00  0.00    +0.062 C 
ATOM      6  C   UNL     1     -38.025  23.631   2.645  0.00  0.00    +0.117 C 
ATOM      7  C   UNL     1     -36.130  23.322   4.167  0.00  0.00    +0.027 C 
ATOM      8  C   UNL     1     -38.548  25.741   1.646  0.00  0.00    +0.222 C 
ATOM      9  C   UNL     1     -39.177  23.114   2.050  0.00  0.00    -0.003 C 
ATOM     10  C   UNL     1     -35.463  22.321   5.073  0.00  0.00    +0.047 C 
ATOM     11  C   UNL     1     -39.955  23.963   1.278  0.00  0.00    +0.095 C 
ATOM     12  C   UNL     1     -39.597  21.694   2.222  0.00  0.00    +0.030 C 
ATOM     13  H   UNL     1     -37.432  21.874   3.545  0.00  0.00    +0.147 HD
ENDROOT
BRANCH   3  14
ATOM     14  C   UNL     1     -35.450  25.949   1.962  0.00  0.00    +0.034 C 
ATOM     15  C   UNL     1     -34.867  27.217   1.948  0.00  0.00    +0.139 C 
ATOM     16  C   UNL     1     -35.134  25.027   0.964  0.00  0.00    +0.004 C 
ATOM     17  C   UNL     1     -33.969  27.561   0.939  0.00  0.00    +0.047 C 
ATOM     18  C   UNL     1     -34.235  25.371  -0.046  0.00  0.00    +0.010 C 
ATOM     19  C   UNL     1     -33.653  26.639  -0.059  0.00  0.00    +0.071 C 
BRANCH  15  20
ATOM     20  O   UNL     1     -35.165  28.130   2.915  0.00  0.00    -0.471 OA
ATOM     21  C   UNL     1     -35.067  29.507   2.558  0.00  0.00    +0.252 C 
ENDBRANCH  15  20
BRANCH  19  23
ATOM     22  N   UNL     1     -31.986  27.277  -1.934  0.00  0.00    -0.191 NA
ATOM     23  C   UNL     1     -32.733  26.992  -1.093  0.00  0.00    +0.101 C 
ENDBRANCH  19  23
ENDBRANCH   3  14
BRANCH   5  26
ATOM     24  O   UNL     1     -33.504  24.759   4.767  0.00  0.00    -0.270 OA
ATOM     25  N   UNL     1     -35.073  26.199   5.657  0.00  0.00    -0.325 N 
ATOM     26  C   UNL     1     -34.651  25.182   4.840  0.00  0.00    +0.244 C 
ATOM     27  H   UNL     1     -34.432  26.656   6.247  0.00  0.00    +0.145 HD
ATOM     28  H   UNL     1     -36.019  26.475   5.651  0.00  0.00    +0.145 HD
ENDBRANCH   5  26
BRANCH   8  29
ATOM     29  O   UNL     1     -38.284  27.069   1.431  0.00  0.00    -0.460 OA
BRANCH  29  30
ATOM     30  C   UNL     1     -38.624  27.590   0.152  0.00  0.00    +0.207 C 
ATOM     31  C   UNL     1     -37.422  27.482  -0.761  0.00  0.00    +0.051 C 
ENDBRANCH  29  30
ENDBRANCH   8  29
TORSDOF 6
ENDMDL
MODEL 8
REMARK VINA RESULT:      -5.5      2.173      3.251
REMARK  Name = 60150535
REMARK  6 active torsions:
REMARK  status: ('A' for Active; 'I' for Inactive)
REMARK    1  A    between atoms: C_3  and  C_14
REMARK    2  A    between atoms: C_5  and  C_26
REMARK    3  A    between atoms: C_8  and  O_29
REMARK    4  A    between atoms: C_15  and  O_20
REMARK    5  A    between atoms: C_19  and  C_23
REMARK    6  A    between atoms: O_29  and  C_30
REMARK                            x       y       z     vdW  Elec       q    Type
REMARK                         _______ _______ _______ _____ _____    ______ ____
ROOT
ATOM      1  N   UNL     1     -37.688  25.075   1.033  0.00  0.00    -0.331 N 
ATOM      2  N   UNL     1     -34.754  25.632   4.000  0.00  0.00    -0.211 NA
ATOM      3  C   UNL     1     -36.746  22.762   2.459  0.00  0.00    +0.011 C 
ATOM      4  C   UNL     1     -36.223  24.165   2.743  0.00  0.00    +0.053 C 
ATOM      5  C   UNL     1     -37.924  22.748   1.484  0.00  0.00    +0.062 C 
ATOM      6  C   UNL     1     -36.694  25.262   2.003  0.00  0.00    +0.117 C 
ATOM      7  C   UNL     1     -38.314  23.859   0.816  0.00  0.00    +0.027 C 
ATOM      8  C   UNL     1     -35.268  24.413   3.725  0.00  0.00    +0.222 C 
ATOM      9  C   UNL     1     -36.176  26.532   2.262  0.00  0.00    -0.003 C 
ATOM     10  C   UNL     1     -39.429  23.898  -0.196  0.00  0.00    +0.047 C 
ATOM     11  C   UNL     1     -35.220  26.660   3.257  0.00  0.00    +0.095 C 
ATOM     12  C   UNL     1     -36.619  27.744   1.515  0.00  0.00    +0.030 C 
ATOM     13  H   UNL     1     -37.954  25.843   0.479  0.00  0.00    +0.147 HD
ENDROOT
BRANCH   3  14
ATOM     14  C   UNL     1     -35.645  21.891   1.924  0.00  0.00    +0.034 C 
ATOM     15  C   UNL     1     -34.880  22.298   0.831  0.00  0.00    +0.139 C 
ATOM     16  C   UNL     1     -35.392  20.662   2.533  0.00  0.00    +0.004 C 
ATOM     17  C   UNL     1     -33.862  21.477   0.348  0.00  0.00    +0.047 C 
ATOM     18  C   UNL     1     -34.373  19.840   2.049  0.00  0.00    +0.010 C 
ATOM     19  C   UNL     1     -33.608  20.248   0.956  0.00  0.00    +0.071 C 
BRANCH  15  20
ATOM     20  O   UNL     1     -35.115  23.496   0.225  0.00  0.00    -0.471 OA
ATOM     21  C   UNL     1     -35.153  23.505  -1.201  0.00  0.00    +0.252 C 
ENDBRANCH  15  20
BRANCH  19  23
ATOM     22  N   UNL     1     -31.718  18.724   0.058  0.00  0.00    -0.191 NA
ATOM     23  C   UNL     1     -32.565  19.407   0.460  0.00  0.00    +0.101 C 
ENDBRANCH  19  23
ENDBRANCH   3  14
BRANCH   5  26
ATOM     24  O   UNL     1     -38.388  20.683   0.450  0.00  0.00    -0.270 OA
ATOM     25  N   UNL     1     -39.601  21.289   2.318  0.00  0.00    -0.325 N 
ATOM     26  C   UNL     1     -38.647  21.471   1.351  0.00  0.00    +0.244 C 
ATOM     27  H   UNL     1     -40.144  20.468   2.326  0.00  0.00    +0.145 HD
ATOM     28  H   UNL     1     -39.742  21.978   3.007  0.00  0.00    +0.145 HD
ENDBRANCH   5  26
BRANCH   8  29
ATOM     29  O   UNL     1     -34.795  23.382   4.497  0.00  0.00    -0.460 OA
BRANCH  29  30
ATOM     30  C   UNL     1     -35.276  23.312   5.833  0.00  0.00    +0.207 C 
ATOM     31  C   UNL     1     -35.466  21.859   6.213  0.00  0.00    +0.051 C 
ENDBRANCH  29  30
ENDBRANCH   8  29
TORSDOF 6
ENDMDL
MODEL 9
REMARK VINA RESULT:      -5.5      1.700      2.607
REMARK  Name = 60150535
REMARK  6 active torsions:
REMARK  status: ('A' for Active; 'I' for Inactive)
REMARK    1  A    between atoms: C_3  and  C_14
REMARK    2  A    between atoms: C_5  and  C_26
REMARK    3  A    between atoms: C_8  and  O_29
REMARK    4  A    between atoms: C_15  and  O_20
REMARK    5  A    between atoms: C_19  and  C_23
REMARK    6  A    between atoms: O_29  and  C_30
REMARK                            x       y       z     vdW  Elec       q    Type
REMARK                         _______ _______ _______ _____ _____    ______ ____
ROOT
ATOM      1  N   UNL     1     -35.039  28.432   0.547  0.00  0.00    -0.331 N 
ATOM      2  N   UNL     1     -33.545  27.794   4.430  0.00  0.00    -0.211 NA
ATOM      3  C   UNL     1     -36.545  26.739   2.317  0.00  0.00    +0.011 C 
ATOM      4  C   UNL     1     -35.240  27.405   2.738  0.00  0.00    +0.053 C 
ATOM      5  C   UNL     1     -37.040  27.205   0.947  0.00  0.00    +0.062 C 
ATOM      6  C   UNL     1     -34.525  28.204   1.831  0.00  0.00    +0.117 C 
ATOM      7  C   UNL     1     -36.283  27.982   0.138  0.00  0.00    +0.027 C 
ATOM      8  C   UNL     1     -34.708  27.246   4.015  0.00  0.00    +0.222 C 
ATOM      9  C   UNL     1     -33.318  28.777   2.232  0.00  0.00    -0.003 C 
ATOM     10  C   UNL     1     -36.690  28.428  -1.241  0.00  0.00    +0.047 C 
ATOM     11  C   UNL     1     -32.878  28.543   3.525  0.00  0.00    +0.095 C 
ATOM     12  C   UNL     1     -32.497  29.630   1.325  0.00  0.00    +0.030 C 
ATOM     13  H   UNL     1     -34.490  28.937  -0.095  0.00  0.00    +0.147 HD
ENDROOT
BRANCH   3  14
ATOM     14  C   UNL     1     -36.392  25.244   2.311  0.00  0.00    +0.034 C 
ATOM     15  C   UNL     1     -37.277  24.435   3.022  0.00  0.00    +0.139 C 
ATOM     16  C   UNL     1     -35.351  24.668   1.584  0.00  0.00    +0.004 C 
ATOM     17  C   UNL     1     -37.122  23.049   3.006  0.00  0.00    +0.047 C 
ATOM     18  C   UNL     1     -35.195  23.282   1.567  0.00  0.00    +0.010 C 
ATOM     19  C   UNL     1     -36.081  22.472   2.279  0.00  0.00    +0.071 C 
BRANCH  15  20
ATOM     20  O   UNL     1     -38.301  24.981   3.737  0.00  0.00    -0.471 OA
ATOM     21  C   UNL     1     -39.626  24.708   3.286  0.00  0.00    +0.252 C 
ENDBRANCH  15  20
BRANCH  19  23
ATOM     22  N   UNL     1     -35.791  19.900   2.248  0.00  0.00    -0.191 NA
ATOM     23  C   UNL     1     -35.921  21.052   2.262  0.00  0.00    +0.101 C 
ENDBRANCH  19  23
ENDBRANCH   3  14
BRANCH   5  26
ATOM     24  O   UNL     1     -39.386  27.418   0.993  0.00  0.00    -0.270 OA
ATOM     25  N   UNL     1     -38.448  25.715  -0.251  0.00  0.00    -0.325 N 
ATOM     26  C   UNL     1     -38.410  26.807   0.578  0.00  0.00    +0.244 C 
ATOM     27  H   UNL     1     -39.313  25.362  -0.561  0.00  0.00    +0.145 HD
ATOM     28  H   UNL     1     -37.610  25.283  -0.536  0.00  0.00    +0.145 HD
ENDBRANCH   5  26
BRANCH   8  29
ATOM     29  O   UNL     1     -35.380  26.501   4.950  0.00  0.00    -0.460 OA
BRANCH  29  30
ATOM     30  C   UNL     1     -34.588  25.720   5.836  0.00  0.00    +0.207 C 
ATOM     31  C   UNL     1     -34.391  24.344   5.238  0.00  0.00    +0.051 C 
ENDBRANCH  29  30
ENDBRANCH   8  29
TORSDOF 6
ENDMDL
