MODEL 1
REMARK VINA RESULT:      -5.5      0.000      0.000
REMARK  Name = 195229
REMARK  9 active torsions:
REMARK  status: ('A' for Active; 'I' for Inactive)
REMARK    1  A    between atoms: C_1  and  C_4
REMARK    2  A    between atoms: C_1  and  O_8
REMARK    3  A    between atoms: C_1  and  C_11
REMARK    4  A    between atoms: C_1  and  C_14
REMARK    5  A    between atoms: N_3  and  O_6
REMARK    6  A    between atoms: C_11  and  O_12
REMARK    7  A    between atoms: C_14  and  C_16
REMARK    8  A    between atoms: C_16  and  C_18
REMARK    9  A    between atoms: C_18  and  O_19
REMARK                            x       y       z     vdW  Elec       q    Type
REMARK                         _______ _______ _______ _____ _____    ______ ____
ROOT
ATOM      1  C   UNL     1     -35.865  22.988   4.327  0.00  0.00    +0.248 C 
ENDROOT
BRANCH   1   4
ATOM      2  O   UNL     1     -34.681  24.724   5.540  0.00  0.00    -0.270 OA
ATOM      3  N   UNL     1     -36.767  25.227   4.722  0.00  0.00    -0.195 N 
ATOM      4  C   UNL     1     -35.700  24.392   4.933  0.00  0.00    +0.279 C 
ATOM      5  H   UNL     1     -37.570  24.936   4.233  0.00  0.00    +0.182 HD
BRANCH   3   6
ATOM      6  O   UNL     1     -36.644  26.521   5.245  0.00  0.00    -0.295 OA
ATOM      7  H   UNL     1     -36.800  27.171   4.543  0.00  0.00    +0.241 HD
ENDBRANCH   3   6
ENDBRANCH   1   4
BRANCH   1   8
ATOM      8  O   UNL     1     -37.263  22.870   4.030  0.00  0.00    -0.369 OA
ATOM      9  H   UNL     1     -37.375  22.540   3.125  0.00  0.00    +0.211 HD
ENDBRANCH   1   8
BRANCH   1  11
ATOM     10  O   UNL     1     -34.957  20.831   5.033  0.00  0.00    -0.247 OA
ATOM     11  C   UNL     1     -35.591  21.843   5.303  0.00  0.00    +0.347 C 
BRANCH  11  12
ATOM     12  O   UNL     1     -36.118  22.061   6.537  0.00  0.00    -0.478 OA
ATOM     13  H   UNL     1     -35.757  22.726   7.090  0.00  0.00    +0.295 HD
ENDBRANCH  11  12
ENDBRANCH   1  11
BRANCH   1  14
ATOM     14  C   UNL     1     -35.090  22.796   2.988  0.00  0.00    +0.055 C 
ATOM     15  C   UNL     1     -34.594  24.139   2.422  0.00  0.00    +0.004 C 
BRANCH  14  16
ATOM     16  C   UNL     1     -35.876  22.022   1.908  0.00  0.00    +0.113 C 
BRANCH  16  18
ATOM     17  O   UNL     1     -34.730  19.904   1.516  0.00  0.00    -0.250 OA
ATOM     18  C   UNL     1     -35.677  20.522   1.982  0.00  0.00    +0.314 C 
BRANCH  18  19
ATOM     19  O   UNL     1     -36.687  19.922   2.664  0.00  0.00    -0.480 OA
ATOM     20  H   UNL     1     -37.168  20.402   3.308  0.00  0.00    +0.295 HD
ENDBRANCH  18  19
ENDBRANCH  16  18
ENDBRANCH  14  16
ENDBRANCH   1  14
TORSDOF 9
ENDMDL
MODEL 2
REMARK VINA RESULT:      -5.5      2.224      3.845
REMARK  Name = 195229
REMARK  9 active torsions:
REMARK  status: ('A' for Active; 'I' for Inactive)
REMARK    1  A    between atoms: C_1  and  C_4
REMARK    2  A    between atoms: C_1  and  O_8
REMARK    3  A    between atoms: C_1  and  C_11
REMARK    4  A    between atoms: C_1  and  C_14
REMARK    5  A    between atoms: N_3  and  O_6
REMARK    6  A    between atoms: C_11  and  O_12
REMARK    7  A    between atoms: C_14  and  C_16
REMARK    8  A    between atoms: C_16  and  C_18
REMARK    9  A    between atoms: C_18  and  O_19
REMARK                            x       y       z     vdW  Elec       q    Type
REMARK                         _______ _______ _______ _____ _____    ______ ____
ROOT
ATOM      1  C   UNL     1     -35.871  25.420   3.903  0.00  0.00    +0.248 C 
ENDROOT
BRANCH   1   4
ATOM      2  O   UNL     1     -37.897  24.088   3.826  0.00  0.00    -0.270 OA
ATOM      3  N   UNL     1     -38.101  26.357   3.531  0.00  0.00    -0.195 N 
ATOM      4  C   UNL     1     -37.386  25.206   3.746  0.00  0.00    +0.279 C 
ATOM      5  H   UNL     1     -37.666  27.238   3.472  0.00  0.00    +0.182 HD
BRANCH   3   6
ATOM      6  O   UNL     1     -39.487  26.200   3.401  0.00  0.00    -0.295 OA
ATOM      7  H   UNL     1     -39.685  25.295   3.112  0.00  0.00    +0.241 HD
ENDBRANCH   3   6
ENDBRANCH   1   4
BRANCH   1   8
ATOM      8  O   UNL     1     -35.686  26.841   3.835  0.00  0.00    -0.369 OA
ATOM      9  H   UNL     1     -35.134  27.131   4.578  0.00  0.00    +0.211 HD
ENDBRANCH   1   8
BRANCH   1  11
ATOM     10  O   UNL     1     -33.934  25.305   2.418  0.00  0.00    -0.247 OA
ATOM     11  C   UNL     1     -35.033  24.877   2.746  0.00  0.00    +0.347 C 
BRANCH  11  12
ATOM     12  O   UNL     1     -35.628  23.837   2.103  0.00  0.00    -0.478 OA
ATOM     13  H   UNL     1     -35.783  23.883   1.180  0.00  0.00    +0.295 HD
ENDBRANCH  11  12
ENDBRANCH   1  11
BRANCH   1  14
ATOM     14  C   UNL     1     -35.318  24.948   5.282  0.00  0.00    +0.055 C 
ATOM     15  C   UNL     1     -34.375  25.995   5.904  0.00  0.00    +0.004 C 
BRANCH  14  16
ATOM     16  C   UNL     1     -34.629  23.567   5.247  0.00  0.00    +0.113 C 
BRANCH  16  18
ATOM     17  O   UNL     1     -35.971  22.045   6.603  0.00  0.00    -0.250 OA
ATOM     18  C   UNL     1     -35.580  22.416   5.505  0.00  0.00    +0.314 C 
BRANCH  18  19
ATOM     19  O   UNL     1     -35.983  21.837   4.344  0.00  0.00    -0.480 OA
ATOM     20  H   UNL     1     -36.507  22.321   3.736  0.00  0.00    +0.295 HD
ENDBRANCH  18  19
ENDBRANCH  16  18
ENDBRANCH  14  16
ENDBRANCH   1  14
TORSDOF 9
ENDMDL
MODEL 3
REMARK VINA RESULT:      -5.5      2.303      4.361
REMARK  Name = 195229
REMARK  9 active torsions:
REMARK  status: ('A' for Active; 'I' for Inactive)
REMARK    1  A    between atoms: C_1  and  C_4
REMARK    2  A    between atoms: C_1  and  O_8
REMARK    3  A    between atoms: C_1  and  C_11
REMARK    4  A    between atoms: C_1  and  C_14
REMARK    5  A    between atoms: N_3  and  O_6
REMARK    6  A    between atoms: C_11  and  O_12
REMARK    7  A    between atoms: C_14  and  C_16
REMARK    8  A    between atoms: C_16  and  C_18
REMARK    9  A    between atoms: C_18  and  O_19
REMARK                            x       y       z     vdW  Elec       q    Type
REMARK                         _______ _______ _______ _____ _____    ______ ____
ROOT
ATOM      1  C   UNL     1     -36.777  22.142   2.142  0.00  0.00    +0.248 C 
ENDROOT
BRANCH   1   4
ATOM      2  O   UNL     1     -38.551  22.698   0.584  0.00  0.00    -0.270 OA
ATOM      3  N   UNL     1     -39.008  21.142   2.209  0.00  0.00    -0.195 N 
ATOM      4  C   UNL     1     -38.197  22.037   1.561  0.00  0.00    +0.279 C 
ATOM      5  H   UNL     1     -38.700  20.626   2.988  0.00  0.00    +0.182 HD
BRANCH   3   6
ATOM      6  O   UNL     1     -40.305  21.007   1.694  0.00  0.00    -0.295 OA
ATOM      7  H   UNL     1     -40.291  21.165   0.737  0.00  0.00    +0.241 HD
ENDBRANCH   3   6
ENDBRANCH   1   4
BRANCH   1   8
ATOM      8  O   UNL     1     -36.065  22.998   1.237  0.00  0.00    -0.369 OA
ATOM      9  H   UNL     1     -35.146  22.698   1.163  0.00  0.00    +0.211 HD
ENDBRANCH   1   8
BRANCH   1  11
ATOM     10  O   UNL     1     -34.907  20.678   1.564  0.00  0.00    -0.247 OA
ATOM     11  C   UNL     1     -35.987  20.833   2.118  0.00  0.00    +0.347 C 
BRANCH  11  12
ATOM     12  O   UNL     1     -36.603  19.830   2.799  0.00  0.00    -0.478 OA
ATOM     13  H   UNL     1     -36.115  19.303   3.401  0.00  0.00    +0.295 HD
ENDBRANCH  11  12
ENDBRANCH   1  11
BRANCH   1  14
ATOM     14  C   UNL     1     -36.729  22.814   3.548  0.00  0.00    +0.055 C 
ATOM     15  C   UNL     1     -37.136  24.297   3.482  0.00  0.00    +0.004 C 
BRANCH  14  16
ATOM     16  C   UNL     1     -35.375  22.666   4.273  0.00  0.00    +0.113 C 
BRANCH  16  18
ATOM     17  O   UNL     1     -35.884  22.337   6.638  0.00  0.00    -0.250 OA
ATOM     18  C   UNL     1     -35.474  21.895   5.574  0.00  0.00    +0.314 C 
BRANCH  18  19
ATOM     19  O   UNL     1     -35.065  20.608   5.419  0.00  0.00    -0.480 OA
ATOM     20  H   UNL     1     -35.277  19.967   6.068  0.00  0.00    +0.295 HD
ENDBRANCH  18  19
ENDBRANCH  16  18
ENDBRANCH  14  16
ENDBRANCH   1  14
TORSDOF 9
ENDMDL
MODEL 4
REMARK VINA RESULT:      -5.4      1.632      2.902
REMARK  Name = 195229
REMARK  9 active torsions:
REMARK  status: ('A' for Active; 'I' for Inactive)
REMARK    1  A    between atoms: C_1  and  C_4
REMARK    2  A    between atoms: C_1  and  O_8
REMARK    3  A    between atoms: C_1  and  C_11
REMARK    4  A    between atoms: C_1  and  C_14
REMARK    5  A    between atoms: N_3  and  O_6
REMARK    6  A    between atoms: C_11  and  O_12
REMARK    7  A    between atoms: C_14  and  C_16
REMARK    8  A    between atoms: C_16  and  C_18
REMARK    9  A    between atoms: C_18  and  O_19
REMARK                            x       y       z     vdW  Elec       q    Type
REMARK                         _______ _______ _______ _____ _____    ______ ____
ROOT
ATOM      1  C   UNL     1     -35.919  24.089   4.508  0.00  0.00    +0.248 C 
ENDROOT
BRANCH   1   4
ATOM      2  O   UNL     1     -38.117  23.838   3.512  0.00  0.00    -0.270 OA
ATOM      3  N   UNL     1     -37.363  25.971   3.909  0.00  0.00    -0.195 N 
ATOM      4  C   UNL     1     -37.243  24.605   3.920  0.00  0.00    +0.279 C 
ATOM      5  H   UNL     1     -36.649  26.561   4.241  0.00  0.00    +0.182 HD
BRANCH   3   6
ATOM      6  O   UNL     1     -38.566  26.475   3.396  0.00  0.00    -0.295 OA
ATOM      7  H   UNL     1     -39.255  26.427   4.078  0.00  0.00    +0.241 HD
ENDBRANCH   3   6
ENDBRANCH   1   4
BRANCH   1   8
ATOM      8  O   UNL     1     -35.780  24.766   5.766  0.00  0.00    -0.369 OA
ATOM      9  H   UNL     1     -36.623  25.183   6.003  0.00  0.00    +0.211 HD
ENDBRANCH   1   8
BRANCH   1  11
ATOM     10  O   UNL     1     -33.577  24.722   4.215  0.00  0.00    -0.247 OA
ATOM     11  C   UNL     1     -34.675  24.502   3.721  0.00  0.00    +0.347 C 
BRANCH  11  12
ATOM     12  O   UNL     1     -34.901  24.594   2.383  0.00  0.00    -0.478 OA
ATOM     13  H   UNL     1     -35.348  23.903   1.935  0.00  0.00    +0.295 HD
ENDBRANCH  11  12
ENDBRANCH   1  11
BRANCH   1  14
ATOM     14  C   UNL     1     -35.926  22.559   4.805  0.00  0.00    +0.055 C 
ATOM     15  C   UNL     1     -35.386  22.252   6.215  0.00  0.00    +0.004 C 
BRANCH  14  16
ATOM     16  C   UNL     1     -35.182  21.708   3.755  0.00  0.00    +0.113 C 
BRANCH  16  18
ATOM     17  O   UNL     1     -36.300  21.873   1.591  0.00  0.00    -0.250 OA
ATOM     18  C   UNL     1     -36.072  21.248   2.617  0.00  0.00    +0.314 C 
BRANCH  18  19
ATOM     19  O   UNL     1     -36.586  20.014   2.860  0.00  0.00    -0.480 OA
ATOM     20  H   UNL     1     -37.097  19.862   3.631  0.00  0.00    +0.295 HD
ENDBRANCH  18  19
ENDBRANCH  16  18
ENDBRANCH  14  16
ENDBRANCH   1  14
TORSDOF 9
ENDMDL
MODEL 5
REMARK VINA RESULT:      -5.3      2.557      4.021
REMARK  Name = 195229
REMARK  9 active torsions:
REMARK  status: ('A' for Active; 'I' for Inactive)
REMARK    1  A    between atoms: C_1  and  C_4
REMARK    2  A    between atoms: C_1  and  O_8
REMARK    3  A    between atoms: C_1  and  C_11
REMARK    4  A    between atoms: C_1  and  C_14
REMARK    5  A    between atoms: N_3  and  O_6
REMARK    6  A    between atoms: C_11  and  O_12
REMARK    7  A    between atoms: C_14  and  C_16
REMARK    8  A    between atoms: C_16  and  C_18
REMARK    9  A    between atoms: C_18  and  O_19
REMARK                            x       y       z     vdW  Elec       q    Type
REMARK                         _______ _______ _______ _____ _____    ______ ____
ROOT
ATOM      1  C   UNL     1     -35.522  25.619   3.753  0.00  0.00    +0.248 C 
ENDROOT
BRANCH   1   4
ATOM      2  O   UNL     1     -33.569  26.803   2.937  0.00  0.00    -0.270 OA
ATOM      3  N   UNL     1     -35.369  28.057   3.620  0.00  0.00    -0.195 N 
ATOM      4  C   UNL     1     -34.709  26.875   3.398  0.00  0.00    +0.279 C 
ATOM      5  H   UNL     1     -36.280  28.085   3.989  0.00  0.00    +0.182 HD
BRANCH   3   6
ATOM      6  O   UNL     1     -34.663  29.222   3.290  0.00  0.00    -0.295 OA
ATOM      7  H   UNL     1     -34.888  29.492   2.386  0.00  0.00    +0.241 HD
ENDBRANCH   3   6
ENDBRANCH   1   4
BRANCH   1   8
ATOM      8  O   UNL     1     -35.098  24.621   2.814  0.00  0.00    -0.369 OA
ATOM      9  H   UNL     1     -35.097  23.751   3.243  0.00  0.00    +0.211 HD
ENDBRANCH   1   8
BRANCH   1  11
ATOM     10  O   UNL     1     -37.530  26.344   2.562  0.00  0.00    -0.247 OA
ATOM     11  C   UNL     1     -37.026  25.750   3.507  0.00  0.00    +0.347 C 
BRANCH  11  12
ATOM     12  O   UNL     1     -37.774  25.119   4.450  0.00  0.00    -0.478 OA
ATOM     13  H   UNL     1     -37.377  24.493   5.022  0.00  0.00    +0.295 HD
ENDBRANCH  11  12
ENDBRANCH   1  11
BRANCH   1  14
ATOM     14  C   UNL     1     -35.222  25.068   5.180  0.00  0.00    +0.055 C 
ATOM     15  C   UNL     1     -34.286  26.006   5.965  0.00  0.00    +0.004 C 
BRANCH  14  16
ATOM     16  C   UNL     1     -34.666  23.628   5.197  0.00  0.00    +0.113 C 
BRANCH  16  18
ATOM     17  O   UNL     1     -35.886  22.016   6.565  0.00  0.00    -0.250 OA
ATOM     18  C   UNL     1     -35.722  22.582   5.493  0.00  0.00    +0.314 C 
BRANCH  18  19
ATOM     19  O   UNL     1     -36.508  22.352   4.409  0.00  0.00    -0.480 OA
ATOM     20  H   UNL     1     -37.376  22.704   4.376  0.00  0.00    +0.295 HD
ENDBRANCH  18  19
ENDBRANCH  16  18
ENDBRANCH  14  16
ENDBRANCH   1  14
TORSDOF 9
ENDMDL
MODEL 6
REMARK VINA RESULT:      -5.2      2.022      4.945
REMARK  Name = 195229
REMARK  9 active torsions:
REMARK  status: ('A' for Active; 'I' for Inactive)
REMARK    1  A    between atoms: C_1  and  C_4
REMARK    2  A    between atoms: C_1  and  O_8
REMARK    3  A    between atoms: C_1  and  C_11
REMARK    4  A    between atoms: C_1  and  C_14
REMARK    5  A    between atoms: N_3  and  O_6
REMARK    6  A    between atoms: C_11  and  O_12
REMARK    7  A    between atoms: C_14  and  C_16
REMARK    8  A    between atoms: C_16  and  C_18
REMARK    9  A    between atoms: C_18  and  O_19
REMARK                            x       y       z     vdW  Elec       q    Type
REMARK                         _______ _______ _______ _____ _____    ______ ____
ROOT
ATOM      1  C   UNL     1     -36.038  22.807   3.371  0.00  0.00    +0.248 C 
ENDROOT
BRANCH   1   4
ATOM      2  O   UNL     1     -34.773  21.066   2.252  0.00  0.00    -0.270 OA
ATOM      3  N   UNL     1     -36.981  20.644   2.724  0.00  0.00    -0.195 N 
ATOM      4  C   UNL     1     -35.855  21.426   2.719  0.00  0.00    +0.279 C 
ATOM      5  H   UNL     1     -37.833  20.958   3.105  0.00  0.00    +0.182 HD
BRANCH   3   6
ATOM      6  O   UNL     1     -36.845  19.371   2.154  0.00  0.00    -0.295 OA
ATOM      7  H   UNL     1     -37.289  18.716   2.714  0.00  0.00    +0.241 HD
ENDBRANCH   3   6
ENDBRANCH   1   4
BRANCH   1   8
ATOM      8  O   UNL     1     -37.416  22.853   3.767  0.00  0.00    -0.369 OA
ATOM      9  H   UNL     1     -37.473  22.969   4.728  0.00  0.00    +0.211 HD
ENDBRANCH   1   8
BRANCH   1  11
ATOM     10  O   UNL     1     -36.789  24.742   2.081  0.00  0.00    -0.247 OA
ATOM     11  C   UNL     1     -35.884  23.985   2.409  0.00  0.00    +0.347 C 
BRANCH  11  12
ATOM     12  O   UNL     1     -34.614  24.129   1.946  0.00  0.00    -0.478 OA
ATOM     13  H   UNL     1     -34.314  24.968   1.656  0.00  0.00    +0.295 HD
ENDBRANCH  11  12
ENDBRANCH   1  11
BRANCH   1  14
ATOM     14  C   UNL     1     -35.181  23.004   4.659  0.00  0.00    +0.055 C 
ATOM     15  C   UNL     1     -35.267  21.781   5.590  0.00  0.00    +0.004 C 
BRANCH  14  16
ATOM     16  C   UNL     1     -35.506  24.293   5.443  0.00  0.00    +0.113 C 
BRANCH  16  18
ATOM     17  O   UNL     1     -34.471  26.470   5.821  0.00  0.00    -0.250 OA
ATOM     18  C   UNL     1     -34.433  25.356   5.319  0.00  0.00    +0.314 C 
BRANCH  18  19
ATOM     19  O   UNL     1     -33.380  24.912   4.585  0.00  0.00    -0.480 OA
ATOM     20  H   UNL     1     -32.642  24.523   5.011  0.00  0.00    +0.295 HD
ENDBRANCH  18  19
ENDBRANCH  16  18
ENDBRANCH  14  16
ENDBRANCH   1  14
TORSDOF 9
ENDMDL
MODEL 7
REMARK VINA RESULT:      -5.2      2.613      4.427
REMARK  Name = 195229
REMARK  9 active torsions:
REMARK  status: ('A' for Active; 'I' for Inactive)
REMARK    1  A    between atoms: C_1  and  C_4
REMARK    2  A    between atoms: C_1  and  O_8
REMARK    3  A    between atoms: C_1  and  C_11
REMARK    4  A    between atoms: C_1  and  C_14
REMARK    5  A    between atoms: N_3  and  O_6
REMARK    6  A    between atoms: C_11  and  O_12
REMARK    7  A    between atoms: C_14  and  C_16
REMARK    8  A    between atoms: C_16  and  C_18
REMARK    9  A    between atoms: C_18  and  O_19
REMARK                            x       y       z     vdW  Elec       q    Type
REMARK                         _______ _______ _______ _____ _____    ______ ____
ROOT
ATOM      1  C   UNL     1     -35.005  24.937   4.385  0.00  0.00    +0.248 C 
ENDROOT
BRANCH   1   4
ATOM      2  O   UNL     1     -37.011  23.573   4.426  0.00  0.00    -0.270 OA
ATOM      3  N   UNL     1     -35.306  23.007   5.858  0.00  0.00    -0.195 N 
ATOM      4  C   UNL     1     -35.886  23.781   4.885  0.00  0.00    +0.279 C 
ATOM      5  H   UNL     1     -34.406  23.196   6.207  0.00  0.00    +0.182 HD
BRANCH   3   6
ATOM      6  O   UNL     1     -36.075  21.933   6.325  0.00  0.00    -0.295 OA
ATOM      7  H   UNL     1     -36.766  22.263   6.920  0.00  0.00    +0.241 HD
ENDBRANCH   3   6
ENDBRANCH   1   4
BRANCH   1   8
ATOM      8  O   UNL     1     -33.656  24.490   4.581  0.00  0.00    -0.369 OA
ATOM      9  H   UNL     1     -33.105  24.792   3.842  0.00  0.00    +0.211 HD
ENDBRANCH   1   8
BRANCH   1  11
ATOM     10  O   UNL     1     -34.175  26.984   5.431  0.00  0.00    -0.247 OA
ATOM     11  C   UNL     1     -35.103  26.213   5.221  0.00  0.00    +0.347 C 
BRANCH  11  12
ATOM     12  O   UNL     1     -36.351  26.428   5.715  0.00  0.00    -0.478 OA
ATOM     13  H   UNL     1     -36.558  26.174   6.593  0.00  0.00    +0.295 HD
ENDBRANCH  11  12
ENDBRANCH   1  11
BRANCH   1  14
ATOM     14  C   UNL     1     -35.177  25.235   2.864  0.00  0.00    +0.055 C 
ATOM     15  C   UNL     1     -33.821  25.263   2.135  0.00  0.00    +0.004 C 
BRANCH  14  16
ATOM     16  C   UNL     1     -35.971  26.523   2.558  0.00  0.00    +0.113 C 
BRANCH  16  18
ATOM     17  O   UNL     1     -37.957  26.105   1.203  0.00  0.00    -0.250 OA
ATOM     18  C   UNL     1     -37.443  26.272   2.300  0.00  0.00    +0.314 C 
BRANCH  18  19
ATOM     19  O   UNL     1     -38.148  26.226   3.460  0.00  0.00    -0.480 OA
ATOM     20  H   UNL     1     -39.064  26.421   3.460  0.00  0.00    +0.295 HD
ENDBRANCH  18  19
ENDBRANCH  16  18
ENDBRANCH  14  16
ENDBRANCH   1  14
TORSDOF 9
ENDMDL
MODEL 8
REMARK VINA RESULT:      -5.2      1.731      3.979
REMARK  Name = 195229
REMARK  9 active torsions:
REMARK  status: ('A' for Active; 'I' for Inactive)
REMARK    1  A    between atoms: C_1  and  C_4
REMARK    2  A    between atoms: C_1  and  O_8
REMARK    3  A    between atoms: C_1  and  C_11
REMARK    4  A    between atoms: C_1  and  C_14
REMARK    5  A    between atoms: N_3  and  O_6
REMARK    6  A    between atoms: C_11  and  O_12
REMARK    7  A    between atoms: C_14  and  C_16
REMARK    8  A    between atoms: C_16  and  C_18
REMARK    9  A    between atoms: C_18  and  O_19
REMARK                            x       y       z     vdW  Elec       q    Type
REMARK                         _______ _______ _______ _____ _____    ______ ____
ROOT
ATOM      1  C   UNL     1     -36.079  23.212   3.543  0.00  0.00    +0.248 C 
ENDROOT
BRANCH   1   4
ATOM      2  O   UNL     1     -38.250  22.971   2.489  0.00  0.00    -0.270 OA
ATOM      3  N   UNL     1     -38.018  24.600   4.091  0.00  0.00    -0.195 N 
ATOM      4  C   UNL     1     -37.555  23.574   3.307  0.00  0.00    +0.279 C 
ATOM      5  H   UNL     1     -37.440  25.065   4.737  0.00  0.00    +0.182 HD
BRANCH   3   6
ATOM      6  O   UNL     1     -39.365  24.944   3.914  0.00  0.00    -0.295 OA
ATOM      7  H   UNL     1     -39.664  25.481   4.666  0.00  0.00    +0.241 HD
ENDBRANCH   3   6
ENDBRANCH   1   4
BRANCH   1   8
ATOM      8  O   UNL     1     -35.729  22.342   2.458  0.00  0.00    -0.369 OA
ATOM      9  H   UNL     1     -35.780  21.420   2.754  0.00  0.00    +0.211 HD
ENDBRANCH   1   8
BRANCH   1  11
ATOM     10  O   UNL     1     -36.096  22.720   5.938  0.00  0.00    -0.247 OA
ATOM     11  C   UNL     1     -35.829  22.370   4.795  0.00  0.00    +0.347 C 
BRANCH  11  12
ATOM     12  O   UNL     1     -35.282  21.157   4.517  0.00  0.00    -0.478 OA
ATOM     13  H   UNL     1     -35.805  20.383   4.573  0.00  0.00    +0.295 HD
ENDBRANCH  11  12
ENDBRANCH   1  11
BRANCH   1  14
ATOM     14  C   UNL     1     -35.121  24.440   3.479  0.00  0.00    +0.055 C 
ATOM     15  C   UNL     1     -34.273  24.431   2.193  0.00  0.00    +0.004 C 
BRANCH  14  16
ATOM     16  C   UNL     1     -34.209  24.595   4.715  0.00  0.00    +0.113 C 
BRANCH  16  18
ATOM     17  O   UNL     1     -33.796  26.614   6.023  0.00  0.00    -0.250 OA
ATOM     18  C   UNL     1     -34.577  25.780   5.585  0.00  0.00    +0.314 C 
BRANCH  18  19
ATOM     19  O   UNL     1     -35.915  25.830   5.813  0.00  0.00    -0.480 OA
ATOM     20  H   UNL     1     -36.325  26.647   6.019  0.00  0.00    +0.295 HD
ENDBRANCH  18  19
ENDBRANCH  16  18
ENDBRANCH  14  16
ENDBRANCH   1  14
TORSDOF 9
ENDMDL
MODEL 9
REMARK VINA RESULT:      -5.1      2.062      3.747
REMARK  Name = 195229
REMARK  9 active torsions:
REMARK  status: ('A' for Active; 'I' for Inactive)
REMARK    1  A    between atoms: C_1  and  C_4
REMARK    2  A    between atoms: C_1  and  O_8
REMARK    3  A    between atoms: C_1  and  C_11
REMARK    4  A    between atoms: C_1  and  C_14
REMARK    5  A    between atoms: N_3  and  O_6
REMARK    6  A    between atoms: C_11  and  O_12
REMARK    7  A    between atoms: C_14  and  C_16
REMARK    8  A    between atoms: C_16  and  C_18
REMARK    9  A    between atoms: C_18  and  O_19
REMARK                            x       y       z     vdW  Elec       q    Type
REMARK                         _______ _______ _______ _____ _____    ______ ____
ROOT
ATOM      1  C   UNL     1     -35.490  25.092   4.421  0.00  0.00    +0.248 C 
ENDROOT
BRANCH   1   4
ATOM      2  O   UNL     1     -35.915  26.021   2.221  0.00  0.00    -0.270 OA
ATOM      3  N   UNL     1     -37.637  26.046   3.740  0.00  0.00    -0.195 N 
ATOM      4  C   UNL     1     -36.353  25.770   3.345  0.00  0.00    +0.279 C 
ATOM      5  H   UNL     1     -37.962  25.835   4.645  0.00  0.00    +0.182 HD
BRANCH   3   6
ATOM      6  O   UNL     1     -38.458  26.649   2.777  0.00  0.00    -0.295 OA
ATOM      7  H   UNL     1     -37.989  27.397   2.374  0.00  0.00    +0.241 HD
ENDBRANCH   3   6
ENDBRANCH   1   4
BRANCH   1   8
ATOM      8  O   UNL     1     -36.305  25.080   5.602  0.00  0.00    -0.369 OA
ATOM      9  H   UNL     1     -36.229  25.934   6.056  0.00  0.00    +0.211 HD
ENDBRANCH   1   8
BRANCH   1  11
ATOM     10  O   UNL     1     -34.139  26.523   5.870  0.00  0.00    -0.247 OA
ATOM     11  C   UNL     1     -34.250  25.887   4.830  0.00  0.00    +0.347 C 
BRANCH  11  12
ATOM     12  O   UNL     1     -33.247  25.814   3.914  0.00  0.00    -0.478 OA
ATOM     13  H   UNL     1     -32.832  26.596   3.611  0.00  0.00    +0.295 HD
ENDBRANCH  11  12
ENDBRANCH   1  11
BRANCH   1  14
ATOM     14  C   UNL     1     -35.136  23.610   4.090  0.00  0.00    +0.055 C 
ATOM     15  C   UNL     1     -36.370  22.826   3.607  0.00  0.00    +0.004 C 
BRANCH  14  16
ATOM     16  C   UNL     1     -34.443  22.853   5.243  0.00  0.00    +0.113 C 
BRANCH  16  18
ATOM     17  O   UNL     1     -36.233  22.144   6.744  0.00  0.00    -0.250 OA
ATOM     18  C   UNL     1     -35.354  21.863   5.941  0.00  0.00    +0.314 C 
BRANCH  18  19
ATOM     19  O   UNL     1     -35.095  20.589   5.547  0.00  0.00    -0.480 OA
ATOM     20  H   UNL     1     -34.253  20.210   5.708  0.00  0.00    +0.295 HD
ENDBRANCH  18  19
ENDBRANCH  16  18
ENDBRANCH  14  16
ENDBRANCH   1  14
TORSDOF 9
ENDMDL
