MODEL 1
REMARK VINA RESULT:      -5.6      0.000      0.000
REMARK  Name = 193699
REMARK  5 active torsions:
REMARK  status: ('A' for Active; 'I' for Inactive)
REMARK    1  A    between atoms: C_1  and  C_8
REMARK    2  A    between atoms: C_1  and  N_14
REMARK    3  A    between atoms: C_1  and  C_18
REMARK    4  A    between atoms: C_4  and  C_11
REMARK    5  A    between atoms: C_18  and  C_21
REMARK                            x       y       z     vdW  Elec       q    Type
REMARK                         _______ _______ _______ _____ _____    ______ ____
ROOT
ATOM      1  C   UNL     1     -35.623  25.461   4.667  0.00  0.00    +0.019 C 
ENDROOT
BRANCH   1   8
ATOM      2  O   UNL     1     -36.318  23.271   5.289  0.00  0.00    -0.277 OA
ATOM      3  N   UNL     1     -36.666  23.904   3.091  0.00  0.00    -0.275 N 
ATOM      4  C   UNL     1     -37.422  22.723   2.695  0.00  0.00    +0.151 C 
ATOM      5  C   UNL     1     -38.072  23.106   1.370  0.00  0.00    +0.031 C 
ATOM      6  C   UNL     1     -37.097  24.120   0.776  0.00  0.00    +0.024 C 
ATOM      7  C   UNL     1     -36.586  24.870   1.998  0.00  0.00    +0.094 C 
ATOM      8  C   UNL     1     -36.235  24.111   4.392  0.00  0.00    +0.206 C 
BRANCH   4  11
ATOM      9  O   UNL     1     -35.229  21.803   2.455  0.00  0.00    -0.274 OA
ATOM     10  N   UNL     1     -37.022  20.360   2.454  0.00  0.00    -0.327 N 
ATOM     11  C   UNL     1     -36.439  21.604   2.530  0.00  0.00    +0.237 C 
ATOM     12  H   UNL     1     -36.461  19.559   2.346  0.00  0.00    +0.145 HD
ATOM     13  H   UNL     1     -38.001  20.272   2.508  0.00  0.00    +0.145 HD
ENDBRANCH   4  11
ENDBRANCH   1   8
BRANCH   1  14
ATOM     14  N   UNL     1     -36.698  26.262   5.239  0.00  0.00    +0.388 N 
ATOM     15  H   UNL     1     -37.343  25.654   5.743  0.00  0.00    -0.089 HD
ATOM     16  H   UNL     1     -37.198  26.744   4.492  0.00  0.00    -0.089 HD
ATOM     17  H   UNL     1     -36.304  26.949   5.883  0.00  0.00    -0.089 HD
ENDBRANCH   1  14
BRANCH   1  18
ATOM     18  C   UNL     1     -34.443  25.349   5.634  0.00  0.00    +0.029 C 
BRANCH  18  21
ATOM     19  N   UNL     1     -32.957  27.035   6.708  0.00  0.00    -0.319 N 
ATOM     20  N   UNL     1     -32.359  28.363   5.032  0.00  0.00    -0.315 N 
ATOM     21  C   UNL     1     -33.552  26.571   5.596  0.00  0.00    +0.036 C 
ATOM     22  C   UNL     1     -33.193  27.372   4.575  0.00  0.00    +0.069 C 
ATOM     23  C   UNL     1     -32.238  28.130   6.320  0.00  0.00    +0.182 C 
ATOM     24  H   UNL     1     -33.026  26.661   7.617  0.00  0.00    +0.148 HD
ATOM     25  H   UNL     1     -31.944  29.087   4.510  0.00  0.00    +0.148 HD
ENDBRANCH  18  21
ENDBRANCH   1  18
TORSDOF 5
ENDMDL
MODEL 2
REMARK VINA RESULT:      -5.6      2.086      2.768
REMARK  Name = 193699
REMARK  5 active torsions:
REMARK  status: ('A' for Active; 'I' for Inactive)
REMARK    1  A    between atoms: C_1  and  C_8
REMARK    2  A    between atoms: C_1  and  N_14
REMARK    3  A    between atoms: C_1  and  C_18
REMARK    4  A    between atoms: C_4  and  C_11
REMARK    5  A    between atoms: C_18  and  C_21
REMARK                            x       y       z     vdW  Elec       q    Type
REMARK                         _______ _______ _______ _____ _____    ______ ____
ROOT
ATOM      1  C   UNL     1     -35.770  22.760   5.184  0.00  0.00    +0.019 C 
ENDROOT
BRANCH   1   8
ATOM      2  O   UNL     1     -34.942  20.597   4.636  0.00  0.00    -0.277 OA
ATOM      3  N   UNL     1     -36.145  21.712   3.004  0.00  0.00    -0.275 N 
ATOM      4  C   UNL     1     -36.192  20.612   2.050  0.00  0.00    +0.151 C 
ATOM      5  C   UNL     1     -37.265  21.015   1.045  0.00  0.00    +0.031 C 
ATOM      6  C   UNL     1     -37.212  22.541   1.063  0.00  0.00    +0.024 C 
ATOM      7  C   UNL     1     -36.904  22.862   2.518  0.00  0.00    +0.094 C 
ATOM      8  C   UNL     1     -35.577  21.584   4.261  0.00  0.00    +0.206 C 
BRANCH   4  11
ATOM      9  O   UNL     1     -34.427  21.373   0.628  0.00  0.00    -0.274 OA
ATOM     10  N   UNL     1     -34.127  19.401   1.775  0.00  0.00    -0.327 N 
ATOM     11  C   UNL     1     -34.838  20.521   1.413  0.00  0.00    +0.237 C 
ATOM     12  H   UNL     1     -33.226  19.250   1.411  0.00  0.00    +0.145 HD
ATOM     13  H   UNL     1     -34.522  18.750   2.400  0.00  0.00    +0.145 HD
ENDBRANCH   4  11
ENDBRANCH   1   8
BRANCH   1  14
ATOM     14  N   UNL     1     -36.050  22.182   6.492  0.00  0.00    +0.388 N 
ATOM     15  H   UNL     1     -36.850  21.554   6.422  0.00  0.00    -0.089 HD
ATOM     16  H   UNL     1     -36.260  22.928   7.156  0.00  0.00    -0.089 HD
ATOM     17  H   UNL     1     -35.234  21.661   6.815  0.00  0.00    -0.089 HD
ENDBRANCH   1  14
BRANCH   1  18
ATOM     18  C   UNL     1     -34.522  23.644   5.227  0.00  0.00    +0.029 C 
BRANCH  18  21
ATOM     19  N   UNL     1     -33.962  25.728   3.985  0.00  0.00    -0.319 N 
ATOM     20  N   UNL     1     -35.656  27.091   4.441  0.00  0.00    -0.315 N 
ATOM     21  C   UNL     1     -34.807  25.063   4.791  0.00  0.00    +0.036 C 
ATOM     22  C   UNL     1     -35.836  25.885   5.072  0.00  0.00    +0.069 C 
ATOM     23  C   UNL     1     -34.518  26.963   3.795  0.00  0.00    +0.182 C 
ATOM     24  H   UNL     1     -33.116  25.394   3.607  0.00  0.00    +0.148 HD
ATOM     25  H   UNL     1     -36.247  27.877   4.467  0.00  0.00    +0.148 HD
ENDBRANCH  18  21
ENDBRANCH   1  18
TORSDOF 5
ENDMDL
MODEL 3
REMARK VINA RESULT:      -5.6      3.348      5.858
REMARK  Name = 193699
REMARK  5 active torsions:
REMARK  status: ('A' for Active; 'I' for Inactive)
REMARK    1  A    between atoms: C_1  and  C_8
REMARK    2  A    between atoms: C_1  and  N_14
REMARK    3  A    between atoms: C_1  and  C_18
REMARK    4  A    between atoms: C_4  and  C_11
REMARK    5  A    between atoms: C_18  and  C_21
REMARK                            x       y       z     vdW  Elec       q    Type
REMARK                         _______ _______ _______ _____ _____    ______ ____
ROOT
ATOM      1  C   UNL     1     -38.476  25.501   3.090  0.00  0.00    +0.019 C 
ENDROOT
BRANCH   1   8
ATOM      2  O   UNL     1     -37.549  23.389   2.503  0.00  0.00    -0.277 OA
ATOM      3  N   UNL     1     -36.398  24.650   4.064  0.00  0.00    -0.275 N 
ATOM      4  C   UNL     1     -35.233  23.780   4.155  0.00  0.00    +0.151 C 
ATOM      5  C   UNL     1     -34.175  24.621   4.861  0.00  0.00    +0.031 C 
ATOM      6  C   UNL     1     -34.998  25.564   5.736  0.00  0.00    +0.024 C 
ATOM      7  C   UNL     1     -36.227  25.846   4.885  0.00  0.00    +0.094 C 
ATOM      8  C   UNL     1     -37.438  24.412   3.180  0.00  0.00    +0.206 C 
BRANCH   4  11
ATOM      9  O   UNL     1     -35.872  22.672   6.174  0.00  0.00    -0.274 OA
ATOM     10  N   UNL     1     -35.686  21.417   4.255  0.00  0.00    -0.327 N 
ATOM     11  C   UNL     1     -35.633  22.589   4.972  0.00  0.00    +0.237 C 
ATOM     12  H   UNL     1     -35.940  20.577   4.702  0.00  0.00    +0.145 HD
ATOM     13  H   UNL     1     -35.469  21.417   3.295  0.00  0.00    +0.145 HD
ENDBRANCH   4  11
ENDBRANCH   1   8
BRANCH   1  14
ATOM     14  N   UNL     1     -38.162  26.233   1.869  0.00  0.00    +0.388 N 
ATOM     15  H   UNL     1     -37.482  26.963   2.076  0.00  0.00    -0.089 HD
ATOM     16  H   UNL     1     -39.013  26.654   1.496  0.00  0.00    -0.089 HD
ATOM     17  H   UNL     1     -37.772  25.589   1.179  0.00  0.00    -0.089 HD
ENDBRANCH   1  14
BRANCH   1  18
ATOM     18  C   UNL     1     -39.890  24.918   3.036  0.00  0.00    +0.029 C 
BRANCH  18  21
ATOM     19  N   UNL     1     -41.281  26.659   4.148  0.00  0.00    -0.319 N 
ATOM     20  N   UNL     1     -42.551  27.453   2.508  0.00  0.00    -0.315 N 
ATOM     21  C   UNL     1     -40.954  25.993   3.027  0.00  0.00    +0.036 C 
ATOM     22  C   UNL     1     -41.721  26.469   2.029  0.00  0.00    +0.069 C 
ATOM     23  C   UNL     1     -42.261  27.542   3.787  0.00  0.00    +0.182 C 
ATOM     24  H   UNL     1     -40.894  26.536   5.045  0.00  0.00    +0.148 HD
ATOM     25  H   UNL     1     -43.217  27.976   2.005  0.00  0.00    +0.148 HD
ENDBRANCH  18  21
ENDBRANCH   1  18
TORSDOF 5
ENDMDL
MODEL 4
REMARK VINA RESULT:      -5.6      3.162      7.056
REMARK  Name = 193699
REMARK  5 active torsions:
REMARK  status: ('A' for Active; 'I' for Inactive)
REMARK    1  A    between atoms: C_1  and  C_8
REMARK    2  A    between atoms: C_1  and  N_14
REMARK    3  A    between atoms: C_1  and  C_18
REMARK    4  A    between atoms: C_4  and  C_11
REMARK    5  A    between atoms: C_18  and  C_21
REMARK                            x       y       z     vdW  Elec       q    Type
REMARK                         _______ _______ _______ _____ _____    ______ ____
ROOT
ATOM      1  C   UNL     1     -35.495  20.411   2.228  0.00  0.00    +0.019 C 
ENDROOT
BRANCH   1   8
ATOM      2  O   UNL     1     -35.834  22.651   1.498  0.00  0.00    -0.277 OA
ATOM      3  N   UNL     1     -35.441  22.325   3.754  0.00  0.00    -0.275 N 
ATOM      4  C   UNL     1     -35.679  23.702   4.166  0.00  0.00    +0.151 C 
ATOM      5  C   UNL     1     -35.834  23.632   5.681  0.00  0.00    +0.031 C 
ATOM      6  C   UNL     1     -34.977  22.429   6.070  0.00  0.00    +0.024 C 
ATOM      7  C   UNL     1     -35.175  21.468   4.908  0.00  0.00    +0.094 C 
ATOM      8  C   UNL     1     -35.611  21.898   2.447  0.00  0.00    +0.206 C 
BRANCH   4  11
ATOM      9  O   UNL     1     -33.496  24.616   4.501  0.00  0.00    -0.274 OA
ATOM     10  N   UNL     1     -34.580  25.082   2.527  0.00  0.00    -0.327 N 
ATOM     11  C   UNL     1     -34.473  24.497   3.766  0.00  0.00    +0.237 C 
ATOM     12  H   UNL     1     -33.840  25.626   2.172  0.00  0.00    +0.145 HD
ATOM     13  H   UNL     1     -35.398  24.957   1.993  0.00  0.00    +0.145 HD
ENDBRANCH   4  11
ENDBRANCH   1   8
BRANCH   1  14
ATOM     14  N   UNL     1     -36.850  19.893   2.371  0.00  0.00    +0.388 N 
ATOM     15  H   UNL     1     -37.192  19.581   1.462  0.00  0.00    -0.089 HD
ATOM     16  H   UNL     1     -37.459  20.629   2.731  0.00  0.00    -0.089 HD
ATOM     17  H   UNL     1     -36.845  19.107   3.022  0.00  0.00    -0.089 HD
ENDBRANCH   1  14
BRANCH   1  18
ATOM     18  C   UNL     1     -34.927  20.096   0.842  0.00  0.00    +0.029 C 
BRANCH  18  21
ATOM     19  N   UNL     1     -34.365  17.735   0.289  0.00  0.00    -0.319 N 
ATOM     20  N   UNL     1     -32.333  17.457   1.141  0.00  0.00    -0.315 N 
ATOM     21  C   UNL     1     -34.005  18.898   0.858  0.00  0.00    +0.036 C 
ATOM     22  C   UNL     1     -32.774  18.736   1.378  0.00  0.00    +0.069 C 
ATOM     23  C   UNL     1     -33.315  16.881   0.484  0.00  0.00    +0.182 C 
ATOM     24  H   UNL     1     -35.211  17.538  -0.175  0.00  0.00    +0.148 HD
ATOM     25  H   UNL     1     -31.472  17.060   1.406  0.00  0.00    +0.148 HD
ENDBRANCH  18  21
ENDBRANCH   1  18
TORSDOF 5
ENDMDL
MODEL 5
REMARK VINA RESULT:      -5.5      2.705      5.983
REMARK  Name = 193699
REMARK  5 active torsions:
REMARK  status: ('A' for Active; 'I' for Inactive)
REMARK    1  A    between atoms: C_1  and  C_8
REMARK    2  A    between atoms: C_1  and  N_14
REMARK    3  A    between atoms: C_1  and  C_18
REMARK    4  A    between atoms: C_4  and  C_11
REMARK    5  A    between atoms: C_18  and  C_21
REMARK                            x       y       z     vdW  Elec       q    Type
REMARK                         _______ _______ _______ _____ _____    ______ ____
ROOT
ATOM      1  C   UNL     1     -35.361  21.694   3.687  0.00  0.00    +0.019 C 
ENDROOT
BRANCH   1   8
ATOM      2  O   UNL     1     -37.497  22.708   3.411  0.00  0.00    -0.277 OA
ATOM      3  N   UNL     1     -35.827  24.004   4.352  0.00  0.00    -0.275 N 
ATOM      4  C   UNL     1     -36.668  25.147   4.682  0.00  0.00    +0.151 C 
ATOM      5  C   UNL     1     -35.833  25.976   5.651  0.00  0.00    +0.031 C 
ATOM      6  C   UNL     1     -34.396  25.666   5.236  0.00  0.00    +0.024 C 
ATOM      7  C   UNL     1     -34.460  24.202   4.827  0.00  0.00    +0.094 C 
ATOM      8  C   UNL     1     -36.336  22.838   3.802  0.00  0.00    +0.206 C 
BRANCH   4  11
ATOM      9  O   UNL     1     -36.039  26.140   2.601  0.00  0.00    -0.274 OA
ATOM     10  N   UNL     1     -38.247  26.252   3.237  0.00  0.00    -0.327 N 
ATOM     11  C   UNL     1     -36.933  25.884   3.403  0.00  0.00    +0.237 C 
ATOM     12  H   UNL     1     -38.524  26.740   2.429  0.00  0.00    +0.145 HD
ATOM     13  H   UNL     1     -38.912  26.025   3.927  0.00  0.00    +0.145 HD
ENDBRANCH   4  11
ENDBRANCH   1   8
BRANCH   1  14
ATOM     14  N   UNL     1     -35.396  21.027   4.982  0.00  0.00    +0.388 N 
ATOM     15  H   UNL     1     -36.042  20.239   4.942  0.00  0.00    -0.089 HD
ATOM     16  H   UNL     1     -35.706  21.686   5.696  0.00  0.00    -0.089 HD
ATOM     17  H   UNL     1     -34.461  20.689   5.215  0.00  0.00    -0.089 HD
ENDBRANCH   1  14
BRANCH   1  18
ATOM     18  C   UNL     1     -35.759  20.736   2.562  0.00  0.00    +0.029 C 
BRANCH  18  21
ATOM     19  N   UNL     1     -33.965  19.160   1.855  0.00  0.00    -0.319 N 
ATOM     20  N   UNL     1     -32.927  20.236   0.213  0.00  0.00    -0.315 N 
ATOM     21  C   UNL     1     -34.581  20.344   1.698  0.00  0.00    +0.036 C 
ATOM     22  C   UNL     1     -33.955  21.002   0.704  0.00  0.00    +0.069 C 
ATOM     23  C   UNL     1     -32.961  19.133   0.928  0.00  0.00    +0.182 C 
ATOM     24  H   UNL     1     -34.192  18.455   2.505  0.00  0.00    +0.148 HD
ATOM     25  H   UNL     1     -32.302  20.462  -0.513  0.00  0.00    +0.148 HD
ENDBRANCH  18  21
ENDBRANCH   1  18
TORSDOF 5
ENDMDL
MODEL 6
REMARK VINA RESULT:      -5.4      1.647      2.010
REMARK  Name = 193699
REMARK  5 active torsions:
REMARK  status: ('A' for Active; 'I' for Inactive)
REMARK    1  A    between atoms: C_1  and  C_8
REMARK    2  A    between atoms: C_1  and  N_14
REMARK    3  A    between atoms: C_1  and  C_18
REMARK    4  A    between atoms: C_4  and  C_11
REMARK    5  A    between atoms: C_18  and  C_21
REMARK                            x       y       z     vdW  Elec       q    Type
REMARK                         _______ _______ _______ _____ _____    ______ ____
ROOT
ATOM      1  C   UNL     1     -36.902  25.397   3.546  0.00  0.00    +0.019 C 
ENDROOT
BRANCH   1   8
ATOM      2  O   UNL     1     -38.218  23.417   3.438  0.00  0.00    -0.277 OA
ATOM      3  N   UNL     1     -36.253  23.444   2.219  0.00  0.00    -0.275 N 
ATOM      4  C   UNL     1     -36.460  22.172   1.540  0.00  0.00    +0.151 C 
ATOM      5  C   UNL     1     -35.447  22.171   0.400  0.00  0.00    +0.031 C 
ATOM      6  C   UNL     1     -34.308  23.035   0.937  0.00  0.00    +0.024 C 
ATOM      7  C   UNL     1     -35.030  24.096   1.755  0.00  0.00    +0.094 C 
ATOM      8  C   UNL     1     -37.198  23.998   3.068  0.00  0.00    +0.206 C 
BRANCH   4  11
ATOM      9  O   UNL     1     -35.437  21.266   3.501  0.00  0.00    -0.274 OA
ATOM     10  N   UNL     1     -36.802  19.897   2.254  0.00  0.00    -0.327 N 
ATOM     11  C   UNL     1     -36.176  21.088   2.537  0.00  0.00    +0.237 C 
ATOM     12  H   UNL     1     -36.680  19.123   2.849  0.00  0.00    +0.145 HD
ATOM     13  H   UNL     1     -37.373  19.819   1.455  0.00  0.00    +0.145 HD
ENDBRANCH   4  11
ENDBRANCH   1   8
BRANCH   1  14
ATOM     14  N   UNL     1     -38.182  26.093   3.518  0.00  0.00    +0.388 N 
ATOM     15  H   UNL     1     -38.852  25.549   2.975  0.00  0.00    -0.089 HD
ATOM     16  H   UNL     1     -38.061  27.011   3.090  0.00  0.00    -0.089 HD
ATOM     17  H   UNL     1     -38.528  26.205   4.472  0.00  0.00    -0.089 HD
ENDBRANCH   1  14
BRANCH   1  18
ATOM     18  C   UNL     1     -36.309  25.388   4.956  0.00  0.00    +0.029 C 
BRANCH  18  21
ATOM     19  N   UNL     1     -34.646  27.009   4.057  0.00  0.00    -0.319 N 
ATOM     20  N   UNL     1     -33.076  27.088   5.626  0.00  0.00    -0.315 N 
ATOM     21  C   UNL     1     -35.020  26.175   5.042  0.00  0.00    +0.036 C 
ATOM     22  C   UNL     1     -34.072  26.218   5.996  0.00  0.00    +0.069 C 
ATOM     23  C   UNL     1     -33.453  27.547   4.453  0.00  0.00    +0.182 C 
ATOM     24  H   UNL     1     -35.132  27.195   3.221  0.00  0.00    +0.148 HD
ATOM     25  H   UNL     1     -32.260  27.317   6.127  0.00  0.00    +0.148 HD
ENDBRANCH  18  21
ENDBRANCH   1  18
TORSDOF 5
ENDMDL
MODEL 7
REMARK VINA RESULT:      -5.4      2.520      5.795
REMARK  Name = 193699
REMARK  5 active torsions:
REMARK  status: ('A' for Active; 'I' for Inactive)
REMARK    1  A    between atoms: C_1  and  C_8
REMARK    2  A    between atoms: C_1  and  N_14
REMARK    3  A    between atoms: C_1  and  C_18
REMARK    4  A    between atoms: C_4  and  C_11
REMARK    5  A    between atoms: C_18  and  C_21
REMARK                            x       y       z     vdW  Elec       q    Type
REMARK                         _______ _______ _______ _____ _____    ______ ____
ROOT
ATOM      1  C   UNL     1     -36.252  25.452   4.124  0.00  0.00    +0.019 C 
ENDROOT
BRANCH   1   8
ATOM      2  O   UNL     1     -35.319  26.695   2.320  0.00  0.00    -0.277 OA
ATOM      3  N   UNL     1     -34.196  26.764   4.342  0.00  0.00    -0.275 N 
ATOM      4  C   UNL     1     -33.212  27.765   3.952  0.00  0.00    +0.151 C 
ATOM      5  C   UNL     1     -32.594  28.233   5.265  0.00  0.00    +0.031 C 
ATOM      6  C   UNL     1     -32.717  27.009   6.170  0.00  0.00    +0.024 C 
ATOM      7  C   UNL     1     -34.042  26.394   5.747  0.00  0.00    +0.094 C 
ATOM      8  C   UNL     1     -35.223  26.362   3.502  0.00  0.00    +0.206 C 
BRANCH   4  11
ATOM      9  O   UNL     1     -32.171  25.858   2.956  0.00  0.00    -0.274 OA
ATOM     10  N   UNL     1     -31.338  27.942   2.450  0.00  0.00    -0.327 N 
ATOM     11  C   UNL     1     -32.207  27.080   3.076  0.00  0.00    +0.237 C 
ATOM     12  H   UNL     1     -30.640  27.590   1.852  0.00  0.00    +0.145 HD
ATOM     13  H   UNL     1     -31.414  28.913   2.600  0.00  0.00    +0.145 HD
ENDBRANCH   4  11
ENDBRANCH   1   8
BRANCH   1  14
ATOM     14  N   UNL     1     -37.534  26.101   3.885  0.00  0.00    +0.388 N 
ATOM     15  H   UNL     1     -38.039  25.598   3.156  0.00  0.00    -0.089 HD
ATOM     16  H   UNL     1     -37.378  27.065   3.589  0.00  0.00    -0.089 HD
ATOM     17  H   UNL     1     -38.083  26.095   4.746  0.00  0.00    -0.089 HD
ENDBRANCH   1  14
BRANCH   1  18
ATOM     18  C   UNL     1     -36.213  24.058   3.495  0.00  0.00    +0.029 C 
BRANCH  18  21
ATOM     19  N   UNL     1     -35.854  23.229   5.816  0.00  0.00    -0.319 N 
ATOM     20  N   UNL     1     -35.195  21.127   5.535  0.00  0.00    -0.315 N 
ATOM     21  C   UNL     1     -35.831  22.988   4.494  0.00  0.00    +0.036 C 
ATOM     22  C   UNL     1     -35.431  21.715   4.317  0.00  0.00    +0.069 C 
ATOM     23  C   UNL     1     -35.459  22.066   6.417  0.00  0.00    +0.182 C 
ATOM     24  H   UNL     1     -36.104  24.071   6.261  0.00  0.00    +0.148 HD
ATOM     25  H   UNL     1     -34.894  20.206   5.710  0.00  0.00    +0.148 HD
ENDBRANCH  18  21
ENDBRANCH   1  18
TORSDOF 5
ENDMDL
MODEL 8
REMARK VINA RESULT:      -5.3      3.040      6.883
REMARK  Name = 193699
REMARK  5 active torsions:
REMARK  status: ('A' for Active; 'I' for Inactive)
REMARK    1  A    between atoms: C_1  and  C_8
REMARK    2  A    between atoms: C_1  and  N_14
REMARK    3  A    between atoms: C_1  and  C_18
REMARK    4  A    between atoms: C_4  and  C_11
REMARK    5  A    between atoms: C_18  and  C_21
REMARK                            x       y       z     vdW  Elec       q    Type
REMARK                         _______ _______ _______ _____ _____    ______ ____
ROOT
ATOM      1  C   UNL     1     -34.320  26.397   4.456  0.00  0.00    +0.019 C 
ENDROOT
BRANCH   1   8
ATOM      2  O   UNL     1     -32.922  26.631   6.368  0.00  0.00    -0.277 OA
ATOM      3  N   UNL     1     -32.564  28.095   4.613  0.00  0.00    -0.275 N 
ATOM      4  C   UNL     1     -31.367  28.721   5.160  0.00  0.00    +0.151 C 
ATOM      5  C   UNL     1     -30.749  29.469   3.983  0.00  0.00    +0.031 C 
ATOM      6  C   UNL     1     -31.954  29.818   3.113  0.00  0.00    +0.024 C 
ATOM      7  C   UNL     1     -32.867  28.613   3.281  0.00  0.00    +0.094 C 
ATOM      8  C   UNL     1     -33.205  27.040   5.242  0.00  0.00    +0.206 C 
BRANCH   4  11
ATOM      9  O   UNL     1     -32.421  30.696   5.998  0.00  0.00    -0.274 OA
ATOM     10  N   UNL     1     -31.460  29.250   7.508  0.00  0.00    -0.327 N 
ATOM     11  C   UNL     1     -31.812  29.657   6.242  0.00  0.00    +0.237 C 
ATOM     12  H   UNL     1     -31.707  29.796   8.288  0.00  0.00    +0.145 HD
ATOM     13  H   UNL     1     -30.960  28.410   7.633  0.00  0.00    +0.145 HD
ENDBRANCH   4  11
ENDBRANCH   1   8
BRANCH   1  14
ATOM     14  N   UNL     1     -33.691  25.318   3.705  0.00  0.00    +0.388 N 
ATOM     15  H   UNL     1     -34.112  24.429   3.970  0.00  0.00    -0.089 HD
ATOM     16  H   UNL     1     -32.692  25.298   3.912  0.00  0.00    -0.089 HD
ATOM     17  H   UNL     1     -33.828  25.476   2.706  0.00  0.00    -0.089 HD
ENDBRANCH   1  14
BRANCH   1  18
ATOM     18  C   UNL     1     -35.414  25.860   5.382  0.00  0.00    +0.029 C 
BRANCH  18  21
ATOM     19  N   UNL     1     -35.118  23.466   6.000  0.00  0.00    -0.319 N 
ATOM     20  N   UNL     1     -36.313  22.372   4.481  0.00  0.00    -0.315 N 
ATOM     21  C   UNL     1     -35.662  24.382   5.180  0.00  0.00    +0.036 C 
ATOM     22  C   UNL     1     -36.387  23.724   4.257  0.00  0.00    +0.069 C 
ATOM     23  C   UNL     1     -35.540  22.250   5.539  0.00  0.00    +0.182 C 
ATOM     24  H   UNL     1     -34.534  23.636   6.775  0.00  0.00    +0.148 HD
ATOM     25  H   UNL     1     -36.742  21.652   3.965  0.00  0.00    +0.148 HD
ENDBRANCH  18  21
ENDBRANCH   1  18
TORSDOF 5
ENDMDL
MODEL 9
REMARK VINA RESULT:      -5.3      3.064      6.338
REMARK  Name = 193699
REMARK  5 active torsions:
REMARK  status: ('A' for Active; 'I' for Inactive)
REMARK    1  A    between atoms: C_1  and  C_8
REMARK    2  A    between atoms: C_1  and  N_14
REMARK    3  A    between atoms: C_1  and  C_18
REMARK    4  A    between atoms: C_4  and  C_11
REMARK    5  A    between atoms: C_18  and  C_21
REMARK                            x       y       z     vdW  Elec       q    Type
REMARK                         _______ _______ _______ _____ _____    ______ ____
ROOT
ATOM      1  C   UNL     1     -37.423  21.638   2.323  0.00  0.00    +0.019 C 
ENDROOT
BRANCH   1   8
ATOM      2  O   UNL     1     -38.501  23.760   2.272  0.00  0.00    -0.277 OA
ATOM      3  N   UNL     1     -36.651  23.550   3.645  0.00  0.00    -0.275 N 
ATOM      4  C   UNL     1     -36.758  24.861   4.271  0.00  0.00    +0.151 C 
ATOM      5  C   UNL     1     -35.842  24.786   5.488  0.00  0.00    +0.031 C 
ATOM      6  C   UNL     1     -34.775  23.777   5.067  0.00  0.00    +0.024 C 
ATOM      7  C   UNL     1     -35.553  22.778   4.223  0.00  0.00    +0.094 C 
ATOM      8  C   UNL     1     -37.588  23.078   2.739  0.00  0.00    +0.206 C 
BRANCH   4  11
ATOM      9  O   UNL     1     -35.084  25.989   2.990  0.00  0.00    -0.274 OA
ATOM     10  N   UNL     1     -37.276  26.638   2.729  0.00  0.00    -0.327 N 
ATOM     11  C   UNL     1     -36.274  25.868   3.271  0.00  0.00    +0.237 C 
ATOM     12  H   UNL     1     -37.061  27.328   2.062  0.00  0.00    +0.145 HD
ATOM     13  H   UNL     1     -38.210  26.498   3.009  0.00  0.00    +0.145 HD
ENDBRANCH   4  11
ENDBRANCH   1   8
BRANCH   1  14
ATOM     14  N   UNL     1     -38.777  21.112   2.212  0.00  0.00    +0.388 N 
ATOM     15  H   UNL     1     -38.991  20.548   3.034  0.00  0.00    -0.089 HD
ATOM     16  H   UNL     1     -38.851  20.535   1.374  0.00  0.00    -0.089 HD
ATOM     17  H   UNL     1     -39.439  21.887   2.150  0.00  0.00    -0.089 HD
ENDBRANCH   1  14
BRANCH   1  18
ATOM     18  C   UNL     1     -36.676  21.526   0.993  0.00  0.00    +0.029 C 
BRANCH  18  21
ATOM     19  N   UNL     1     -34.515  20.455   1.613  0.00  0.00    -0.319 N 
ATOM     20  N   UNL     1     -34.626  18.447   0.672  0.00  0.00    -0.315 N 
ATOM     21  C   UNL     1     -35.697  20.373   0.980  0.00  0.00    +0.036 C 
ATOM     22  C   UNL     1     -35.771  19.157   0.407  0.00  0.00    +0.069 C 
ATOM     23  C   UNL     1     -33.891  19.257   1.401  0.00  0.00    +0.182 C 
ATOM     24  H   UNL     1     -34.169  21.222   2.126  0.00  0.00    +0.148 HD
ATOM     25  H   UNL     1     -34.404  17.533   0.381  0.00  0.00    +0.148 HD
ENDBRANCH  18  21
ENDBRANCH   1  18
TORSDOF 5
ENDMDL
