MODEL 1
REMARK VINA RESULT:      -7.3      0.000      0.000
REMARK  Name = 5470400
REMARK  7 active torsions:
REMARK  status: ('A' for Active; 'I' for Inactive)
REMARK    1  A    between atoms: C_5  and  O_22
REMARK    2  A    between atoms: C_10  and  O_24
REMARK    3  A    between atoms: C_16  and  C_28
REMARK    4  A    between atoms: C_20  and  O_26
REMARK    5  A    between atoms: C_28  and  C_29
REMARK    6  A    between atoms: C_29  and  C_30
REMARK    7  A    between atoms: C_30  and  O_33
REMARK                            x       y       z     vdW  Elec       q    Type
REMARK                         _______ _______ _______ _____ _____    ______ ____
ROOT
ATOM      1  O   UNL     1     -41.187  27.285   3.541  0.00  0.00    -0.441 OA
ATOM      2  O   UNL     1     -42.332  28.638   1.946  0.00  0.00    -0.438 OA
ATOM      3  O   UNL     1     -37.705  24.017   3.750  0.00  0.00    -0.453 OA
ATOM      4  O   UNL     1     -39.456  21.919   0.703  0.00  0.00    -0.286 OA
ATOM      5  C   UNL     1     -42.440  26.223   1.715  0.00  0.00    +0.212 C 
ATOM      6  C   UNL     1     -42.370  27.407   2.709  0.00  0.00    +0.375 C 
ATOM      7  C   UNL     1     -41.218  25.475   2.099  0.00  0.00    +0.081 C 
ATOM      8  C   UNL     1     -40.570  26.132   3.134  0.00  0.00    +0.147 C 
ATOM      9  C   UNL     1     -42.403  26.920   0.413  0.00  0.00    +0.052 C 
ATOM     10  C   UNL     1     -40.708  24.298   1.576  0.00  0.00    +0.141 C 
ATOM     11  C   UNL     1     -39.523  23.794   2.126  0.00  0.00    +0.107 A 
ATOM     12  C   UNL     1     -38.870  24.462   3.173  0.00  0.00    +0.154 A 
ATOM     13  C   UNL     1     -39.398  25.650   3.687  0.00  0.00    +0.075 C 
ATOM     14  C   UNL     1     -42.352  28.228   0.633  0.00  0.00    +0.175 C 
ATOM     15  C   UNL     1     -37.147  22.854   3.282  0.00  0.00    +0.147 A 
ATOM     16  C   UNL     1     -35.966  22.438   3.899  0.00  0.00    +0.013 C 
ATOM     17  C   UNL     1     -37.691  22.090   2.249  0.00  0.00    +0.107 A 
ATOM     18  C   UNL     1     -38.936  22.546   1.613  0.00  0.00    +0.207 A 
ATOM     19  C   UNL     1     -35.335  21.265   3.484  0.00  0.00    +0.002 C 
ATOM     20  C   UNL     1     -37.063  20.916   1.828  0.00  0.00    +0.140 C 
ATOM     21  C   UNL     1     -35.883  20.505   2.450  0.00  0.00    +0.037 C 
ENDROOT
BRANCH   5  22
ATOM     22  O   UNL     1     -43.644  25.499   1.875  0.00  0.00    -0.372 OA
ATOM     23  H   UNL     1     -44.358  26.110   2.116  0.00  0.00    +0.211 HD
ENDBRANCH   5  22
BRANCH  10  24
ATOM     24  O   UNL     1     -41.373  23.683   0.563  0.00  0.00    -0.505 OA
ATOM     25  H   UNL     1     -40.895  23.238  -0.109  0.00  0.00    +0.292 HD
ENDBRANCH  10  24
BRANCH  20  26
ATOM     26  O   UNL     1     -37.554  20.135   0.826  0.00  0.00    -0.505 OA
ATOM     27  H   UNL     1     -37.750  19.233   0.987  0.00  0.00    +0.292 HD
ENDBRANCH  20  26
BRANCH  16  28
ATOM     28  C   UNL     1     -35.355  23.229   5.010  0.00  0.00    +0.032 C 
BRANCH  28  29
ATOM     29  C   UNL     1     -34.467  24.373   4.484  0.00  0.00    +0.032 C 
BRANCH  29  30
ATOM     30  C   UNL     1     -34.870  25.782   4.964  0.00  0.00    +0.089 C 
ATOM     31  C   UNL     1     -33.856  26.281   6.000  0.00  0.00    +0.029 C 
ATOM     32  C   UNL     1     -34.976  26.783   3.813  0.00  0.00    +0.029 C 
BRANCH  30  33
ATOM     33  O   UNL     1     -36.145  25.691   5.606  0.00  0.00    -0.387 OA
ATOM     34  H   UNL     1     -36.629  24.927   5.257  0.00  0.00    +0.210 HD
ENDBRANCH  30  33
ENDBRANCH  29  30
ENDBRANCH  28  29
ENDBRANCH  16  28
TORSDOF 7
ENDMDL
MODEL 2
REMARK VINA RESULT:      -7.1      1.568      2.091
REMARK  Name = 5470400
REMARK  7 active torsions:
REMARK  status: ('A' for Active; 'I' for Inactive)
REMARK    1  A    between atoms: C_5  and  O_22
REMARK    2  A    between atoms: C_10  and  O_24
REMARK    3  A    between atoms: C_16  and  C_28
REMARK    4  A    between atoms: C_20  and  O_26
REMARK    5  A    between atoms: C_28  and  C_29
REMARK    6  A    between atoms: C_29  and  C_30
REMARK    7  A    between atoms: C_30  and  O_33
REMARK                            x       y       z     vdW  Elec       q    Type
REMARK                         _______ _______ _______ _____ _____    ______ ____
ROOT
ATOM      1  O   UNL     1     -41.059  27.111   1.710  0.00  0.00    -0.441 OA
ATOM      2  O   UNL     1     -41.930  27.313  -0.501  0.00  0.00    -0.438 OA
ATOM      3  O   UNL     1     -37.359  25.164   4.028  0.00  0.00    -0.453 OA
ATOM      4  O   UNL     1     -38.024  21.593   2.143  0.00  0.00    -0.286 OA
ATOM      5  C   UNL     1     -41.676  25.093   0.453  0.00  0.00    +0.212 C 
ATOM      6  C   UNL     1     -42.003  26.577   0.745  0.00  0.00    +0.375 C 
ATOM      7  C   UNL     1     -40.505  24.894   1.340  0.00  0.00    +0.081 C 
ATOM      8  C   UNL     1     -40.221  26.071   2.016  0.00  0.00    +0.147 C 
ATOM      9  C   UNL     1     -41.404  25.126  -0.999  0.00  0.00    +0.052 C 
ATOM     10  C   UNL     1     -39.739  23.758   1.542  0.00  0.00    +0.141 C 
ATOM     11  C   UNL     1     -38.674  23.835   2.448  0.00  0.00    +0.107 A 
ATOM     12  C   UNL     1     -38.390  25.028   3.130  0.00  0.00    +0.154 A 
ATOM     13  C   UNL     1     -39.173  26.166   2.912  0.00  0.00    +0.075 C 
ATOM     14  C   UNL     1     -41.571  26.369  -1.436  0.00  0.00    +0.175 C 
ATOM     15  C   UNL     1     -36.563  24.075   4.278  0.00  0.00    +0.147 A 
ATOM     16  C   UNL     1     -35.530  24.258   5.199  0.00  0.00    +0.013 C 
ATOM     17  C   UNL     1     -36.734  22.830   3.673  0.00  0.00    +0.107 A 
ATOM     18  C   UNL     1     -37.829  22.659   2.705  0.00  0.00    +0.207 A 
ATOM     19  C   UNL     1     -34.675  23.200   5.511  0.00  0.00    +0.002 C 
ATOM     20  C   UNL     1     -35.881  21.768   3.980  0.00  0.00    +0.140 C 
ATOM     21  C   UNL     1     -34.850  21.957   4.902  0.00  0.00    +0.037 C 
ENDROOT
BRANCH   5  22
ATOM     22  O   UNL     1     -42.783  24.264   0.748  0.00  0.00    -0.372 OA
ATOM     23  H   UNL     1     -43.604  24.767   0.627  0.00  0.00    +0.211 HD
ENDBRANCH   5  22
BRANCH  10  24
ATOM     24  O   UNL     1     -40.050  22.623   0.862  0.00  0.00    -0.505 OA
ATOM     25  H   UNL     1     -39.369  22.103   0.481  0.00  0.00    +0.292 HD
ENDBRANCH  10  24
BRANCH  20  26
ATOM     26  O   UNL     1     -36.007  20.534   3.417  0.00  0.00    -0.505 OA
ATOM     27  H   UNL     1     -35.708  20.386   2.541  0.00  0.00    +0.292 HD
ENDBRANCH  20  26
BRANCH  16  28
ATOM     28  C   UNL     1     -35.317  25.576   5.870  0.00  0.00    +0.032 C 
BRANCH  28  29
ATOM     29  C   UNL     1     -33.975  26.218   5.468  0.00  0.00    +0.032 C 
BRANCH  29  30
ATOM     30  C   UNL     1     -33.989  26.963   4.118  0.00  0.00    +0.089 C 
ATOM     31  C   UNL     1     -32.979  28.115   4.156  0.00  0.00    +0.029 C 
ATOM     32  C   UNL     1     -33.683  26.038   2.938  0.00  0.00    +0.029 C 
BRANCH  30  33
ATOM     33  O   UNL     1     -35.290  27.525   3.928  0.00  0.00    -0.387 OA
ATOM     34  H   UNL     1     -35.896  27.173   4.598  0.00  0.00    +0.210 HD
ENDBRANCH  30  33
ENDBRANCH  29  30
ENDBRANCH  28  29
ENDBRANCH  16  28
TORSDOF 7
ENDMDL
MODEL 3
REMARK VINA RESULT:      -6.5      4.181      8.152
REMARK  Name = 5470400
REMARK  7 active torsions:
REMARK  status: ('A' for Active; 'I' for Inactive)
REMARK    1  A    between atoms: C_5  and  O_22
REMARK    2  A    between atoms: C_10  and  O_24
REMARK    3  A    between atoms: C_16  and  C_28
REMARK    4  A    between atoms: C_20  and  O_26
REMARK    5  A    between atoms: C_28  and  C_29
REMARK    6  A    between atoms: C_29  and  C_30
REMARK    7  A    between atoms: C_30  and  O_33
REMARK                            x       y       z     vdW  Elec       q    Type
REMARK                         _______ _______ _______ _____ _____    ______ ____
ROOT
ATOM      1  O   UNL     1     -34.788  23.865   4.821  0.00  0.00    -0.441 OA
ATOM      2  O   UNL     1     -36.872  22.936   4.126  0.00  0.00    -0.438 OA
ATOM      3  O   UNL     1     -32.618  28.104   5.232  0.00  0.00    -0.453 OA
ATOM      4  O   UNL     1     -33.695  29.055   1.399  0.00  0.00    -0.286 OA
ATOM      5  C   UNL     1     -35.553  24.180   2.509  0.00  0.00    +0.212 C 
ATOM      6  C   UNL     1     -35.509  23.233   3.732  0.00  0.00    +0.375 C 
ATOM      7  C   UNL     1     -34.796  25.340   3.038  0.00  0.00    +0.081 C 
ATOM      8  C   UNL     1     -34.396  25.086   4.341  0.00  0.00    +0.147 C 
ATOM      9  C   UNL     1     -37.007  24.371   2.329  0.00  0.00    +0.052 C 
ATOM     10  C   UNL     1     -34.479  26.538   2.420  0.00  0.00    +0.141 C 
ATOM     11  C   UNL     1     -33.742  27.480   3.149  0.00  0.00    +0.107 A 
ATOM     12  C   UNL     1     -33.340  27.219   4.468  0.00  0.00    +0.154 A 
ATOM     13  C   UNL     1     -33.671  26.005   5.076  0.00  0.00    +0.075 C 
ATOM     14  C   UNL     1     -37.647  23.654   3.244  0.00  0.00    +0.175 C 
ATOM     15  C   UNL     1     -32.267  29.310   4.678  0.00  0.00    +0.147 A 
ATOM     16  C   UNL     1     -31.532  30.176   5.490  0.00  0.00    +0.013 C 
ATOM     17  C   UNL     1     -32.599  29.697   3.380  0.00  0.00    +0.107 A 
ATOM     18  C   UNL     1     -33.374  28.769   2.543  0.00  0.00    +0.207 A 
ATOM     19  C   UNL     1     -31.134  31.422   5.002  0.00  0.00    +0.002 C 
ATOM     20  C   UNL     1     -32.204  30.943   2.888  0.00  0.00    +0.140 C 
ATOM     21  C   UNL     1     -31.470  31.804   3.704  0.00  0.00    +0.037 C 
ENDROOT
BRANCH   5  22
ATOM     22  O   UNL     1     -34.971  23.569   1.375  0.00  0.00    -0.372 OA
ATOM     23  H   UNL     1     -35.054  24.162   0.610  0.00  0.00    +0.211 HD
ENDBRANCH   5  22
BRANCH  10  24
ATOM     24  O   UNL     1     -34.887  26.749   1.141  0.00  0.00    -0.505 OA
ATOM     25  H   UNL     1     -35.750  27.074   0.972  0.00  0.00    +0.292 HD
ENDBRANCH  10  24
BRANCH  20  26
ATOM     26  O   UNL     1     -32.503  31.366   1.628  0.00  0.00    -0.505 OA
ATOM     27  H   UNL     1     -33.162  30.925   1.129  0.00  0.00    +0.292 HD
ENDBRANCH  20  26
BRANCH  16  28
ATOM     28  C   UNL     1     -31.156  29.795   6.885  0.00  0.00    +0.032 C 
BRANCH  28  29
ATOM     29  C   UNL     1     -29.633  29.627   7.046  0.00  0.00    +0.032 C 
BRANCH  29  30
ATOM     30  C   UNL     1     -29.081  28.255   6.609  0.00  0.00    +0.089 C 
ATOM     31  C   UNL     1     -28.679  28.310   5.131  0.00  0.00    +0.029 C 
ATOM     32  C   UNL     1     -27.889  27.807   7.458  0.00  0.00    +0.029 C 
BRANCH  30  33
ATOM     33  O   UNL     1     -30.124  27.286   6.745  0.00  0.00    -0.387 OA
ATOM     34  H   UNL     1     -30.960  27.666   6.435  0.00  0.00    +0.210 HD
ENDBRANCH  30  33
ENDBRANCH  29  30
ENDBRANCH  28  29
ENDBRANCH  16  28
TORSDOF 7
ENDMDL
MODEL 4
REMARK VINA RESULT:      -6.4      1.366      1.996
REMARK  Name = 5470400
REMARK  7 active torsions:
REMARK  status: ('A' for Active; 'I' for Inactive)
REMARK    1  A    between atoms: C_5  and  O_22
REMARK    2  A    between atoms: C_10  and  O_24
REMARK    3  A    between atoms: C_16  and  C_28
REMARK    4  A    between atoms: C_20  and  O_26
REMARK    5  A    between atoms: C_28  and  C_29
REMARK    6  A    between atoms: C_29  and  C_30
REMARK    7  A    between atoms: C_30  and  O_33
REMARK                            x       y       z     vdW  Elec       q    Type
REMARK                         _______ _______ _______ _____ _____    ______ ____
ROOT
ATOM      1  O   UNL     1     -40.767  27.080   3.017  0.00  0.00    -0.441 OA
ATOM      2  O   UNL     1     -42.203  28.628   1.910  0.00  0.00    -0.438 OA
ATOM      3  O   UNL     1     -37.950  23.344   2.036  0.00  0.00    -0.453 OA
ATOM      4  O   UNL     1     -40.964  21.607  -0.122  0.00  0.00    -0.286 OA
ATOM      5  C   UNL     1     -42.732  26.260   1.793  0.00  0.00    +0.212 C 
ATOM      6  C   UNL     1     -42.140  27.393   2.665  0.00  0.00    +0.375 C 
ATOM      7  C   UNL     1     -41.575  25.336   1.728  0.00  0.00    +0.081 C 
ATOM      8  C   UNL     1     -40.511  25.863   2.443  0.00  0.00    +0.147 C 
ATOM      9  C   UNL     1     -43.067  26.983   0.548  0.00  0.00    +0.052 C 
ATOM     10  C   UNL     1     -41.462  24.113   1.086  0.00  0.00    +0.141 C 
ATOM     11  C   UNL     1     -40.243  23.430   1.183  0.00  0.00    +0.107 A 
ATOM     12  C   UNL     1     -39.168  23.968   1.907  0.00  0.00    +0.154 A 
ATOM     13  C   UNL     1     -39.300  25.203   2.547  0.00  0.00    +0.075 C 
ATOM     14  C   UNL     1     -42.753  28.264   0.702  0.00  0.00    +0.175 C 
ATOM     15  C   UNL     1     -37.772  22.127   1.427  0.00  0.00    +0.147 A 
ATOM     16  C   UNL     1     -36.521  21.530   1.586  0.00  0.00    +0.013 C 
ATOM     17  C   UNL     1     -38.755  21.480   0.679  0.00  0.00    +0.107 A 
ATOM     18  C   UNL     1     -40.066  22.127   0.524  0.00  0.00    +0.207 A 
ATOM     19  C   UNL     1     -36.257  20.291   1.000  0.00  0.00    +0.002 C 
ATOM     20  C   UNL     1     -38.496  20.240   0.089  0.00  0.00    +0.140 C 
ATOM     21  C   UNL     1     -37.244  19.648   0.253  0.00  0.00    +0.037 C 
ENDROOT
BRANCH   5  22
ATOM     22  O   UNL     1     -43.888  25.711   2.394  0.00  0.00    -0.372 OA
ATOM     23  H   UNL     1     -44.485  25.381   1.704  0.00  0.00    +0.211 HD
ENDBRANCH   5  22
BRANCH  10  24
ATOM     24  O   UNL     1     -42.528  23.629   0.396  0.00  0.00    -0.505 OA
ATOM     25  H   UNL     1     -42.394  23.146  -0.396  0.00  0.00    +0.292 HD
ENDBRANCH  10  24
BRANCH  20  26
ATOM     26  O   UNL     1     -39.422  19.567  -0.649  0.00  0.00    -0.505 OA
ATOM     27  H   UNL     1     -39.199  18.750  -1.050  0.00  0.00    +0.292 HD
ENDBRANCH  20  26
BRANCH  16  28
ATOM     28  C   UNL     1     -35.444  22.193   2.382  0.00  0.00    +0.032 C 
BRANCH  28  29
ATOM     29  C   UNL     1     -35.454  21.741   3.855  0.00  0.00    +0.032 C 
BRANCH  29  30
ATOM     30  C   UNL     1     -35.544  22.885   4.885  0.00  0.00    +0.089 C 
ATOM     31  C   UNL     1     -35.518  22.304   6.303  0.00  0.00    +0.029 C 
ATOM     32  C   UNL     1     -34.419  23.910   4.720  0.00  0.00    +0.029 C 
BRANCH  30  33
ATOM     33  O   UNL     1     -36.795  23.554   4.707  0.00  0.00    -0.387 OA
ATOM     34  H   UNL     1     -36.647  24.409   4.273  0.00  0.00    +0.210 HD
ENDBRANCH  30  33
ENDBRANCH  29  30
ENDBRANCH  28  29
ENDBRANCH  16  28
TORSDOF 7
ENDMDL
MODEL 5
REMARK VINA RESULT:      -6.4      3.658      7.909
REMARK  Name = 5470400
REMARK  7 active torsions:
REMARK  status: ('A' for Active; 'I' for Inactive)
REMARK    1  A    between atoms: C_5  and  O_22
REMARK    2  A    between atoms: C_10  and  O_24
REMARK    3  A    between atoms: C_16  and  C_28
REMARK    4  A    between atoms: C_20  and  O_26
REMARK    5  A    between atoms: C_28  and  C_29
REMARK    6  A    between atoms: C_29  and  C_30
REMARK    7  A    between atoms: C_30  and  O_33
REMARK                            x       y       z     vdW  Elec       q    Type
REMARK                         _______ _______ _______ _____ _____    ______ ____
ROOT
ATOM      1  O   UNL     1     -37.922  23.902   2.356  0.00  0.00    -0.441 OA
ATOM      2  O   UNL     1     -37.359  21.621   1.947  0.00  0.00    -0.438 OA
ATOM      3  O   UNL     1     -35.931  28.246   2.243  0.00  0.00    -0.453 OA
ATOM      4  O   UNL     1     -32.754  26.875   4.429  0.00  0.00    -0.286 OA
ATOM      5  C   UNL     1     -36.147  22.830   3.671  0.00  0.00    +0.212 C 
ATOM      6  C   UNL     1     -37.508  22.649   2.958  0.00  0.00    +0.375 C 
ATOM      7  C   UNL     1     -35.891  24.265   3.404  0.00  0.00    +0.081 C 
ATOM      8  C   UNL     1     -36.934  24.800   2.664  0.00  0.00    +0.147 C 
ATOM      9  C   UNL     1     -35.297  21.864   2.945  0.00  0.00    +0.052 C 
ATOM     10  C   UNL     1     -34.816  25.052   3.784  0.00  0.00    +0.141 C 
ATOM     11  C   UNL     1     -34.818  26.399   3.400  0.00  0.00    +0.107 A 
ATOM     12  C   UNL     1     -35.876  26.935   2.650  0.00  0.00    +0.154 A 
ATOM     13  C   UNL     1     -36.951  26.126   2.274  0.00  0.00    +0.075 C 
ATOM     14  C   UNL     1     -36.037  21.247   2.032  0.00  0.00    +0.175 C 
ATOM     15  C   UNL     1     -34.899  29.082   2.590  0.00  0.00    +0.147 A 
ATOM     16  C   UNL     1     -34.999  30.406   2.158  0.00  0.00    +0.013 C 
ATOM     17  C   UNL     1     -33.789  28.681   3.333  0.00  0.00    +0.107 A 
ATOM     18  C   UNL     1     -33.704  27.282   3.778  0.00  0.00    +0.207 A 
ATOM     19  C   UNL     1     -33.992  31.321   2.469  0.00  0.00    +0.002 C 
ATOM     20  C   UNL     1     -32.778  29.593   3.647  0.00  0.00    +0.140 C 
ATOM     21  C   UNL     1     -32.884  30.915   3.212  0.00  0.00    +0.037 C 
ENDROOT
BRANCH   5  22
ATOM     22  O   UNL     1     -36.245  22.497   5.042  0.00  0.00    -0.372 OA
ATOM     23  H   UNL     1     -35.712  21.706   5.221  0.00  0.00    +0.211 HD
ENDBRANCH   5  22
BRANCH  10  24
ATOM     24  O   UNL     1     -33.814  24.492   4.511  0.00  0.00    -0.505 OA
ATOM     25  H   UNL     1     -32.921  24.702   4.318  0.00  0.00    +0.292 HD
ENDBRANCH  10  24
BRANCH  20  26
ATOM     26  O   UNL     1     -31.675  29.251   4.369  0.00  0.00    -0.505 OA
ATOM     27  H   UNL     1     -31.645  29.428   5.289  0.00  0.00    +0.292 HD
ENDBRANCH  20  26
BRANCH  16  28
ATOM     28  C   UNL     1     -36.175  30.872   1.362  0.00  0.00    +0.032 C 
BRANCH  28  29
ATOM     29  C   UNL     1     -36.982  31.954   2.105  0.00  0.00    +0.032 C 
BRANCH  29  30
ATOM     30  C   UNL     1     -38.099  32.617   1.274  0.00  0.00    +0.089 C 
ATOM     31  C   UNL     1     -38.477  33.963   1.902  0.00  0.00    +0.029 C 
ATOM     32  C   UNL     1     -37.697  32.818  -0.189  0.00  0.00    +0.029 C 
BRANCH  30  33
ATOM     33  O   UNL     1     -39.253  31.773   1.315  0.00  0.00    -0.387 OA
ATOM     34  H   UNL     1     -39.133  31.095   1.998  0.00  0.00    +0.210 HD
ENDBRANCH  30  33
ENDBRANCH  29  30
ENDBRANCH  28  29
ENDBRANCH  16  28
TORSDOF 7
ENDMDL
MODEL 6
REMARK VINA RESULT:      -6.4      4.762      9.835
REMARK  Name = 5470400
REMARK  7 active torsions:
REMARK  status: ('A' for Active; 'I' for Inactive)
REMARK    1  A    between atoms: C_5  and  O_22
REMARK    2  A    between atoms: C_10  and  O_24
REMARK    3  A    between atoms: C_16  and  C_28
REMARK    4  A    between atoms: C_20  and  O_26
REMARK    5  A    between atoms: C_28  and  C_29
REMARK    6  A    between atoms: C_29  and  C_30
REMARK    7  A    between atoms: C_30  and  O_33
REMARK                            x       y       z     vdW  Elec       q    Type
REMARK                         _______ _______ _______ _____ _____    ______ ____
ROOT
ATOM      1  O   UNL     1     -30.513  16.940   0.811  0.00  0.00    -0.441 OA
ATOM      2  O   UNL     1     -30.001  14.652   0.375  0.00  0.00    -0.438 OA
ATOM      3  O   UNL     1     -34.253  19.722   1.870  0.00  0.00    -0.453 OA
ATOM      4  O   UNL     1     -36.384  18.072  -1.211  0.00  0.00    -0.286 OA
ATOM      5  C   UNL     1     -31.562  15.797  -1.092  0.00  0.00    +0.212 C 
ATOM      6  C   UNL     1     -30.293  15.941  -0.219  0.00  0.00    +0.375 C 
ATOM      7  C   UNL     1     -32.448  16.796  -0.450  0.00  0.00    +0.081 C 
ATOM      8  C   UNL     1     -31.787  17.400   0.609  0.00  0.00    +0.147 C 
ATOM      9  C   UNL     1     -31.911  14.376  -0.882  0.00  0.00    +0.052 C 
ATOM     10  C   UNL     1     -33.747  17.154  -0.771  0.00  0.00    +0.141 C 
ATOM     11  C   UNL     1     -34.368  18.142   0.003  0.00  0.00    +0.107 A 
ATOM     12  C   UNL     1     -33.695  18.750   1.075  0.00  0.00    +0.154 A 
ATOM     13  C   UNL     1     -32.385  18.375   1.385  0.00  0.00    +0.075 C 
ATOM     14  C   UNL     1     -31.007  13.830  -0.078  0.00  0.00    +0.175 C 
ATOM     15  C   UNL     1     -35.537  20.127   1.603  0.00  0.00    +0.147 A 
ATOM     16  C   UNL     1     -36.062  21.118   2.434  0.00  0.00    +0.013 C 
ATOM     17  C   UNL     1     -36.318  19.608   0.571  0.00  0.00    +0.107 A 
ATOM     18  C   UNL     1     -35.746  18.564  -0.293  0.00  0.00    +0.207 A 
ATOM     19  C   UNL     1     -37.361  21.586   2.231  0.00  0.00    +0.002 C 
ATOM     20  C   UNL     1     -37.619  20.072   0.363  0.00  0.00    +0.140 C 
ATOM     21  C   UNL     1     -38.138  21.064   1.197  0.00  0.00    +0.037 C 
ENDROOT
BRANCH   5  22
ATOM     22  O   UNL     1     -31.273  16.057  -2.451  0.00  0.00    -0.372 OA
ATOM     23  H   UNL     1     -31.776  15.445  -3.012  0.00  0.00    +0.211 HD
ENDBRANCH   5  22
BRANCH  10  24
ATOM     24  O   UNL     1     -34.361  16.541  -1.817  0.00  0.00    -0.505 OA
ATOM     25  H   UNL     1     -33.852  16.077  -2.453  0.00  0.00    +0.292 HD
ENDBRANCH  10  24
BRANCH  20  26
ATOM     26  O   UNL     1     -38.421  19.599  -0.632  0.00  0.00    -0.505 OA
ATOM     27  H   UNL     1     -38.104  19.564  -1.512  0.00  0.00    +0.292 HD
ENDBRANCH  20  26
BRANCH  16  28
ATOM     28  C   UNL     1     -35.254  21.699   3.550  0.00  0.00    +0.032 C 
BRANCH  28  29
ATOM     29  C   UNL     1     -35.280  23.239   3.540  0.00  0.00    +0.032 C 
BRANCH  29  30
ATOM     30  C   UNL     1     -35.547  23.893   4.910  0.00  0.00    +0.089 C 
ATOM     31  C   UNL     1     -35.562  22.816   6.000  0.00  0.00    +0.029 C 
ATOM     32  C   UNL     1     -34.516  24.970   5.254  0.00  0.00    +0.029 C 
BRANCH  30  33
ATOM     33  O   UNL     1     -36.842  24.500   4.875  0.00  0.00    -0.387 OA
ATOM     34  H   UNL     1     -37.276  24.385   5.735  0.00  0.00    +0.210 HD
ENDBRANCH  30  33
ENDBRANCH  29  30
ENDBRANCH  28  29
ENDBRANCH  16  28
TORSDOF 7
ENDMDL
MODEL 7
REMARK VINA RESULT:      -6.4      3.578      6.185
REMARK  Name = 5470400
REMARK  7 active torsions:
REMARK  status: ('A' for Active; 'I' for Inactive)
REMARK    1  A    between atoms: C_5  and  O_22
REMARK    2  A    between atoms: C_10  and  O_24
REMARK    3  A    between atoms: C_16  and  C_28
REMARK    4  A    between atoms: C_20  and  O_26
REMARK    5  A    between atoms: C_28  and  C_29
REMARK    6  A    between atoms: C_29  and  C_30
REMARK    7  A    between atoms: C_30  and  O_33
REMARK                            x       y       z     vdW  Elec       q    Type
REMARK                         _______ _______ _______ _____ _____    ______ ____
ROOT
ATOM      1  O   UNL     1     -37.430  29.139  -0.330  0.00  0.00    -0.441 OA
ATOM      2  O   UNL     1     -38.035  31.427  -0.042  0.00  0.00    -0.438 OA
ATOM      3  O   UNL     1     -36.626  25.205   2.264  0.00  0.00    -0.453 OA
ATOM      4  O   UNL     1     -34.134  27.313   4.735  0.00  0.00    -0.286 OA
ATOM      5  C   UNL     1     -35.986  30.626   0.987  0.00  0.00    +0.212 C 
ATOM      6  C   UNL     1     -36.937  30.500  -0.227  0.00  0.00    +0.375 C 
ATOM      7  C   UNL     1     -36.013  29.234   1.498  0.00  0.00    +0.081 C 
ATOM      8  C   UNL     1     -36.842  28.458   0.703  0.00  0.00    +0.147 C 
ATOM      9  C   UNL     1     -36.679  31.641   1.808  0.00  0.00    +0.052 C 
ATOM     10  C   UNL     1     -35.355  28.684   2.586  0.00  0.00    +0.141 C 
ATOM     11  C   UNL     1     -35.552  27.324   2.855  0.00  0.00    +0.107 A 
ATOM     12  C   UNL     1     -36.393  26.542   2.048  0.00  0.00    +0.154 A 
ATOM     13  C   UNL     1     -37.050  27.114   0.956  0.00  0.00    +0.075 C 
ATOM     14  C   UNL     1     -37.778  32.026   1.170  0.00  0.00    +0.175 C 
ATOM     15  C   UNL     1     -36.001  24.596   3.324  0.00  0.00    +0.147 A 
ATOM     16  C   UNL     1     -36.264  23.237   3.504  0.00  0.00    +0.013 C 
ATOM     17  C   UNL     1     -35.140  25.254   4.202  0.00  0.00    +0.107 A 
ATOM     18  C   UNL     1     -34.877  26.686   3.995  0.00  0.00    +0.207 A 
ATOM     19  C   UNL     1     -35.668  22.543   4.557  0.00  0.00    +0.002 C 
ATOM     20  C   UNL     1     -34.542  24.564   5.259  0.00  0.00    +0.140 C 
ATOM     21  C   UNL     1     -34.809  23.205   5.433  0.00  0.00    +0.037 C 
ENDROOT
BRANCH   5  22
ATOM     22  O   UNL     1     -34.708  31.078   0.584  0.00  0.00    -0.372 OA
ATOM     23  H   UNL     1     -34.632  31.011  -0.381  0.00  0.00    +0.211 HD
ENDBRANCH   5  22
BRANCH  10  24
ATOM     24  O   UNL     1     -34.549  29.478   3.339  0.00  0.00    -0.505 OA
ATOM     25  H   UNL     1     -33.669  29.647   3.065  0.00  0.00    +0.292 HD
ENDBRANCH  10  24
BRANCH  20  26
ATOM     26  O   UNL     1     -33.694  25.160   6.143  0.00  0.00    -0.505 OA
ATOM     27  H   UNL     1     -33.760  24.968   7.058  0.00  0.00    +0.292 HD
ENDBRANCH  20  26
BRANCH  16  28
ATOM     28  C   UNL     1     -37.179  22.499   2.581  0.00  0.00    +0.032 C 
BRANCH  28  29
ATOM     29  C   UNL     1     -36.413  21.821   1.429  0.00  0.00    +0.032 C 
BRANCH  29  30
ATOM     30  C   UNL     1     -36.124  20.321   1.635  0.00  0.00    +0.089 C 
ATOM     31  C   UNL     1     -36.572  19.536   0.397  0.00  0.00    +0.029 C 
ATOM     32  C   UNL     1     -34.647  20.045   1.923  0.00  0.00    +0.029 C 
BRANCH  30  33
ATOM     33  O   UNL     1     -36.895  19.862   2.749  0.00  0.00    -0.387 OA
ATOM     34  H   UNL     1     -36.778  18.905   2.851  0.00  0.00    +0.210 HD
ENDBRANCH  30  33
ENDBRANCH  29  30
ENDBRANCH  28  29
ENDBRANCH  16  28
TORSDOF 7
ENDMDL
MODEL 8
REMARK VINA RESULT:      -6.4      1.687      4.493
REMARK  Name = 5470400
REMARK  7 active torsions:
REMARK  status: ('A' for Active; 'I' for Inactive)
REMARK    1  A    between atoms: C_5  and  O_22
REMARK    2  A    between atoms: C_10  and  O_24
REMARK    3  A    between atoms: C_16  and  C_28
REMARK    4  A    between atoms: C_20  and  O_26
REMARK    5  A    between atoms: C_28  and  C_29
REMARK    6  A    between atoms: C_29  and  C_30
REMARK    7  A    between atoms: C_30  and  O_33
REMARK                            x       y       z     vdW  Elec       q    Type
REMARK                         _______ _______ _______ _____ _____    ______ ____
ROOT
ATOM      1  O   UNL     1     -41.530  22.586  -0.054  0.00  0.00    -0.441 OA
ATOM      2  O   UNL     1     -43.797  23.325  -0.094  0.00  0.00    -0.438 OA
ATOM      3  O   UNL     1     -37.699  22.662   2.805  0.00  0.00    -0.453 OA
ATOM      4  O   UNL     1     -38.173  26.688   3.374  0.00  0.00    -0.286 OA
ATOM      5  C   UNL     1     -42.034  24.983   0.113  0.00  0.00    +0.212 C 
ATOM      6  C   UNL     1     -42.439  23.623  -0.504  0.00  0.00    +0.375 C 
ATOM      7  C   UNL     1     -40.847  24.579   0.904  0.00  0.00    +0.081 C 
ATOM      8  C   UNL     1     -40.624  23.219   0.756  0.00  0.00    +0.147 C 
ATOM      9  C   UNL     1     -43.246  25.338   0.881  0.00  0.00    +0.052 C 
ATOM     10  C   UNL     1     -40.017  25.351   1.700  0.00  0.00    +0.141 C 
ATOM     11  C   UNL     1     -38.949  24.717   2.346  0.00  0.00    +0.107 A 
ATOM     12  C   UNL     1     -38.728  23.339   2.195  0.00  0.00    +0.154 A 
ATOM     13  C   UNL     1     -39.577  22.575   1.389  0.00  0.00    +0.075 C 
ATOM     14  C   UNL     1     -44.155  24.386   0.706  0.00  0.00    +0.175 C 
ATOM     15  C   UNL     1     -36.836  23.369   3.604  0.00  0.00    +0.147 A 
ATOM     16  C   UNL     1     -35.805  22.642   4.201  0.00  0.00    +0.013 C 
ATOM     17  C   UNL     1     -36.939  24.740   3.840  0.00  0.00    +0.107 A 
ATOM     18  C   UNL     1     -38.033  25.487   3.201  0.00  0.00    +0.207 A 
ATOM     19  C   UNL     1     -34.883  23.285   5.029  0.00  0.00    +0.002 C 
ATOM     20  C   UNL     1     -36.020  25.388   4.668  0.00  0.00    +0.140 C 
ATOM     21  C   UNL     1     -34.991  24.656   5.261  0.00  0.00    +0.037 C 
ENDROOT
BRANCH   5  22
ATOM     22  O   UNL     1     -41.769  25.937  -0.896  0.00  0.00    -0.372 OA
ATOM     23  H   UNL     1     -41.313  26.701  -0.507  0.00  0.00    +0.211 HD
ENDBRANCH   5  22
BRANCH  10  24
ATOM     24  O   UNL     1     -40.267  26.682   1.817  0.00  0.00    -0.505 OA
ATOM     25  H   UNL     1     -40.640  27.154   1.099  0.00  0.00    +0.292 HD
ENDBRANCH  10  24
BRANCH  20  26
ATOM     26  O   UNL     1     -36.077  26.724   4.929  0.00  0.00    -0.505 OA
ATOM     27  H   UNL     1     -35.633  27.075   5.676  0.00  0.00    +0.292 HD
ENDBRANCH  20  26
BRANCH  16  28
ATOM     28  C   UNL     1     -35.662  21.172   3.970  0.00  0.00    +0.032 C 
BRANCH  28  29
ATOM     29  C   UNL     1     -34.847  20.865   2.699  0.00  0.00    +0.032 C 
BRANCH  29  30
ATOM     30  C   UNL     1     -35.627  20.131   1.589  0.00  0.00    +0.089 C 
ATOM     31  C   UNL     1     -36.071  21.137   0.521  0.00  0.00    +0.029 C 
ATOM     32  C   UNL     1     -34.810  19.010   0.944  0.00  0.00    +0.029 C 
BRANCH  30  33
ATOM     33  O   UNL     1     -36.803  19.558   2.168  0.00  0.00    -0.387 OA
ATOM     34  H   UNL     1     -36.680  18.602   2.269  0.00  0.00    +0.210 HD
ENDBRANCH  30  33
ENDBRANCH  29  30
ENDBRANCH  28  29
ENDBRANCH  16  28
TORSDOF 7
ENDMDL
MODEL 9
REMARK VINA RESULT:      -6.4      3.227      6.232
REMARK  Name = 5470400
REMARK  7 active torsions:
REMARK  status: ('A' for Active; 'I' for Inactive)
REMARK    1  A    between atoms: C_5  and  O_22
REMARK    2  A    between atoms: C_10  and  O_24
REMARK    3  A    between atoms: C_16  and  C_28
REMARK    4  A    between atoms: C_20  and  O_26
REMARK    5  A    between atoms: C_28  and  C_29
REMARK    6  A    between atoms: C_29  and  C_30
REMARK    7  A    between atoms: C_30  and  O_33
REMARK                            x       y       z     vdW  Elec       q    Type
REMARK                         _______ _______ _______ _____ _____    ______ ____
ROOT
ATOM      1  O   UNL     1     -34.350  24.072   5.230  0.00  0.00    -0.441 OA
ATOM      2  O   UNL     1     -33.245  26.170   5.477  0.00  0.00    -0.438 OA
ATOM      3  O   UNL     1     -36.379  21.374   1.845  0.00  0.00    -0.453 OA
ATOM      4  O   UNL     1     -38.554  24.590   0.549  0.00  0.00    -0.286 OA
ATOM      5  C   UNL     1     -35.532  26.147   4.660  0.00  0.00    +0.212 C 
ATOM      6  C   UNL     1     -34.506  25.467   5.597  0.00  0.00    +0.375 C 
ATOM      7  C   UNL     1     -35.903  25.005   3.790  0.00  0.00    +0.081 C 
ATOM      8  C   UNL     1     -35.201  23.873   4.174  0.00  0.00    +0.147 C 
ATOM      9  C   UNL     1     -34.713  27.209   4.038  0.00  0.00    +0.052 C 
ATOM     10  C   UNL     1     -36.796  24.960   2.732  0.00  0.00    +0.141 C 
ATOM     11  C   UNL     1     -36.967  23.739   2.067  0.00  0.00    +0.107 A 
ATOM     12  C   UNL     1     -36.254  22.596   2.459  0.00  0.00    +0.154 A 
ATOM     13  C   UNL     1     -35.355  22.661   3.528  0.00  0.00    +0.075 C 
ATOM     14  C   UNL     1     -33.488  27.153   4.545  0.00  0.00    +0.175 C 
ATOM     15  C   UNL     1     -37.251  21.258   0.791  0.00  0.00    +0.147 A 
ATOM     16  C   UNL     1     -37.348  19.998   0.199  0.00  0.00    +0.013 C 
ATOM     17  C   UNL     1     -38.022  22.312   0.301  0.00  0.00    +0.107 A 
ATOM     18  C   UNL     1     -37.905  23.631   0.939  0.00  0.00    +0.207 A 
ATOM     19  C   UNL     1     -38.212  19.795  -0.877  0.00  0.00    +0.002 C 
ATOM     20  C   UNL     1     -38.888  22.115  -0.778  0.00  0.00    +0.140 C 
ATOM     21  C   UNL     1     -38.981  20.852  -1.364  0.00  0.00    +0.037 C 
ENDROOT
BRANCH   5  22
ATOM     22  O   UNL     1     -36.607  26.694   5.398  0.00  0.00    -0.372 OA
ATOM     23  H   UNL     1     -37.339  26.903   4.796  0.00  0.00    +0.211 HD
ENDBRANCH   5  22
BRANCH  10  24
ATOM     24  O   UNL     1     -37.467  26.090   2.387  0.00  0.00    -0.505 OA
ATOM     25  H   UNL     1     -37.445  26.839   2.950  0.00  0.00    +0.292 HD
ENDBRANCH  10  24
BRANCH  20  26
ATOM     26  O   UNL     1     -39.663  23.110  -1.293  0.00  0.00    -0.505 OA
ATOM     27  H   UNL     1     -40.365  23.467  -0.786  0.00  0.00    +0.292 HD
ENDBRANCH  20  26
BRANCH  16  28
ATOM     28  C   UNL     1     -36.539  18.845   0.700  0.00  0.00    +0.032 C 
BRANCH  28  29
ATOM     29  C   UNL     1     -35.145  18.791   0.045  0.00  0.00    +0.032 C 
BRANCH  29  30
ATOM     30  C   UNL     1     -33.975  19.169   0.975  0.00  0.00    +0.089 C 
ATOM     31  C   UNL     1     -33.009  17.985   1.093  0.00  0.00    +0.029 C 
ATOM     32  C   UNL     1     -33.223  20.411   0.492  0.00  0.00    +0.029 C 
BRANCH  30  33
ATOM     33  O   UNL     1     -34.503  19.437   2.277  0.00  0.00    -0.387 OA
ATOM     34  H   UNL     1     -34.243  20.329   2.554  0.00  0.00    +0.210 HD
ENDBRANCH  30  33
ENDBRANCH  29  30
ENDBRANCH  28  29
ENDBRANCH  16  28
TORSDOF 7
ENDMDL
