MODEL 1
REMARK VINA RESULT:      -6.6      0.000      0.000
REMARK  Name = 56603796
REMARK  11 active torsions:
REMARK  status: ('A' for Active; 'I' for Inactive)
REMARK    1  A    between atoms: C_1  and  C_23
REMARK    2  A    between atoms: C_4  and  N_8
REMARK    3  A    between atoms: N_9  and  C_13
REMARK    4  A    between atoms: C_16  and  O_19
REMARK    5  A    between atoms: C_17  and  C_22
REMARK    6  A    between atoms: C_23  and  N_26
REMARK    7  A    between atoms: C_27  and  O_29
REMARK    8  A    between atoms: O_29  and  C_30
REMARK    9  A    between atoms: C_30  and  C_31
REMARK   10  A    between atoms: C_30  and  C_33
REMARK   11  A    between atoms: C_33  and  C_35
REMARK                            x       y       z     vdW  Elec       q    Type
REMARK                         _______ _______ _______ _____ _____    ______ ____
ROOT
ATOM      1  C   UNL     1     -39.373  23.265   2.250  0.00  0.00    -0.003 C 
ATOM      2  C   UNL     1     -38.244  22.466   2.436  0.00  0.00    +0.012 C 
ATOM      3  C   UNL     1     -40.290  22.953   1.246  0.00  0.00    -0.003 C 
ATOM      4  C   UNL     1     -38.034  21.355   1.618  0.00  0.00    +0.051 C 
ATOM      5  C   UNL     1     -40.080  21.842   0.429  0.00  0.00    +0.001 C 
ATOM      6  C   UNL     1     -38.952  21.043   0.615  0.00  0.00    +0.015 C 
ENDROOT
BRANCH   4   8
ATOM      7  O   UNL     1     -35.541  21.135  -0.012  0.00  0.00    -0.252 OA
ATOM      8  N   UNL     1     -36.905  20.556   1.803  0.00  0.00    -0.268 N 
ATOM      9  N   UNL     1     -34.844  19.544   1.554  0.00  0.00    -0.268 N 
ATOM     10  C   UNL     1     -35.736  20.478   1.007  0.00  0.00    +0.308 C 
ATOM     11  H   UNL     1     -36.922  19.969   2.593  0.00  0.00    +0.156 HD
ATOM     12  H   UNL     1     -35.141  19.094   2.378  0.00  0.00    +0.156 HD
BRANCH   9  13
ATOM     13  C   UNL     1     -33.569  19.168   1.068  0.00  0.00    +0.055 C 
ATOM     14  C   UNL     1     -33.200  17.823   1.044  0.00  0.00    +0.052 C 
ATOM     15  C   UNL     1     -32.681  20.144   0.613  0.00  0.00    +0.016 C 
ATOM     16  C   UNL     1     -31.943  17.453   0.565  0.00  0.00    +0.149 C 
ATOM     17  C   UNL     1     -31.056  18.428   0.110  0.00  0.00    +0.102 C 
ATOM     18  C   UNL     1     -31.424  19.773   0.135  0.00  0.00    +0.015 C 
BRANCH  16  19
ATOM     19  O   UNL     1     -31.609  16.132   0.553  0.00  0.00    -0.471 OA
ATOM     20  C   UNL     1     -32.288  15.301  -0.385  0.00  0.00    +0.252 C 
ENDBRANCH  16  19
BRANCH  17  22
ATOM     21  N   UNL     1     -28.713  17.779  -0.787  0.00  0.00    -0.191 NA
ATOM     22  C   UNL     1     -29.762  18.069  -0.385  0.00  0.00    +0.103 C 
ENDBRANCH  17  22
ENDBRANCH   9  13
ENDBRANCH   4   8
BRANCH   1  23
ATOM     23  C   UNL     1     -39.601  24.470   3.136  0.00  0.00    +0.097 C 
ATOM     24  C   UNL     1     -39.983  25.716   2.341  0.00  0.00    +0.026 C 
BRANCH  23  26
ATOM     25  O   UNL     1     -37.151  25.853   2.412  0.00  0.00    -0.226 OA
ATOM     26  N   UNL     1     -38.453  24.732   3.972  0.00  0.00    -0.269 N 
ATOM     27  C   UNL     1     -37.327  25.400   3.539  0.00  0.00    +0.402 C 
ATOM     28  H   UNL     1     -38.475  24.416   4.904  0.00  0.00    +0.153 HD
BRANCH  27  29
ATOM     29  O   UNL     1     -36.418  25.490   4.558  0.00  0.00    -0.437 OA
BRANCH  29  30
ATOM     30  C   UNL     1     -35.305  24.599   4.486  0.00  0.00    +0.186 C 
BRANCH  30  31
ATOM     31  C   UNL     1     -34.027  25.408   4.733  0.00  0.00    +0.045 C 
ATOM     32  C   UNL     1     -34.052  26.137   6.071  0.00  0.00    +0.004 C 
ENDBRANCH  30  31
BRANCH  30  33
ATOM     33  C   UNL     1     -35.465  23.499   5.543  0.00  0.00    +0.149 C 
BRANCH  33  35
ATOM     34  N   UNL     1     -35.269  21.100   4.480  0.00  0.00    -0.196 NA
ATOM     35  C   UNL     1     -35.355  22.158   4.948  0.00  0.00    +0.077 C 
ENDBRANCH  33  35
ENDBRANCH  30  33
ENDBRANCH  29  30
ENDBRANCH  27  29
ENDBRANCH  23  26
ENDBRANCH   1  23
TORSDOF 11
ENDMDL
MODEL 2
REMARK VINA RESULT:      -6.6      3.086      5.036
REMARK  Name = 56603796
REMARK  11 active torsions:
REMARK  status: ('A' for Active; 'I' for Inactive)
REMARK    1  A    between atoms: C_1  and  C_23
REMARK    2  A    between atoms: C_4  and  N_8
REMARK    3  A    between atoms: N_9  and  C_13
REMARK    4  A    between atoms: C_16  and  O_19
REMARK    5  A    between atoms: C_17  and  C_22
REMARK    6  A    between atoms: C_23  and  N_26
REMARK    7  A    between atoms: C_27  and  O_29
REMARK    8  A    between atoms: O_29  and  C_30
REMARK    9  A    between atoms: C_30  and  C_31
REMARK   10  A    between atoms: C_30  and  C_33
REMARK   11  A    between atoms: C_33  and  C_35
REMARK                            x       y       z     vdW  Elec       q    Type
REMARK                         _______ _______ _______ _____ _____    ______ ____
ROOT
ATOM      1  C   UNL     1     -35.873  23.996   4.540  0.00  0.00    -0.003 C 
ATOM      2  C   UNL     1     -36.408  23.150   3.568  0.00  0.00    +0.012 C 
ATOM      3  C   UNL     1     -35.128  23.465   5.593  0.00  0.00    -0.003 C 
ATOM      4  C   UNL     1     -36.197  21.773   3.649  0.00  0.00    +0.051 C 
ATOM      5  C   UNL     1     -34.917  22.088   5.675  0.00  0.00    +0.001 C 
ATOM      6  C   UNL     1     -35.451  21.242   4.702  0.00  0.00    +0.015 C 
ENDROOT
BRANCH   4   8
ATOM      7  O   UNL     1     -34.839  19.861   1.799  0.00  0.00    -0.252 OA
ATOM      8  N   UNL     1     -36.732  20.926   2.678  0.00  0.00    -0.268 N 
ATOM      9  N   UNL     1     -36.977  19.367   0.992  0.00  0.00    -0.268 N 
ATOM     10  C   UNL     1     -36.055  20.029   1.816  0.00  0.00    +0.308 C 
ATOM     11  H   UNL     1     -37.711  20.955   2.580  0.00  0.00    +0.156 HD
ATOM     12  H   UNL     1     -37.923  19.608   1.121  0.00  0.00    +0.156 HD
BRANCH   9  13
ATOM     13  C   UNL     1     -36.716  18.397  -0.004  0.00  0.00    +0.055 C 
ATOM     14  C   UNL     1     -37.366  17.163   0.035  0.00  0.00    +0.052 C 
ATOM     15  C   UNL     1     -35.806  18.674  -1.025  0.00  0.00    +0.016 C 
ATOM     16  C   UNL     1     -37.108  16.207  -0.948  0.00  0.00    +0.149 C 
ATOM     17  C   UNL     1     -36.199  16.484  -1.968  0.00  0.00    +0.102 C 
ATOM     18  C   UNL     1     -35.547  17.717  -2.007  0.00  0.00    +0.015 C 
BRANCH  16  19
ATOM     19  O   UNL     1     -37.758  15.010  -0.885  0.00  0.00    -0.471 OA
ATOM     20  C   UNL     1     -39.168  15.050  -0.684  0.00  0.00    +0.252 C 
ENDBRANCH  16  19
BRANCH  17  22
ATOM     21  N   UNL     1     -35.693  14.732  -3.809  0.00  0.00    -0.191 NA
ATOM     22  C   UNL     1     -35.920  15.517  -2.985  0.00  0.00    +0.103 C 
ENDBRANCH  17  22
ENDBRANCH   9  13
ENDBRANCH   4   8
BRANCH   1  23
ATOM     23  C   UNL     1     -36.101  25.489   4.452  0.00  0.00    +0.097 C 
ATOM     24  C   UNL     1     -35.841  26.198   5.779  0.00  0.00    +0.026 C 
BRANCH  23  26
ATOM     25  O   UNL     1     -36.847  26.541   1.849  0.00  0.00    -0.226 OA
ATOM     26  N   UNL     1     -37.428  25.789   3.966  0.00  0.00    -0.269 N 
ATOM     27  C   UNL     1     -37.686  26.290   2.707  0.00  0.00    +0.402 C 
ATOM     28  H   UNL     1     -38.190  25.628   4.567  0.00  0.00    +0.153 HD
BRANCH  27  29
ATOM     29  O   UNL     1     -39.033  26.469   2.546  0.00  0.00    -0.437 OA
BRANCH  29  30
ATOM     30  C   UNL     1     -39.839  25.294   2.646  0.00  0.00    +0.186 C 
BRANCH  30  31
ATOM     31  C   UNL     1     -41.311  25.719   2.619  0.00  0.00    +0.045 C 
ATOM     32  C   UNL     1     -41.643  26.729   3.710  0.00  0.00    +0.004 C 
ENDBRANCH  30  31
BRANCH  30  33
ATOM     33  C   UNL     1     -39.521  24.359   1.473  0.00  0.00    +0.149 C 
BRANCH  33  35
ATOM     34  N   UNL     1     -39.865  21.834   2.129  0.00  0.00    -0.196 NA
ATOM     35  C   UNL     1     -39.713  22.948   1.840  0.00  0.00    +0.077 C 
ENDBRANCH  33  35
ENDBRANCH  30  33
ENDBRANCH  29  30
ENDBRANCH  27  29
ENDBRANCH  23  26
ENDBRANCH   1  23
TORSDOF 11
ENDMDL
MODEL 3
REMARK VINA RESULT:      -6.5      4.770      9.295
REMARK  Name = 56603796
REMARK  11 active torsions:
REMARK  status: ('A' for Active; 'I' for Inactive)
REMARK    1  A    between atoms: C_1  and  C_23
REMARK    2  A    between atoms: C_4  and  N_8
REMARK    3  A    between atoms: N_9  and  C_13
REMARK    4  A    between atoms: C_16  and  O_19
REMARK    5  A    between atoms: C_17  and  C_22
REMARK    6  A    between atoms: C_23  and  N_26
REMARK    7  A    between atoms: C_27  and  O_29
REMARK    8  A    between atoms: O_29  and  C_30
REMARK    9  A    between atoms: C_30  and  C_31
REMARK   10  A    between atoms: C_30  and  C_33
REMARK   11  A    between atoms: C_33  and  C_35
REMARK                            x       y       z     vdW  Elec       q    Type
REMARK                         _______ _______ _______ _____ _____    ______ ____
ROOT
ATOM      1  C   UNL     1     -35.862  23.557   4.465  0.00  0.00    -0.003 C 
ATOM      2  C   UNL     1     -35.028  24.476   5.102  0.00  0.00    +0.012 C 
ATOM      3  C   UNL     1     -36.699  23.975   3.431  0.00  0.00    -0.003 C 
ATOM      4  C   UNL     1     -35.032  25.813   4.704  0.00  0.00    +0.051 C 
ATOM      5  C   UNL     1     -36.703  25.312   3.034  0.00  0.00    +0.001 C 
ATOM      6  C   UNL     1     -35.869  26.232   3.670  0.00  0.00    +0.015 C 
ENDROOT
BRANCH   4   8
ATOM      7  O   UNL     1     -32.616  27.250   3.693  0.00  0.00    -0.252 OA
ATOM      8  N   UNL     1     -34.199  26.734   5.342  0.00  0.00    -0.268 N 
ATOM      9  N   UNL     1     -32.514  28.243   5.807  0.00  0.00    -0.268 N 
ATOM     10  C   UNL     1     -33.058  27.398   4.828  0.00  0.00    +0.308 C 
ATOM     11  H   UNL     1     -34.437  26.952   6.271  0.00  0.00    +0.156 HD
ATOM     12  H   UNL     1     -32.979  28.256   6.674  0.00  0.00    +0.156 HD
BRANCH   9  13
ATOM     13  C   UNL     1     -31.377  29.079   5.702  0.00  0.00    +0.055 C 
ATOM     14  C   UNL     1     -30.128  28.614   6.115  0.00  0.00    +0.052 C 
ATOM     15  C   UNL     1     -31.505  30.369   5.186  0.00  0.00    +0.016 C 
ATOM     16  C   UNL     1     -29.007  29.438   6.011  0.00  0.00    +0.149 C 
ATOM     17  C   UNL     1     -29.135  30.727   5.496  0.00  0.00    +0.102 C 
ATOM     18  C   UNL     1     -30.384  31.193   5.084  0.00  0.00    +0.015 C 
BRANCH  16  19
ATOM     19  O   UNL     1     -27.799  28.958   6.422  0.00  0.00    -0.471 OA
ATOM     20  C   UNL     1     -27.763  28.288   7.679  0.00  0.00    +0.252 C 
ENDBRANCH  16  19
BRANCH  17  22
ATOM     21  N   UNL     1     -27.076  32.286   5.288  0.00  0.00    -0.191 NA
ATOM     22  C   UNL     1     -27.998  31.588   5.381  0.00  0.00    +0.103 C 
ENDBRANCH  17  22
ENDBRANCH   9  13
ENDBRANCH   4   8
BRANCH   1  23
ATOM     23  C   UNL     1     -35.857  22.106   4.896  0.00  0.00    +0.097 C 
ATOM     24  C   UNL     1     -35.484  21.935   6.366  0.00  0.00    +0.026 C 
BRANCH  23  26
ATOM     25  O   UNL     1     -36.569  20.644   2.488  0.00  0.00    -0.226 OA
ATOM     26  N   UNL     1     -34.992  21.311   4.055  0.00  0.00    -0.269 N 
ATOM     27  C   UNL     1     -35.423  20.649   2.924  0.00  0.00    +0.402 C 
ATOM     28  H   UNL     1     -34.043  21.239   4.302  0.00  0.00    +0.153 HD
BRANCH  27  29
ATOM     29  O   UNL     1     -34.374  19.987   2.346  0.00  0.00    -0.437 OA
BRANCH  29  30
ATOM     30  C   UNL     1     -34.399  19.895   0.922  0.00  0.00    +0.186 C 
BRANCH  30  31
ATOM     31  C   UNL     1     -33.400  20.912   0.358  0.00  0.00    +0.045 C 
ATOM     32  C   UNL     1     -34.089  22.151  -0.201  0.00  0.00    +0.004 C 
ENDBRANCH  30  31
BRANCH  30  33
ATOM     33  C   UNL     1     -34.021  18.471   0.498  0.00  0.00    +0.149 C 
BRANCH  33  35
ATOM     34  N   UNL     1     -31.750  17.709   1.589  0.00  0.00    -0.196 NA
ATOM     35  C   UNL     1     -32.752  18.044   1.108  0.00  0.00    +0.077 C 
ENDBRANCH  33  35
ENDBRANCH  30  33
ENDBRANCH  29  30
ENDBRANCH  27  29
ENDBRANCH  23  26
ENDBRANCH   1  23
TORSDOF 11
ENDMDL
MODEL 4
REMARK VINA RESULT:      -6.5      2.506      5.044
REMARK  Name = 56603796
REMARK  11 active torsions:
REMARK  status: ('A' for Active; 'I' for Inactive)
REMARK    1  A    between atoms: C_1  and  C_23
REMARK    2  A    between atoms: C_4  and  N_8
REMARK    3  A    between atoms: N_9  and  C_13
REMARK    4  A    between atoms: C_16  and  O_19
REMARK    5  A    between atoms: C_17  and  C_22
REMARK    6  A    between atoms: C_23  and  N_26
REMARK    7  A    between atoms: C_27  and  O_29
REMARK    8  A    between atoms: O_29  and  C_30
REMARK    9  A    between atoms: C_30  and  C_31
REMARK   10  A    between atoms: C_30  and  C_33
REMARK   11  A    between atoms: C_33  and  C_35
REMARK                            x       y       z     vdW  Elec       q    Type
REMARK                         _______ _______ _______ _____ _____    ______ ____
ROOT
ATOM      1  C   UNL     1     -36.101  23.765   4.456  0.00  0.00    -0.003 C 
ATOM      2  C   UNL     1     -36.281  22.758   3.508  0.00  0.00    +0.012 C 
ATOM      3  C   UNL     1     -35.423  23.491   5.644  0.00  0.00    -0.003 C 
ATOM      4  C   UNL     1     -35.783  21.477   3.748  0.00  0.00    +0.051 C 
ATOM      5  C   UNL     1     -34.926  22.210   5.884  0.00  0.00    +0.001 C 
ATOM      6  C   UNL     1     -35.106  21.203   4.936  0.00  0.00    +0.015 C 
ENDROOT
BRANCH   4   8
ATOM      7  O   UNL     1     -34.115  20.730   1.385  0.00  0.00    -0.252 OA
ATOM      8  N   UNL     1     -35.964  20.469   2.800  0.00  0.00    -0.268 N 
ATOM      9  N   UNL     1     -35.697  19.054   0.994  0.00  0.00    -0.268 N 
ATOM     10  C   UNL     1     -35.148  20.143   1.689  0.00  0.00    +0.308 C 
ATOM     11  H   UNL     1     -36.764  19.908   2.921  0.00  0.00    +0.156 HD
ATOM     12  H   UNL     1     -36.534  18.686   1.359  0.00  0.00    +0.156 HD
BRANCH   9  13
ATOM     13  C   UNL     1     -35.197  18.420  -0.168  0.00  0.00    +0.055 C 
ATOM     14  C   UNL     1     -34.492  17.221  -0.061  0.00  0.00    +0.052 C 
ATOM     15  C   UNL     1     -35.407  18.996  -1.421  0.00  0.00    +0.016 C 
ATOM     16  C   UNL     1     -33.998  16.597  -1.206  0.00  0.00    +0.149 C 
ATOM     17  C   UNL     1     -34.208  17.172  -2.459  0.00  0.00    +0.102 C 
ATOM     18  C   UNL     1     -34.912  18.372  -2.567  0.00  0.00    +0.015 C 
BRANCH  16  19
ATOM     19  O   UNL     1     -33.314  15.426  -1.072  0.00  0.00    -0.471 OA
ATOM     20  C   UNL     1     -32.059  15.484  -0.398  0.00  0.00    +0.252 C 
ENDBRANCH  16  19
BRANCH  17  22
ATOM     21  N   UNL     1     -33.305  16.043  -4.609  0.00  0.00    -0.191 NA
ATOM     22  C   UNL     1     -33.710  16.548  -3.646  0.00  0.00    +0.103 C 
ENDBRANCH  17  22
ENDBRANCH   9  13
ENDBRANCH   4   8
BRANCH   1  23
ATOM     23  C   UNL     1     -36.640  25.155   4.196  0.00  0.00    +0.097 C 
ATOM     24  C   UNL     1     -36.152  26.172   5.224  0.00  0.00    +0.026 C 
BRANCH  23  26
ATOM     25  O   UNL     1     -38.333  26.599   2.328  0.00  0.00    -0.226 OA
ATOM     26  N   UNL     1     -38.083  25.154   4.126  0.00  0.00    -0.269 N 
ATOM     27  C   UNL     1     -38.804  25.875   3.199  0.00  0.00    +0.402 C 
ATOM     28  H   UNL     1     -38.579  24.607   4.776  0.00  0.00    +0.153 HD
BRANCH  27  29
ATOM     29  O   UNL     1     -40.144  25.668   3.389  0.00  0.00    -0.437 OA
BRANCH  29  30
ATOM     30  C   UNL     1     -40.992  26.005   2.291  0.00  0.00    +0.186 C 
BRANCH  30  31
ATOM     31  C   UNL     1     -41.186  24.751   1.432  0.00  0.00    +0.045 C 
ATOM     32  C   UNL     1     -42.489  24.785   0.642  0.00  0.00    +0.004 C 
ENDBRANCH  30  31
BRANCH  30  33
ATOM     33  C   UNL     1     -42.337  26.511   2.826  0.00  0.00    +0.149 C 
BRANCH  33  35
ATOM     34  N   UNL     1     -42.020  28.534   4.479  0.00  0.00    -0.196 NA
ATOM     35  C   UNL     1     -42.161  27.642   3.750  0.00  0.00    +0.077 C 
ENDBRANCH  33  35
ENDBRANCH  30  33
ENDBRANCH  29  30
ENDBRANCH  27  29
ENDBRANCH  23  26
ENDBRANCH   1  23
TORSDOF 11
ENDMDL
MODEL 5
REMARK VINA RESULT:      -6.4      2.408      7.567
REMARK  Name = 56603796
REMARK  11 active torsions:
REMARK  status: ('A' for Active; 'I' for Inactive)
REMARK    1  A    between atoms: C_1  and  C_23
REMARK    2  A    between atoms: C_4  and  N_8
REMARK    3  A    between atoms: N_9  and  C_13
REMARK    4  A    between atoms: C_16  and  O_19
REMARK    5  A    between atoms: C_17  and  C_22
REMARK    6  A    between atoms: C_23  and  N_26
REMARK    7  A    between atoms: C_27  and  O_29
REMARK    8  A    between atoms: O_29  and  C_30
REMARK    9  A    between atoms: C_30  and  C_31
REMARK   10  A    between atoms: C_30  and  C_33
REMARK   11  A    between atoms: C_33  and  C_35
REMARK                            x       y       z     vdW  Elec       q    Type
REMARK                         _______ _______ _______ _____ _____    ______ ____
ROOT
ATOM      1  C   UNL     1     -38.748  19.526  -0.713  0.00  0.00    -0.003 C 
ATOM      2  C   UNL     1     -38.270  20.131   0.450  0.00  0.00    +0.012 C 
ATOM      3  C   UNL     1     -39.922  19.990  -1.308  0.00  0.00    -0.003 C 
ATOM      4  C   UNL     1     -38.966  21.199   1.017  0.00  0.00    +0.051 C 
ATOM      5  C   UNL     1     -40.618  21.058  -0.741  0.00  0.00    +0.001 C 
ATOM      6  C   UNL     1     -40.139  21.663   0.422  0.00  0.00    +0.015 C 
ENDROOT
BRANCH   4   8
ATOM      7  O   UNL     1     -36.723  23.134   1.404  0.00  0.00    -0.252 OA
ATOM      8  N   UNL     1     -38.489  21.804   2.181  0.00  0.00    -0.268 N 
ATOM      9  N   UNL     1     -37.277  23.082   3.675  0.00  0.00    -0.268 N 
ATOM     10  C   UNL     1     -37.419  22.721   2.326  0.00  0.00    +0.308 C 
ATOM     11  H   UNL     1     -38.960  21.562   3.011  0.00  0.00    +0.156 HD
ATOM     12  H   UNL     1     -37.911  22.666   4.302  0.00  0.00    +0.156 HD
BRANCH   9  13
ATOM     13  C   UNL     1     -36.333  23.968   4.244  0.00  0.00    +0.055 C 
ATOM     14  C   UNL     1     -36.268  25.293   3.810  0.00  0.00    +0.052 C 
ATOM     15  C   UNL     1     -35.465  23.518   5.240  0.00  0.00    +0.016 C 
ATOM     16  C   UNL     1     -35.337  26.166   4.372  0.00  0.00    +0.149 C 
ATOM     17  C   UNL     1     -34.470  25.716   5.366  0.00  0.00    +0.102 C 
ATOM     18  C   UNL     1     -34.533  24.392   5.800  0.00  0.00    +0.015 C 
BRANCH  16  19
ATOM     19  O   UNL     1     -35.296  27.455   3.929  0.00  0.00    -0.471 OA
ATOM     20  C   UNL     1     -34.764  27.674   2.625  0.00  0.00    +0.252 C 
ENDBRANCH  16  19
BRANCH  17  22
ATOM     21  N   UNL     1     -32.728  27.311   6.433  0.00  0.00    -0.191 NA
ATOM     22  C   UNL     1     -33.508  26.597   5.955  0.00  0.00    +0.103 C 
ENDBRANCH  17  22
ENDBRANCH   9  13
ENDBRANCH   4   8
BRANCH   1  23
ATOM     23  C   UNL     1     -37.994  18.368  -1.329  0.00  0.00    +0.097 C 
ATOM     24  C   UNL     1     -38.592  17.015  -0.950  0.00  0.00    +0.026 C 
BRANCH  23  26
ATOM     25  O   UNL     1     -35.837  19.574  -2.856  0.00  0.00    -0.226 OA
ATOM     26  N   UNL     1     -36.590  18.417  -0.991  0.00  0.00    -0.269 N 
ATOM     27  C   UNL     1     -35.633  19.015  -1.783  0.00  0.00    +0.402 C 
ATOM     28  H   UNL     1     -36.301  18.000  -0.148  0.00  0.00    +0.153 HD
BRANCH  27  29
ATOM     29  O   UNL     1     -34.403  18.896  -1.195  0.00  0.00    -0.437 OA
BRANCH  29  30
ATOM     30  C   UNL     1     -34.401  18.652   0.211  0.00  0.00    +0.186 C 
BRANCH  30  31
ATOM     31  C   UNL     1     -33.413  17.516   0.499  0.00  0.00    +0.045 C 
ATOM     32  C   UNL     1     -32.238  17.973   1.356  0.00  0.00    +0.004 C 
ENDBRANCH  30  31
BRANCH  30  33
ATOM     33  C   UNL     1     -33.988  19.931   0.948  0.00  0.00    +0.149 C 
BRANCH  33  35
ATOM     34  N   UNL     1     -35.512  20.372   3.049  0.00  0.00    -0.196 NA
ATOM     35  C   UNL     1     -34.841  20.178   2.122  0.00  0.00    +0.077 C 
ENDBRANCH  33  35
ENDBRANCH  30  33
ENDBRANCH  29  30
ENDBRANCH  27  29
ENDBRANCH  23  26
ENDBRANCH   1  23
TORSDOF 11
ENDMDL
MODEL 6
REMARK VINA RESULT:      -6.4      3.319      5.926
REMARK  Name = 56603796
REMARK  11 active torsions:
REMARK  status: ('A' for Active; 'I' for Inactive)
REMARK    1  A    between atoms: C_1  and  C_23
REMARK    2  A    between atoms: C_4  and  N_8
REMARK    3  A    between atoms: N_9  and  C_13
REMARK    4  A    between atoms: C_16  and  O_19
REMARK    5  A    between atoms: C_17  and  C_22
REMARK    6  A    between atoms: C_23  and  N_26
REMARK    7  A    between atoms: C_27  and  O_29
REMARK    8  A    between atoms: O_29  and  C_30
REMARK    9  A    between atoms: C_30  and  C_31
REMARK   10  A    between atoms: C_30  and  C_33
REMARK   11  A    between atoms: C_33  and  C_35
REMARK                            x       y       z     vdW  Elec       q    Type
REMARK                         _______ _______ _______ _____ _____    ______ ____
ROOT
ATOM      1  C   UNL     1     -36.031  23.690   4.502  0.00  0.00    -0.003 C 
ATOM      2  C   UNL     1     -35.902  22.757   3.473  0.00  0.00    +0.012 C 
ATOM      3  C   UNL     1     -35.673  23.344   5.805  0.00  0.00    -0.003 C 
ATOM      4  C   UNL     1     -35.414  21.479   3.747  0.00  0.00    +0.051 C 
ATOM      5  C   UNL     1     -35.186  22.066   6.080  0.00  0.00    +0.001 C 
ATOM      6  C   UNL     1     -35.056  21.133   5.050  0.00  0.00    +0.015 C 
ENDROOT
BRANCH   4   8
ATOM      7  O   UNL     1     -37.336  20.705   1.595  0.00  0.00    -0.252 OA
ATOM      8  N   UNL     1     -35.286  20.545   2.718  0.00  0.00    -0.268 N 
ATOM      9  N   UNL     1     -35.686  19.214   0.874  0.00  0.00    -0.268 N 
ATOM     10  C   UNL     1     -36.222  20.204   1.711  0.00  0.00    +0.308 C 
ATOM     11  H   UNL     1     -34.430  20.060   2.687  0.00  0.00    +0.156 HD
ATOM     12  H   UNL     1     -34.776  18.908   1.093  0.00  0.00    +0.156 HD
BRANCH   9  13
ATOM     13  C   UNL     1     -36.292  18.599  -0.247  0.00  0.00    +0.055 C 
ATOM     14  C   UNL     1     -37.489  17.898  -0.095  0.00  0.00    +0.052 C 
ATOM     15  C   UNL     1     -35.693  18.692  -1.503  0.00  0.00    +0.016 C 
ATOM     16  C   UNL     1     -38.087  17.291  -1.200  0.00  0.00    +0.149 C 
ATOM     17  C   UNL     1     -37.488  17.385  -2.456  0.00  0.00    +0.102 C 
ATOM     18  C   UNL     1     -36.291  18.085  -2.608  0.00  0.00    +0.015 C 
BRANCH  16  19
ATOM     19  O   UNL     1     -39.256  16.613  -1.024  0.00  0.00    -0.471 OA
ATOM     20  C   UNL     1     -39.163  15.287  -0.510  0.00  0.00    +0.252 C 
ENDBRANCH  16  19
BRANCH  17  22
ATOM     21  N   UNL     1     -38.568  16.270  -4.531  0.00  0.00    -0.191 NA
ATOM     22  C   UNL     1     -38.085  16.770  -3.602  0.00  0.00    +0.103 C 
ENDBRANCH  17  22
ENDBRANCH   9  13
ENDBRANCH   4   8
BRANCH   1  23
ATOM     23  C   UNL     1     -36.559  25.077   4.205  0.00  0.00    +0.097 C 
ATOM     24  C   UNL     1     -36.063  26.117   5.206  0.00  0.00    +0.026 C 
BRANCH  23  26
ATOM     25  O   UNL     1     -38.242  26.569   2.366  0.00  0.00    -0.226 OA
ATOM     26  N   UNL     1     -38.001  25.085   4.134  0.00  0.00    -0.269 N 
ATOM     27  C   UNL     1     -38.718  25.830   3.221  0.00  0.00    +0.402 C 
ATOM     28  H   UNL     1     -38.501  24.527   4.772  0.00  0.00    +0.153 HD
BRANCH  27  29
ATOM     29  O   UNL     1     -40.059  25.626   3.406  0.00  0.00    -0.437 OA
BRANCH  29  30
ATOM     30  C   UNL     1     -40.900  25.941   2.296  0.00  0.00    +0.186 C 
BRANCH  30  31
ATOM     31  C   UNL     1     -41.078  24.673   1.454  0.00  0.00    +0.045 C 
ATOM     32  C   UNL     1     -40.723  24.895  -0.011  0.00  0.00    +0.004 C 
ENDBRANCH  30  31
BRANCH  30  33
ATOM     33  C   UNL     1     -42.252  26.446   2.811  0.00  0.00    +0.149 C 
BRANCH  33  35
ATOM     34  N   UNL     1     -41.960  28.469   4.469  0.00  0.00    -0.196 NA
ATOM     35  C   UNL     1     -42.090  27.577   3.738  0.00  0.00    +0.077 C 
ENDBRANCH  33  35
ENDBRANCH  30  33
ENDBRANCH  29  30
ENDBRANCH  27  29
ENDBRANCH  23  26
ENDBRANCH   1  23
TORSDOF 11
ENDMDL
MODEL 7
REMARK VINA RESULT:      -6.4      4.738      9.235
REMARK  Name = 56603796
REMARK  11 active torsions:
REMARK  status: ('A' for Active; 'I' for Inactive)
REMARK    1  A    between atoms: C_1  and  C_23
REMARK    2  A    between atoms: C_4  and  N_8
REMARK    3  A    between atoms: N_9  and  C_13
REMARK    4  A    between atoms: C_16  and  O_19
REMARK    5  A    between atoms: C_17  and  C_22
REMARK    6  A    between atoms: C_23  and  N_26
REMARK    7  A    between atoms: C_27  and  O_29
REMARK    8  A    between atoms: O_29  and  C_30
REMARK    9  A    between atoms: C_30  and  C_31
REMARK   10  A    between atoms: C_30  and  C_33
REMARK   11  A    between atoms: C_33  and  C_35
REMARK                            x       y       z     vdW  Elec       q    Type
REMARK                         _______ _______ _______ _____ _____    ______ ____
ROOT
ATOM      1  C   UNL     1     -35.863  23.429   4.244  0.00  0.00    -0.003 C 
ATOM      2  C   UNL     1     -35.020  24.311   4.919  0.00  0.00    +0.012 C 
ATOM      3  C   UNL     1     -36.751  23.910   3.282  0.00  0.00    -0.003 C 
ATOM      4  C   UNL     1     -35.064  25.676   4.631  0.00  0.00    +0.051 C 
ATOM      5  C   UNL     1     -36.796  25.275   2.995  0.00  0.00    +0.001 C 
ATOM      6  C   UNL     1     -35.952  26.158   3.669  0.00  0.00    +0.015 C 
ENDROOT
BRANCH   4   8
ATOM      7  O   UNL     1     -32.782  27.316   3.619  0.00  0.00    -0.252 OA
ATOM      8  N   UNL     1     -34.222  26.560   5.306  0.00  0.00    -0.268 N 
ATOM      9  N   UNL     1     -32.564  28.085   5.817  0.00  0.00    -0.268 N 
ATOM     10  C   UNL     1     -33.146  27.324   4.791  0.00  0.00    +0.308 C 
ATOM     11  H   UNL     1     -34.400  26.668   6.268  0.00  0.00    +0.156 HD
ATOM     12  H   UNL     1     -32.966  27.985   6.710  0.00  0.00    +0.156 HD
BRANCH   9  13
ATOM     13  C   UNL     1     -31.469  28.976   5.726  0.00  0.00    +0.055 C 
ATOM     14  C   UNL     1     -30.200  28.568   6.139  0.00  0.00    +0.052 C 
ATOM     15  C   UNL     1     -31.659  30.265   5.225  0.00  0.00    +0.016 C 
ATOM     16  C   UNL     1     -29.121  29.447   6.049  0.00  0.00    +0.149 C 
ATOM     17  C   UNL     1     -29.310  30.735   5.548  0.00  0.00    +0.102 C 
ATOM     18  C   UNL     1     -30.579  31.144   5.136  0.00  0.00    +0.015 C 
BRANCH  16  19
ATOM     19  O   UNL     1     -27.892  29.022   6.459  0.00  0.00    -0.471 OA
ATOM     20  C   UNL     1     -27.859  28.061   7.511  0.00  0.00    +0.252 C 
ENDBRANCH  16  19
BRANCH  17  22
ATOM     21  N   UNL     1     -27.330  32.396   5.368  0.00  0.00    -0.191 NA
ATOM     22  C   UNL     1     -28.216  31.652   5.448  0.00  0.00    +0.103 C 
ENDBRANCH  17  22
ENDBRANCH   9  13
ENDBRANCH   4   8
BRANCH   1  23
ATOM     23  C   UNL     1     -35.814  21.948   4.555  0.00  0.00    +0.097 C 
ATOM     24  C   UNL     1     -35.134  21.655   5.890  0.00  0.00    +0.026 C 
BRANCH  23  26
ATOM     25  O   UNL     1     -37.093  20.623   2.309  0.00  0.00    -0.226 OA
ATOM     26  N   UNL     1     -35.182  21.208   3.488  0.00  0.00    -0.269 N 
ATOM     27  C   UNL     1     -35.875  20.609   2.458  0.00  0.00    +0.402 C 
ATOM     28  H   UNL     1     -34.202  21.127   3.497  0.00  0.00    +0.153 HD
BRANCH  27  29
ATOM     29  O   UNL     1     -35.001  19.987   1.609  0.00  0.00    -0.437 OA
BRANCH  29  30
ATOM     30  C   UNL     1     -33.902  20.775   1.152  0.00  0.00    +0.186 C 
BRANCH  30  31
ATOM     31  C   UNL     1     -32.862  19.836   0.531  0.00  0.00    +0.045 C 
ATOM     32  C   UNL     1     -32.796  18.492   1.246  0.00  0.00    +0.004 C 
ENDBRANCH  30  31
BRANCH  30  33
ATOM     33  C   UNL     1     -34.402  21.792   0.119  0.00  0.00    +0.149 C 
BRANCH  33  35
ATOM     34  N   UNL     1     -33.978  24.265   0.913  0.00  0.00    -0.196 NA
ATOM     35  C   UNL     1     -34.164  23.174   0.562  0.00  0.00    +0.077 C 
ENDBRANCH  33  35
ENDBRANCH  30  33
ENDBRANCH  29  30
ENDBRANCH  27  29
ENDBRANCH  23  26
ENDBRANCH   1  23
TORSDOF 11
ENDMDL
MODEL 8
REMARK VINA RESULT:      -6.3      6.083     10.174
REMARK  Name = 56603796
REMARK  11 active torsions:
REMARK  status: ('A' for Active; 'I' for Inactive)
REMARK    1  A    between atoms: C_1  and  C_23
REMARK    2  A    between atoms: C_4  and  N_8
REMARK    3  A    between atoms: N_9  and  C_13
REMARK    4  A    between atoms: C_16  and  O_19
REMARK    5  A    between atoms: C_17  and  C_22
REMARK    6  A    between atoms: C_23  and  N_26
REMARK    7  A    between atoms: C_27  and  O_29
REMARK    8  A    between atoms: O_29  and  C_30
REMARK    9  A    between atoms: C_30  and  C_31
REMARK   10  A    between atoms: C_30  and  C_33
REMARK   11  A    between atoms: C_33  and  C_35
REMARK                            x       y       z     vdW  Elec       q    Type
REMARK                         _______ _______ _______ _____ _____    ______ ____
ROOT
ATOM      1  C   UNL     1     -29.840  30.817   4.578  0.00  0.00    -0.003 C 
ATOM      2  C   UNL     1     -31.057  30.136   4.583  0.00  0.00    +0.012 C 
ATOM      3  C   UNL     1     -28.895  30.566   5.573  0.00  0.00    -0.003 C 
ATOM      4  C   UNL     1     -31.329  29.202   5.584  0.00  0.00    +0.051 C 
ATOM      5  C   UNL     1     -29.167  29.633   6.574  0.00  0.00    +0.001 C 
ATOM      6  C   UNL     1     -30.384  28.951   6.579  0.00  0.00    +0.015 C 
ENDROOT
BRANCH   4   8
ATOM      7  O   UNL     1     -32.256  26.898   3.924  0.00  0.00    -0.252 OA
ATOM      8  N   UNL     1     -32.546  28.520   5.590  0.00  0.00    -0.268 N 
ATOM      9  N   UNL     1     -34.260  27.044   5.121  0.00  0.00    -0.268 N 
ATOM     10  C   UNL     1     -32.952  27.427   4.786  0.00  0.00    +0.308 C 
ATOM     11  H   UNL     1     -33.211  28.840   6.242  0.00  0.00    +0.156 HD
ATOM     12  H   UNL     1     -34.693  27.565   5.835  0.00  0.00    +0.156 HD
BRANCH   9  13
ATOM     13  C   UNL     1     -35.034  26.002   4.558  0.00  0.00    +0.055 C 
ATOM     14  C   UNL     1     -35.267  24.835   5.285  0.00  0.00    +0.052 C 
ATOM     15  C   UNL     1     -35.562  26.143   3.274  0.00  0.00    +0.016 C 
ATOM     16  C   UNL     1     -36.030  23.808   4.729  0.00  0.00    +0.149 C 
ATOM     17  C   UNL     1     -36.559  23.948   3.447  0.00  0.00    +0.102 C 
ATOM     18  C   UNL     1     -36.325  25.115   2.719  0.00  0.00    +0.015 C 
BRANCH  16  19
ATOM     19  O   UNL     1     -36.243  22.678   5.462  0.00  0.00    -0.471 OA
ATOM     20  C   UNL     1     -35.162  22.217   6.268  0.00  0.00    +0.252 C 
ENDBRANCH  16  19
BRANCH  17  22
ATOM     21  N   UNL     1     -37.981  22.062   2.381  0.00  0.00    -0.191 NA
ATOM     22  C   UNL     1     -37.344  22.906   2.858  0.00  0.00    +0.103 C 
ENDBRANCH  17  22
ENDBRANCH   9  13
ENDBRANCH   4   8
BRANCH   1  23
ATOM     23  C   UNL     1     -29.544  31.830   3.493  0.00  0.00    +0.097 C 
ATOM     24  C   UNL     1     -28.740  33.021   4.008  0.00  0.00    +0.026 C 
BRANCH  23  26
ATOM     25  O   UNL     1     -30.175  31.771   0.657  0.00  0.00    -0.226 OA
ATOM     26  N   UNL     1     -30.757  32.276   2.846  0.00  0.00    -0.269 N 
ATOM     27  C   UNL     1     -30.967  32.208   1.485  0.00  0.00    +0.402 C 
ATOM     28  H   UNL     1     -31.473  32.648   3.409  0.00  0.00    +0.153 HD
BRANCH  27  29
ATOM     29  O   UNL     1     -32.206  32.705   1.182  0.00  0.00    -0.437 OA
BRANCH  29  30
ATOM     30  C   UNL     1     -33.028  33.062   2.293  0.00  0.00    +0.186 C 
BRANCH  30  31
ATOM     31  C   UNL     1     -33.202  34.585   2.291  0.00  0.00    +0.045 C 
ATOM     32  C   UNL     1     -34.428  35.027   1.502  0.00  0.00    +0.004 C 
ENDBRANCH  30  31
BRANCH  30  33
ATOM     33  C   UNL     1     -34.385  32.360   2.166  0.00  0.00    +0.149 C 
BRANCH  33  35
ATOM     34  N   UNL     1     -34.465  30.149   3.592  0.00  0.00    -0.196 NA
ATOM     35  C   UNL     1     -34.431  31.124   2.964  0.00  0.00    +0.077 C 
ENDBRANCH  33  35
ENDBRANCH  30  33
ENDBRANCH  29  30
ENDBRANCH  27  29
ENDBRANCH  23  26
ENDBRANCH   1  23
TORSDOF 11
ENDMDL
MODEL 9
REMARK VINA RESULT:      -6.2      5.790      9.545
REMARK  Name = 56603796
REMARK  11 active torsions:
REMARK  status: ('A' for Active; 'I' for Inactive)
REMARK    1  A    between atoms: C_1  and  C_23
REMARK    2  A    between atoms: C_4  and  N_8
REMARK    3  A    between atoms: N_9  and  C_13
REMARK    4  A    between atoms: C_16  and  O_19
REMARK    5  A    between atoms: C_17  and  C_22
REMARK    6  A    between atoms: C_23  and  N_26
REMARK    7  A    between atoms: C_27  and  O_29
REMARK    8  A    between atoms: O_29  and  C_30
REMARK    9  A    between atoms: C_30  and  C_31
REMARK   10  A    between atoms: C_30  and  C_33
REMARK   11  A    between atoms: C_33  and  C_35
REMARK                            x       y       z     vdW  Elec       q    Type
REMARK                         _______ _______ _______ _____ _____    ______ ____
ROOT
ATOM      1  C   UNL     1     -36.525  24.937   3.436  0.00  0.00    -0.003 C 
ATOM      2  C   UNL     1     -35.747  25.954   3.989  0.00  0.00    +0.012 C 
ATOM      3  C   UNL     1     -36.451  23.643   3.952  0.00  0.00    -0.003 C 
ATOM      4  C   UNL     1     -34.896  25.677   5.060  0.00  0.00    +0.051 C 
ATOM      5  C   UNL     1     -35.600  23.366   5.022  0.00  0.00    +0.001 C 
ATOM      6  C   UNL     1     -34.823  24.383   5.577  0.00  0.00    +0.015 C 
ENDROOT
BRANCH   4   8
ATOM      7  O   UNL     1     -32.431  27.002   4.017  0.00  0.00    -0.252 OA
ATOM      8  N   UNL     1     -34.118  26.693   5.615  0.00  0.00    -0.268 N 
ATOM      9  N   UNL     1     -32.483  28.285   5.972  0.00  0.00    -0.268 N 
ATOM     10  C   UNL     1     -32.951  27.300   5.088  0.00  0.00    +0.308 C 
ATOM     11  H   UNL     1     -34.421  27.036   6.486  0.00  0.00    +0.156 HD
ATOM     12  H   UNL     1     -33.006  28.411   6.795  0.00  0.00    +0.156 HD
BRANCH   9  13
ATOM     13  C   UNL     1     -31.349  29.119   5.825  0.00  0.00    +0.055 C 
ATOM     14  C   UNL     1     -30.098  28.681   6.260  0.00  0.00    +0.052 C 
ATOM     15  C   UNL     1     -31.483  30.382   5.245  0.00  0.00    +0.016 C 
ATOM     16  C   UNL     1     -28.982  29.504   6.115  0.00  0.00    +0.149 C 
ATOM     17  C   UNL     1     -29.115  30.765   5.536  0.00  0.00    +0.102 C 
ATOM     18  C   UNL     1     -30.366  31.204   5.101  0.00  0.00    +0.015 C 
BRANCH  16  19
ATOM     19  O   UNL     1     -27.772  29.050   6.549  0.00  0.00    -0.471 OA
ATOM     20  C   UNL     1     -27.782  28.046   7.560  0.00  0.00    +0.252 C 
ENDBRANCH  16  19
BRANCH  17  22
ATOM     21  N   UNL     1     -27.062  32.320   5.250  0.00  0.00    -0.191 NA
ATOM     22  C   UNL     1     -27.982  31.624   5.378  0.00  0.00    +0.103 C 
ENDBRANCH  17  22
ENDBRANCH   9  13
ENDBRANCH   4   8
BRANCH   1  23
ATOM     23  C   UNL     1     -37.448  25.237   2.275  0.00  0.00    +0.097 C 
ATOM     24  C   UNL     1     -36.839  26.229   1.287  0.00  0.00    +0.026 C 
BRANCH  23  26
ATOM     25  O   UNL     1     -39.760  23.636   3.002  0.00  0.00    -0.226 OA
ATOM     26  N   UNL     1     -38.736  25.701   2.735  0.00  0.00    -0.269 N 
ATOM     27  C   UNL     1     -39.780  24.861   3.058  0.00  0.00    +0.402 C 
ATOM     28  H   UNL     1     -38.876  26.671   2.822  0.00  0.00    +0.153 HD
BRANCH  27  29
ATOM     29  O   UNL     1     -40.862  25.598   3.458  0.00  0.00    -0.437 OA
BRANCH  29  30
ATOM     30  C   UNL     1     -41.592  26.254   2.422  0.00  0.00    +0.186 C 
BRANCH  30  31
ATOM     31  C   UNL     1     -42.025  25.198   1.398  0.00  0.00    +0.045 C 
ATOM     32  C   UNL     1     -43.531  25.202   1.162  0.00  0.00    +0.004 C 
ENDBRANCH  30  31
BRANCH  30  33
ATOM     33  C   UNL     1     -42.813  26.956   3.027  0.00  0.00    +0.149 C 
BRANCH  33  35
ATOM     34  N   UNL     1     -42.101  28.872   4.685  0.00  0.00    -0.196 NA
ATOM     35  C   UNL     1     -42.416  28.028   3.953  0.00  0.00    +0.077 C 
ENDBRANCH  33  35
ENDBRANCH  30  33
ENDBRANCH  29  30
ENDBRANCH  27  29
ENDBRANCH  23  26
ENDBRANCH   1  23
TORSDOF 11
ENDMDL
