MODEL 1
REMARK VINA RESULT:      -4.6      0.000      0.000
REMARK  Name = 195905
REMARK  17 active torsions:
REMARK  status: ('A' for Active; 'I' for Inactive)
REMARK    1  A    between atoms: C_1  and  C_2
REMARK    2  A    between atoms: C_1  and  C_15
REMARK    3  A    between atoms: C_2  and  C_3
REMARK    4  A    between atoms: C_3  and  C_4
REMARK    5  A    between atoms: C_4  and  C_5
REMARK    6  A    between atoms: C_5  and  C_6
REMARK    7  A    between atoms: C_6  and  C_7
REMARK    8  A    between atoms: C_7  and  C_8
REMARK    9  A    between atoms: C_8  and  C_9
REMARK   10  A    between atoms: C_9  and  C_10
REMARK   11  A    between atoms: C_10  and  C_11
REMARK   12  A    between atoms: C_11  and  C_12
REMARK   13  A    between atoms: C_15  and  O_16
REMARK   14  A    between atoms: C_15  and  C_18
REMARK   15  A    between atoms: C_18  and  N_19
REMARK   16  A    between atoms: C_18  and  C_23
REMARK   17  A    between atoms: C_23  and  S_24
REMARK                            x       y       z     vdW  Elec       q    Type
REMARK                         _______ _______ _______ _____ _____    ______ ____
ROOT
ATOM      1  C   UNL     1     -35.343  21.776   2.534  0.00  0.00    +0.027 C 
ENDROOT
BRANCH   1   2
ATOM      2  C   UNL     1     -36.077  22.140   3.830  0.00  0.00    +0.002 C 
BRANCH   2   3
ATOM      3  C   UNL     1     -35.244  21.776   5.061  0.00  0.00    +0.000 C 
BRANCH   3   4
ATOM      4  C   UNL     1     -35.266  22.903   6.096  0.00  0.00    +0.000 C 
BRANCH   4   5
ATOM      5  C   UNL     1     -35.755  24.241   5.533  0.00  0.00    +0.000 C 
BRANCH   5   6
ATOM      6  C   UNL     1     -34.687  25.324   5.357  0.00  0.00    +0.000 C 
BRANCH   6   7
ATOM      7  C   UNL     1     -33.853  25.160   4.084  0.00  0.00    +0.000 C 
BRANCH   7   8
ATOM      8  C   UNL     1     -34.682  25.469   2.835  0.00  0.00    +0.000 C 
BRANCH   8   9
ATOM      9  C   UNL     1     -35.640  26.650   3.017  0.00  0.00    +0.000 C 
BRANCH   9  10
ATOM     10  C   UNL     1     -36.909  26.542   2.166  0.00  0.00    +0.000 C 
BRANCH  10  11
ATOM     11  C   UNL     1     -37.380  25.087   2.067  0.00  0.00    +0.000 C 
BRANCH  11  12
ATOM     12  C   UNL     1     -38.636  24.744   2.892  0.00  0.00    +0.000 C 
ATOM     13  C   UNL     1     -39.300  23.447   2.430  0.00  0.00    +0.000 C 
ATOM     14  C   UNL     1     -39.651  25.887   2.912  0.00  0.00    +0.000 C 
ENDBRANCH  11  12
ENDBRANCH  10  11
ENDBRANCH   9  10
ENDBRANCH   8   9
ENDBRANCH   7   8
ENDBRANCH   6   7
ENDBRANCH   5   6
ENDBRANCH   4   5
ENDBRANCH   3   4
ENDBRANCH   2   3
ENDBRANCH   1   2
BRANCH   1  15
ATOM     15  C   UNL     1     -35.378  20.263   2.252  0.00  0.00    +0.092 C 
BRANCH  15  16
ATOM     16  O   UNL     1     -36.690  19.772   2.532  0.00  0.00    -0.387 OA
ATOM     17  H   UNL     1     -37.055  20.243   3.298  0.00  0.00    +0.210 HD
ENDBRANCH  15  16
BRANCH  15  18
ATOM     18  C   UNL     1     -35.006  19.917   0.793  0.00  0.00    -0.014 C 
BRANCH  18  19
ATOM     19  N   UNL     1     -35.231  18.493   0.532  0.00  0.00    +0.385 N 
ATOM     20  H   UNL     1     -34.548  17.940   1.050  0.00  0.00    -0.089 HD
ATOM     21  H   UNL     1     -35.128  18.310  -0.467  0.00  0.00    -0.089 HD
ATOM     22  H   UNL     1     -36.172  18.236   0.829  0.00  0.00    -0.089 HD
ENDBRANCH  18  19
BRANCH  18  23
ATOM     23  C   UNL     1     -33.583  20.334   0.393  0.00  0.00    +0.139 C 
BRANCH  23  24
ATOM     24  S   UNL     1     -32.376  19.050   0.487  0.00  0.00    +0.021 S 
ATOM     25  O   UNL     1     -32.811  18.249  -0.866  0.00  0.00    -0.070 OA
ATOM     26  O   UNL     1     -32.665  18.214   1.637  0.00  0.00    -0.070 OA
ATOM     27  O   UNL     1     -31.060  19.629   0.281  0.00  0.00    -0.070 OA
ENDBRANCH  23  24
ENDBRANCH  18  23
ENDBRANCH  15  18
ENDBRANCH   1  15
TORSDOF 17
ENDMDL
MODEL 2
REMARK VINA RESULT:      -4.5      5.374      6.583
REMARK  Name = 195905
REMARK  17 active torsions:
REMARK  status: ('A' for Active; 'I' for Inactive)
REMARK    1  A    between atoms: C_1  and  C_2
REMARK    2  A    between atoms: C_1  and  C_15
REMARK    3  A    between atoms: C_2  and  C_3
REMARK    4  A    between atoms: C_3  and  C_4
REMARK    5  A    between atoms: C_4  and  C_5
REMARK    6  A    between atoms: C_5  and  C_6
REMARK    7  A    between atoms: C_6  and  C_7
REMARK    8  A    between atoms: C_7  and  C_8
REMARK    9  A    between atoms: C_8  and  C_9
REMARK   10  A    between atoms: C_9  and  C_10
REMARK   11  A    between atoms: C_10  and  C_11
REMARK   12  A    between atoms: C_11  and  C_12
REMARK   13  A    between atoms: C_15  and  O_16
REMARK   14  A    between atoms: C_15  and  C_18
REMARK   15  A    between atoms: C_18  and  N_19
REMARK   16  A    between atoms: C_18  and  C_23
REMARK   17  A    between atoms: C_23  and  S_24
REMARK                            x       y       z     vdW  Elec       q    Type
REMARK                         _______ _______ _______ _____ _____    ______ ____
ROOT
ATOM      1  C   UNL     1     -34.493  24.933   5.481  0.00  0.00    +0.027 C 
ENDROOT
BRANCH   1   2
ATOM      2  C   UNL     1     -35.636  23.911   5.502  0.00  0.00    +0.002 C 
BRANCH   2   3
ATOM      3  C   UNL     1     -35.222  22.630   6.232  0.00  0.00    +0.000 C 
BRANCH   3   4
ATOM      4  C   UNL     1     -35.178  21.438   5.275  0.00  0.00    +0.000 C 
BRANCH   4   5
ATOM      5  C   UNL     1     -35.656  21.773   3.859  0.00  0.00    +0.000 C 
BRANCH   5   6
ATOM      6  C   UNL     1     -35.253  20.782   2.763  0.00  0.00    +0.000 C 
BRANCH   6   7
ATOM      7  C   UNL     1     -34.879  21.453   1.439  0.00  0.00    +0.000 C 
BRANCH   7   8
ATOM      8  C   UNL     1     -34.896  22.978   1.568  0.00  0.00    +0.000 C 
BRANCH   8   9
ATOM      9  C   UNL     1     -35.571  23.682   0.386  0.00  0.00    +0.000 C 
BRANCH   9  10
ATOM     10  C   UNL     1     -37.033  24.052   0.652  0.00  0.00    +0.000 C 
BRANCH  10  11
ATOM     11  C   UNL     1     -37.223  24.536   2.094  0.00  0.00    +0.000 C 
BRANCH  11  12
ATOM     12  C   UNL     1     -38.367  23.857   2.873  0.00  0.00    +0.000 C 
ATOM     13  C   UNL     1     -38.881  22.599   2.173  0.00  0.00    +0.000 C 
ATOM     14  C   UNL     1     -39.521  24.816   3.167  0.00  0.00    +0.000 C 
ENDBRANCH  11  12
ENDBRANCH  10  11
ENDBRANCH   9  10
ENDBRANCH   8   9
ENDBRANCH   7   8
ENDBRANCH   6   7
ENDBRANCH   5   6
ENDBRANCH   4   5
ENDBRANCH   3   4
ENDBRANCH   2   3
ENDBRANCH   1   2
BRANCH   1  15
ATOM     15  C   UNL     1     -34.740  26.058   4.460  0.00  0.00    +0.092 C 
BRANCH  15  16
ATOM     16  O   UNL     1     -35.865  26.830   4.886  0.00  0.00    -0.387 OA
ATOM     17  H   UNL     1     -36.160  27.399   4.158  0.00  0.00    +0.210 HD
ENDBRANCH  15  16
BRANCH  15  18
ATOM     18  C   UNL     1     -33.519  26.990   4.288  0.00  0.00    -0.014 C 
BRANCH  18  19
ATOM     19  N   UNL     1     -33.063  27.480   5.591  0.00  0.00    +0.385 N 
ATOM     20  H   UNL     1     -32.214  28.032   5.469  0.00  0.00    -0.089 HD
ATOM     21  H   UNL     1     -32.867  26.686   6.203  0.00  0.00    -0.089 HD
ATOM     22  H   UNL     1     -33.789  28.060   6.011  0.00  0.00    -0.089 HD
ENDBRANCH  18  19
BRANCH  18  23
ATOM     23  C   UNL     1     -33.751  28.153   3.312  0.00  0.00    +0.139 C 
BRANCH  23  24
ATOM     24  S   UNL     1     -32.660  29.525   3.514  0.00  0.00    +0.021 S 
ATOM     25  O   UNL     1     -32.941  30.234   2.072  0.00  0.00    -0.070 OA
ATOM     26  O   UNL     1     -31.292  29.040   3.537  0.00  0.00    -0.070 OA
ATOM     27  O   UNL     1     -33.178  30.384   4.564  0.00  0.00    -0.070 OA
ENDBRANCH  23  24
ENDBRANCH  18  23
ENDBRANCH  15  18
ENDBRANCH   1  15
TORSDOF 17
ENDMDL
MODEL 3
REMARK VINA RESULT:      -4.4      4.126      6.771
REMARK  Name = 195905
REMARK  17 active torsions:
REMARK  status: ('A' for Active; 'I' for Inactive)
REMARK    1  A    between atoms: C_1  and  C_2
REMARK    2  A    between atoms: C_1  and  C_15
REMARK    3  A    between atoms: C_2  and  C_3
REMARK    4  A    between atoms: C_3  and  C_4
REMARK    5  A    between atoms: C_4  and  C_5
REMARK    6  A    between atoms: C_5  and  C_6
REMARK    7  A    between atoms: C_6  and  C_7
REMARK    8  A    between atoms: C_7  and  C_8
REMARK    9  A    between atoms: C_8  and  C_9
REMARK   10  A    between atoms: C_9  and  C_10
REMARK   11  A    between atoms: C_10  and  C_11
REMARK   12  A    between atoms: C_11  and  C_12
REMARK   13  A    between atoms: C_15  and  O_16
REMARK   14  A    between atoms: C_15  and  C_18
REMARK   15  A    between atoms: C_18  and  N_19
REMARK   16  A    between atoms: C_18  and  C_23
REMARK   17  A    between atoms: C_23  and  S_24
REMARK                            x       y       z     vdW  Elec       q    Type
REMARK                         _______ _______ _______ _____ _____    ______ ____
ROOT
ATOM      1  C   UNL     1     -36.303  25.913   2.662  0.00  0.00    +0.027 C 
ENDROOT
BRANCH   1   2
ATOM      2  C   UNL     1     -36.163  25.899   4.189  0.00  0.00    +0.002 C 
BRANCH   2   3
ATOM      3  C   UNL     1     -34.692  25.846   4.611  0.00  0.00    +0.000 C 
BRANCH   3   4
ATOM      4  C   UNL     1     -34.448  24.726   5.625  0.00  0.00    +0.000 C 
BRANCH   4   5
ATOM      5  C   UNL     1     -35.557  23.669   5.647  0.00  0.00    +0.000 C 
BRANCH   5   6
ATOM      6  C   UNL     1     -35.092  22.212   5.703  0.00  0.00    +0.000 C 
BRANCH   6   7
ATOM      7  C   UNL     1     -35.328  21.443   4.401  0.00  0.00    +0.000 C 
BRANCH   7   8
ATOM      8  C   UNL     1     -35.318  22.385   3.193  0.00  0.00    +0.000 C 
BRANCH   8   9
ATOM      9  C   UNL     1     -35.637  21.683   1.870  0.00  0.00    +0.000 C 
BRANCH   9  10
ATOM     10  C   UNL     1     -35.754  20.161   2.002  0.00  0.00    +0.000 C 
BRANCH  10  11
ATOM     11  C   UNL     1     -34.878  19.452   0.963  0.00  0.00    +0.000 C 
BRANCH  11  12
ATOM     12  C   UNL     1     -33.362  19.503   1.235  0.00  0.00    +0.000 C 
ATOM     13  C   UNL     1     -32.622  20.403   0.246  0.00  0.00    +0.000 C 
ATOM     14  C   UNL     1     -32.729  18.111   1.269  0.00  0.00    +0.000 C 
ENDBRANCH  11  12
ENDBRANCH  10  11
ENDBRANCH   9  10
ENDBRANCH   8   9
ENDBRANCH   7   8
ENDBRANCH   6   7
ENDBRANCH   5   6
ENDBRANCH   4   5
ENDBRANCH   3   4
ENDBRANCH   2   3
ENDBRANCH   1   2
BRANCH   1  15
ATOM     15  C   UNL     1     -37.553  26.684   2.201  0.00  0.00    +0.092 C 
BRANCH  15  16
ATOM     16  O   UNL     1     -37.145  27.938   1.650  0.00  0.00    -0.387 OA
ATOM     17  H   UNL     1     -36.239  28.136   1.935  0.00  0.00    +0.210 HD
ENDBRANCH  15  16
BRANCH  15  18
ATOM     18  C   UNL     1     -38.380  25.911   1.149  0.00  0.00    -0.014 C 
BRANCH  18  19
ATOM     19  N   UNL     1     -39.763  26.392   1.131  0.00  0.00    +0.385 N 
ATOM     20  H   UNL     1     -40.392  25.612   0.941  0.00  0.00    -0.089 HD
ATOM     21  H   UNL     1     -39.867  27.098   0.401  0.00  0.00    -0.089 HD
ATOM     22  H   UNL     1     -39.993  26.802   2.036  0.00  0.00    -0.089 HD
ENDBRANCH  18  19
BRANCH  18  23
ATOM     23  C   UNL     1     -38.329  24.384   1.311  0.00  0.00    +0.139 C 
BRANCH  23  24
ATOM     24  S   UNL     1     -39.640  23.691   2.265  0.00  0.00    +0.021 S 
ATOM     25  O   UNL     1     -39.003  22.201   2.453  0.00  0.00    -0.070 OA
ATOM     26  O   UNL     1     -40.826  23.590   1.435  0.00  0.00    -0.070 OA
ATOM     27  O   UNL     1     -39.675  24.349   3.560  0.00  0.00    -0.070 OA
ENDBRANCH  23  24
ENDBRANCH  18  23
ENDBRANCH  15  18
ENDBRANCH   1  15
TORSDOF 17
ENDMDL
MODEL 4
REMARK VINA RESULT:      -4.4      5.311      7.652
REMARK  Name = 195905
REMARK  17 active torsions:
REMARK  status: ('A' for Active; 'I' for Inactive)
REMARK    1  A    between atoms: C_1  and  C_2
REMARK    2  A    between atoms: C_1  and  C_15
REMARK    3  A    between atoms: C_2  and  C_3
REMARK    4  A    between atoms: C_3  and  C_4
REMARK    5  A    between atoms: C_4  and  C_5
REMARK    6  A    between atoms: C_5  and  C_6
REMARK    7  A    between atoms: C_6  and  C_7
REMARK    8  A    between atoms: C_7  and  C_8
REMARK    9  A    between atoms: C_8  and  C_9
REMARK   10  A    between atoms: C_9  and  C_10
REMARK   11  A    between atoms: C_10  and  C_11
REMARK   12  A    between atoms: C_11  and  C_12
REMARK   13  A    between atoms: C_15  and  O_16
REMARK   14  A    between atoms: C_15  and  C_18
REMARK   15  A    between atoms: C_18  and  N_19
REMARK   16  A    between atoms: C_18  and  C_23
REMARK   17  A    between atoms: C_23  and  S_24
REMARK                            x       y       z     vdW  Elec       q    Type
REMARK                         _______ _______ _______ _____ _____    ______ ____
ROOT
ATOM      1  C   UNL     1     -34.127  25.267   3.964  0.00  0.00    +0.027 C 
ENDROOT
BRANCH   1   2
ATOM      2  C   UNL     1     -34.624  25.115   5.407  0.00  0.00    +0.002 C 
BRANCH   2   3
ATOM      3  C   UNL     1     -35.698  24.029   5.513  0.00  0.00    +0.000 C 
BRANCH   3   4
ATOM      4  C   UNL     1     -35.087  22.633   5.378  0.00  0.00    +0.000 C 
BRANCH   4   5
ATOM      5  C   UNL     1     -35.555  21.879   4.130  0.00  0.00    +0.000 C 
BRANCH   5   6
ATOM      6  C   UNL     1     -36.608  22.589   3.274  0.00  0.00    +0.000 C 
BRANCH   6   7
ATOM      7  C   UNL     1     -36.307  22.546   1.774  0.00  0.00    +0.000 C 
BRANCH   7   8
ATOM      8  C   UNL     1     -34.808  22.714   1.506  0.00  0.00    +0.000 C 
BRANCH   8   9
ATOM      9  C   UNL     1     -34.247  21.686   0.520  0.00  0.00    +0.000 C 
BRANCH   9  10
ATOM     10  C   UNL     1     -34.779  20.268   0.750  0.00  0.00    +0.000 C 
BRANCH  10  11
ATOM     11  C   UNL     1     -33.830  19.464   1.645  0.00  0.00    +0.000 C 
BRANCH  11  12
ATOM     12  C   UNL     1     -33.288  18.160   1.028  0.00  0.00    +0.000 C 
ATOM     13  C   UNL     1     -31.775  18.022   1.192  0.00  0.00    +0.000 C 
ATOM     14  C   UNL     1     -33.684  18.001  -0.441  0.00  0.00    +0.000 C 
ENDBRANCH  11  12
ENDBRANCH  10  11
ENDBRANCH   9  10
ENDBRANCH   8   9
ENDBRANCH   7   8
ENDBRANCH   6   7
ENDBRANCH   5   6
ENDBRANCH   4   5
ENDBRANCH   3   4
ENDBRANCH   2   3
ENDBRANCH   1   2
BRANCH   1  15
ATOM     15  C   UNL     1     -34.610  26.578   3.319  0.00  0.00    +0.092 C 
BRANCH  15  16
ATOM     16  O   UNL     1     -35.313  27.343   4.299  0.00  0.00    -0.387 OA
ATOM     17  H   UNL     1     -35.996  26.791   4.711  0.00  0.00    +0.210 HD
ENDBRANCH  15  16
BRANCH  15  18
ATOM     18  C   UNL     1     -33.451  27.426   2.747  0.00  0.00    -0.014 C 
BRANCH  18  19
ATOM     19  N   UNL     1     -32.178  26.717   2.894  0.00  0.00    +0.385 N 
ATOM     20  H   UNL     1     -31.416  27.393   2.952  0.00  0.00    -0.089 HD
ATOM     21  H   UNL     1     -32.032  26.110   2.087  0.00  0.00    -0.089 HD
ATOM     22  H   UNL     1     -32.197  26.154   3.744  0.00  0.00    -0.089 HD
ENDBRANCH  18  19
BRANCH  18  23
ATOM     23  C   UNL     1     -33.364  28.844   3.333  0.00  0.00    +0.139 C 
BRANCH  23  24
ATOM     24  S   UNL     1     -32.267  29.019   4.703  0.00  0.00    +0.021 S 
ATOM     25  O   UNL     1     -32.730  30.515   5.157  0.00  0.00    -0.070 OA
ATOM     26  O   UNL     1     -30.903  29.081   4.211  0.00  0.00    -0.070 OA
ATOM     27  O   UNL     1     -32.657  28.077   5.738  0.00  0.00    -0.070 OA
ENDBRANCH  23  24
ENDBRANCH  18  23
ENDBRANCH  15  18
ENDBRANCH   1  15
TORSDOF 17
ENDMDL
MODEL 5
REMARK VINA RESULT:      -4.4      1.490      3.467
REMARK  Name = 195905
REMARK  17 active torsions:
REMARK  status: ('A' for Active; 'I' for Inactive)
REMARK    1  A    between atoms: C_1  and  C_2
REMARK    2  A    between atoms: C_1  and  C_15
REMARK    3  A    between atoms: C_2  and  C_3
REMARK    4  A    between atoms: C_3  and  C_4
REMARK    5  A    between atoms: C_4  and  C_5
REMARK    6  A    between atoms: C_5  and  C_6
REMARK    7  A    between atoms: C_6  and  C_7
REMARK    8  A    between atoms: C_7  and  C_8
REMARK    9  A    between atoms: C_8  and  C_9
REMARK   10  A    between atoms: C_9  and  C_10
REMARK   11  A    between atoms: C_10  and  C_11
REMARK   12  A    between atoms: C_11  and  C_12
REMARK   13  A    between atoms: C_15  and  O_16
REMARK   14  A    between atoms: C_15  and  C_18
REMARK   15  A    between atoms: C_18  and  N_19
REMARK   16  A    between atoms: C_18  and  C_23
REMARK   17  A    between atoms: C_23  and  S_24
REMARK                            x       y       z     vdW  Elec       q    Type
REMARK                         _______ _______ _______ _____ _____    ______ ____
ROOT
ATOM      1  C   UNL     1     -37.862  21.448   0.956  0.00  0.00    +0.027 C 
ENDROOT
BRANCH   1   2
ATOM      2  C   UNL     1     -38.460  22.048   2.234  0.00  0.00    +0.002 C 
BRANCH   2   3
ATOM      3  C   UNL     1     -38.948  23.480   2.000  0.00  0.00    +0.000 C 
BRANCH   3   4
ATOM      4  C   UNL     1     -38.600  24.383   3.184  0.00  0.00    +0.000 C 
BRANCH   4   5
ATOM      5  C   UNL     1     -38.192  25.801   2.772  0.00  0.00    +0.000 C 
BRANCH   5   6
ATOM      6  C   UNL     1     -37.507  25.932   1.409  0.00  0.00    +0.000 C 
BRANCH   6   7
ATOM      7  C   UNL     1     -35.978  25.935   1.491  0.00  0.00    +0.000 C 
BRANCH   7   8
ATOM      8  C   UNL     1     -35.376  24.813   0.641  0.00  0.00    +0.000 C 
BRANCH   8   9
ATOM      9  C   UNL     1     -34.873  23.626   1.468  0.00  0.00    +0.000 C 
BRANCH   9  10
ATOM     10  C   UNL     1     -34.774  23.927   2.967  0.00  0.00    +0.000 C 
BRANCH  10  11
ATOM     11  C   UNL     1     -35.291  22.746   3.798  0.00  0.00    +0.000 C 
BRANCH  11  12
ATOM     12  C   UNL     1     -35.815  23.108   5.202  0.00  0.00    +0.000 C 
ATOM     13  C   UNL     1     -35.631  24.590   5.529  0.00  0.00    +0.000 C 
ATOM     14  C   UNL     1     -35.197  22.239   6.298  0.00  0.00    +0.000 C 
ENDBRANCH  11  12
ENDBRANCH  10  11
ENDBRANCH   9  10
ENDBRANCH   8   9
ENDBRANCH   7   8
ENDBRANCH   6   7
ENDBRANCH   5   6
ENDBRANCH   4   5
ENDBRANCH   3   4
ENDBRANCH   2   3
ENDBRANCH   1   2
BRANCH   1  15
ATOM     15  C   UNL     1     -36.715  20.466   1.258  0.00  0.00    +0.092 C 
BRANCH  15  16
ATOM     16  O   UNL     1     -36.990  19.799   2.491  0.00  0.00    -0.387 OA
ATOM     17  H   UNL     1     -37.947  19.669   2.581  0.00  0.00    +0.210 HD
ENDBRANCH  15  16
BRANCH  15  18
ATOM     18  C   UNL     1     -36.519  19.414   0.143  0.00  0.00    -0.014 C 
BRANCH  18  19
ATOM     19  N   UNL     1     -36.847  18.076   0.640  0.00  0.00    +0.385 N 
ATOM     20  H   UNL     1     -37.102  17.474  -0.143  0.00  0.00    -0.089 HD
ATOM     21  H   UNL     1     -37.631  18.137   1.291  0.00  0.00    -0.089 HD
ATOM     22  H   UNL     1     -36.038  17.682   1.121  0.00  0.00    -0.089 HD
ENDBRANCH  18  19
BRANCH  18  23
ATOM     23  C   UNL     1     -35.126  19.437  -0.503  0.00  0.00    +0.139 C 
BRANCH  23  24
ATOM     24  S   UNL     1     -33.918  18.426   0.293  0.00  0.00    +0.021 S 
ATOM     25  O   UNL     1     -32.631  18.895  -0.593  0.00  0.00    -0.070 OA
ATOM     26  O   UNL     1     -34.203  17.033   0.002  0.00  0.00    -0.070 OA
ATOM     27  O   UNL     1     -33.740  18.896   1.656  0.00  0.00    -0.070 OA
ENDBRANCH  23  24
ENDBRANCH  18  23
ENDBRANCH  15  18
ENDBRANCH   1  15
TORSDOF 17
ENDMDL
MODEL 6
REMARK VINA RESULT:      -4.4      1.686      2.786
REMARK  Name = 195905
REMARK  17 active torsions:
REMARK  status: ('A' for Active; 'I' for Inactive)
REMARK    1  A    between atoms: C_1  and  C_2
REMARK    2  A    between atoms: C_1  and  C_15
REMARK    3  A    between atoms: C_2  and  C_3
REMARK    4  A    between atoms: C_3  and  C_4
REMARK    5  A    between atoms: C_4  and  C_5
REMARK    6  A    between atoms: C_5  and  C_6
REMARK    7  A    between atoms: C_6  and  C_7
REMARK    8  A    between atoms: C_7  and  C_8
REMARK    9  A    between atoms: C_8  and  C_9
REMARK   10  A    between atoms: C_9  and  C_10
REMARK   11  A    between atoms: C_10  and  C_11
REMARK   12  A    between atoms: C_11  and  C_12
REMARK   13  A    between atoms: C_15  and  O_16
REMARK   14  A    between atoms: C_15  and  C_18
REMARK   15  A    between atoms: C_18  and  N_19
REMARK   16  A    between atoms: C_18  and  C_23
REMARK   17  A    between atoms: C_23  and  S_24
REMARK                            x       y       z     vdW  Elec       q    Type
REMARK                         _______ _______ _______ _____ _____    ______ ____
ROOT
ATOM      1  C   UNL     1     -35.861  21.891   2.085  0.00  0.00    +0.027 C 
ENDROOT
BRANCH   1   2
ATOM      2  C   UNL     1     -36.333  22.463   3.428  0.00  0.00    +0.002 C 
BRANCH   2   3
ATOM      3  C   UNL     1     -35.333  22.155   4.545  0.00  0.00    +0.000 C 
BRANCH   3   4
ATOM      4  C   UNL     1     -34.967  23.420   5.323  0.00  0.00    +0.000 C 
BRANCH   4   5
ATOM      5  C   UNL     1     -36.053  24.499   5.282  0.00  0.00    +0.000 C 
BRANCH   5   6
ATOM      6  C   UNL     1     -35.591  25.927   5.586  0.00  0.00    +0.000 C 
BRANCH   6   7
ATOM      7  C   UNL     1     -34.069  26.079   5.639  0.00  0.00    +0.000 C 
BRANCH   7   8
ATOM      8  C   UNL     1     -33.540  26.791   4.392  0.00  0.00    +0.000 C 
BRANCH   8   9
ATOM      9  C   UNL     1     -34.648  27.357   3.498  0.00  0.00    +0.000 C 
BRANCH   9  10
ATOM     10  C   UNL     1     -34.491  26.978   2.021  0.00  0.00    +0.000 C 
BRANCH  10  11
ATOM     11  C   UNL     1     -34.704  25.474   1.816  0.00  0.00    +0.000 C 
BRANCH  11  12
ATOM     12  C   UNL     1     -33.487  24.707   1.260  0.00  0.00    +0.000 C 
ATOM     13  C   UNL     1     -32.266  25.606   1.076  0.00  0.00    +0.000 C 
ATOM     14  C   UNL     1     -33.808  23.967  -0.039  0.00  0.00    +0.000 C 
ENDBRANCH  11  12
ENDBRANCH  10  11
ENDBRANCH   9  10
ENDBRANCH   8   9
ENDBRANCH   7   8
ENDBRANCH   6   7
ENDBRANCH   5   6
ENDBRANCH   4   5
ENDBRANCH   3   4
ENDBRANCH   2   3
ENDBRANCH   1   2
BRANCH   1  15
ATOM     15  C   UNL     1     -35.528  20.392   2.178  0.00  0.00    +0.092 C 
BRANCH  15  16
ATOM     16  O   UNL     1     -36.733  19.666   2.429  0.00  0.00    -0.387 OA
ATOM     17  H   UNL     1     -36.681  18.796   2.002  0.00  0.00    +0.210 HD
ENDBRANCH  15  16
BRANCH  15  18
ATOM     18  C   UNL     1     -34.863  19.845   0.894  0.00  0.00    -0.014 C 
BRANCH  18  19
ATOM     19  N   UNL     1     -35.156  18.419   0.734  0.00  0.00    +0.385 N 
ATOM     20  H   UNL     1     -34.763  17.900   1.520  0.00  0.00    -0.089 HD
ATOM     21  H   UNL     1     -34.742  18.082  -0.136  0.00  0.00    -0.089 HD
ATOM     22  H   UNL     1     -36.166  18.279   0.707  0.00  0.00    -0.089 HD
ENDBRANCH  18  19
BRANCH  18  23
ATOM     23  C   UNL     1     -33.353  20.112   0.808  0.00  0.00    +0.139 C 
BRANCH  23  24
ATOM     24  S   UNL     1     -32.362  18.689   0.482  0.00  0.00    +0.021 S 
ATOM     25  O   UNL     1     -30.940  19.463   0.279  0.00  0.00    -0.070 OA
ATOM     26  O   UNL     1     -32.766  18.114  -0.788  0.00  0.00    -0.070 OA
ATOM     27  O   UNL     1     -32.286  17.885   1.689  0.00  0.00    -0.070 OA
ENDBRANCH  23  24
ENDBRANCH  18  23
ENDBRANCH  15  18
ENDBRANCH   1  15
TORSDOF 17
ENDMDL
MODEL 7
REMARK VINA RESULT:      -4.3      4.465      6.918
REMARK  Name = 195905
REMARK  17 active torsions:
REMARK  status: ('A' for Active; 'I' for Inactive)
REMARK    1  A    between atoms: C_1  and  C_2
REMARK    2  A    between atoms: C_1  and  C_15
REMARK    3  A    between atoms: C_2  and  C_3
REMARK    4  A    between atoms: C_3  and  C_4
REMARK    5  A    between atoms: C_4  and  C_5
REMARK    6  A    between atoms: C_5  and  C_6
REMARK    7  A    between atoms: C_6  and  C_7
REMARK    8  A    between atoms: C_7  and  C_8
REMARK    9  A    between atoms: C_8  and  C_9
REMARK   10  A    between atoms: C_9  and  C_10
REMARK   11  A    between atoms: C_10  and  C_11
REMARK   12  A    between atoms: C_11  and  C_12
REMARK   13  A    between atoms: C_15  and  O_16
REMARK   14  A    between atoms: C_15  and  C_18
REMARK   15  A    between atoms: C_18  and  N_19
REMARK   16  A    between atoms: C_18  and  C_23
REMARK   17  A    between atoms: C_23  and  S_24
REMARK                            x       y       z     vdW  Elec       q    Type
REMARK                         _______ _______ _______ _____ _____    ______ ____
ROOT
ATOM      1  C   UNL     1     -34.348  25.948   5.390  0.00  0.00    +0.027 C 
ENDROOT
BRANCH   1   2
ATOM      2  C   UNL     1     -33.935  26.135   3.926  0.00  0.00    +0.002 C 
BRANCH   2   3
ATOM      3  C   UNL     1     -33.977  27.611   3.521  0.00  0.00    +0.000 C 
BRANCH   3   4
ATOM      4  C   UNL     1     -34.951  27.839   2.363  0.00  0.00    +0.000 C 
BRANCH   4   5
ATOM      5  C   UNL     1     -35.370  29.303   2.197  0.00  0.00    +0.000 C 
BRANCH   5   6
ATOM      6  C   UNL     1     -34.812  30.282   3.233  0.00  0.00    +0.000 C 
BRANCH   6   7
ATOM      7  C   UNL     1     -34.097  31.485   2.614  0.00  0.00    +0.000 C 
BRANCH   7   8
ATOM      8  C   UNL     1     -32.683  31.113   2.157  0.00  0.00    +0.000 C 
BRANCH   8   9
ATOM      9  C   UNL     1     -31.818  30.523   3.274  0.00  0.00    +0.000 C 
BRANCH   9  10
ATOM     10  C   UNL     1     -31.548  31.505   4.419  0.00  0.00    +0.000 C 
BRANCH  10  11
ATOM     11  C   UNL     1     -31.712  30.818   5.779  0.00  0.00    +0.000 C 
BRANCH  11  12
ATOM     12  C   UNL     1     -31.050  29.432   5.901  0.00  0.00    +0.000 C 
ATOM     13  C   UNL     1     -31.960  28.408   6.578  0.00  0.00    +0.000 C 
ATOM     14  C   UNL     1     -29.695  29.492   6.608  0.00  0.00    +0.000 C 
ENDBRANCH  11  12
ENDBRANCH  10  11
ENDBRANCH   9  10
ENDBRANCH   8   9
ENDBRANCH   7   8
ENDBRANCH   6   7
ENDBRANCH   5   6
ENDBRANCH   4   5
ENDBRANCH   3   4
ENDBRANCH   2   3
ENDBRANCH   1   2
BRANCH   1  15
ATOM     15  C   UNL     1     -35.825  25.538   5.529  0.00  0.00    +0.092 C 
BRANCH  15  16
ATOM     16  O   UNL     1     -36.636  26.714   5.498  0.00  0.00    -0.387 OA
ATOM     17  H   UNL     1     -36.127  27.466   5.840  0.00  0.00    +0.210 HD
ENDBRANCH  15  16
BRANCH  15  18
ATOM     18  C   UNL     1     -36.286  24.573   4.412  0.00  0.00    -0.014 C 
BRANCH  18  19
ATOM     19  N   UNL     1     -37.723  24.718   4.173  0.00  0.00    +0.385 N 
ATOM     20  H   UNL     1     -37.918  25.655   3.821  0.00  0.00    -0.089 HD
ATOM     21  H   UNL     1     -38.230  24.571   5.047  0.00  0.00    -0.089 HD
ATOM     22  H   UNL     1     -38.026  24.028   3.485  0.00  0.00    -0.089 HD
ENDBRANCH  18  19
BRANCH  18  23
ATOM     23  C   UNL     1     -35.912  23.104   4.660  0.00  0.00    +0.139 C 
BRANCH  23  24
ATOM     24  S   UNL     1     -35.955  22.072   3.230  0.00  0.00    +0.021 S 
ATOM     25  O   UNL     1     -34.892  22.918   2.326  0.00  0.00    -0.070 OA
ATOM     26  O   UNL     1     -37.267  22.167   2.618  0.00  0.00    -0.070 OA
ATOM     27  O   UNL     1     -35.364  20.788   3.562  0.00  0.00    -0.070 OA
ENDBRANCH  23  24
ENDBRANCH  18  23
ENDBRANCH  15  18
ENDBRANCH   1  15
TORSDOF 17
ENDMDL
MODEL 8
REMARK VINA RESULT:      -4.2      5.148      7.488
REMARK  Name = 195905
REMARK  17 active torsions:
REMARK  status: ('A' for Active; 'I' for Inactive)
REMARK    1  A    between atoms: C_1  and  C_2
REMARK    2  A    between atoms: C_1  and  C_15
REMARK    3  A    between atoms: C_2  and  C_3
REMARK    4  A    between atoms: C_3  and  C_4
REMARK    5  A    between atoms: C_4  and  C_5
REMARK    6  A    between atoms: C_5  and  C_6
REMARK    7  A    between atoms: C_6  and  C_7
REMARK    8  A    between atoms: C_7  and  C_8
REMARK    9  A    between atoms: C_8  and  C_9
REMARK   10  A    between atoms: C_9  and  C_10
REMARK   11  A    between atoms: C_10  and  C_11
REMARK   12  A    between atoms: C_11  and  C_12
REMARK   13  A    between atoms: C_15  and  O_16
REMARK   14  A    between atoms: C_15  and  C_18
REMARK   15  A    between atoms: C_18  and  N_19
REMARK   16  A    between atoms: C_18  and  C_23
REMARK   17  A    between atoms: C_23  and  S_24
REMARK                            x       y       z     vdW  Elec       q    Type
REMARK                         _______ _______ _______ _____ _____    ______ ____
ROOT
ATOM      1  C   UNL     1     -34.747  24.637   4.620  0.00  0.00    +0.027 C 
ENDROOT
BRANCH   1   2
ATOM      2  C   UNL     1     -35.477  23.745   5.631  0.00  0.00    +0.002 C 
BRANCH   2   3
ATOM      3  C   UNL     1     -35.410  22.271   5.221  0.00  0.00    +0.000 C 
BRANCH   3   4
ATOM      4  C   UNL     1     -35.646  22.104   3.719  0.00  0.00    +0.000 C 
BRANCH   4   5
ATOM      5  C   UNL     1     -35.289  20.709   3.196  0.00  0.00    +0.000 C 
BRANCH   5   6
ATOM      6  C   UNL     1     -35.873  20.335   1.830  0.00  0.00    +0.000 C 
BRANCH   6   7
ATOM      7  C   UNL     1     -36.445  21.530   1.063  0.00  0.00    +0.000 C 
BRANCH   7   8
ATOM      8  C   UNL     1     -35.674  21.771  -0.239  0.00  0.00    +0.000 C 
BRANCH   8   9
ATOM      9  C   UNL     1     -34.235  22.245  -0.016  0.00  0.00    +0.000 C 
BRANCH   9  10
ATOM     10  C   UNL     1     -33.191  21.370  -0.715  0.00  0.00    +0.000 C 
BRANCH  10  11
ATOM     11  C   UNL     1     -32.446  20.491   0.296  0.00  0.00    +0.000 C 
BRANCH  11  12
ATOM     12  C   UNL     1     -32.628  18.972   0.108  0.00  0.00    +0.000 C 
ATOM     13  C   UNL     1     -33.819  18.634  -0.788  0.00  0.00    +0.000 C 
ATOM     14  C   UNL     1     -32.732  18.228   1.440  0.00  0.00    +0.000 C 
ENDBRANCH  11  12
ENDBRANCH  10  11
ENDBRANCH   9  10
ENDBRANCH   8   9
ENDBRANCH   7   8
ENDBRANCH   6   7
ENDBRANCH   5   6
ENDBRANCH   4   5
ENDBRANCH   3   4
ENDBRANCH   2   3
ENDBRANCH   1   2
BRANCH   1  15
ATOM     15  C   UNL     1     -35.580  25.870   4.226  0.00  0.00    +0.092 C 
BRANCH  15  16
ATOM     16  O   UNL     1     -36.694  25.977   5.113  0.00  0.00    -0.387 OA
ATOM     17  H   UNL     1     -37.466  26.302   4.623  0.00  0.00    +0.210 HD
ENDBRANCH  15  16
BRANCH  15  18
ATOM     18  C   UNL     1     -34.765  27.182   4.273  0.00  0.00    -0.014 C 
BRANCH  18  19
ATOM     19  N   UNL     1     -35.282  28.140   3.293  0.00  0.00    +0.385 N 
ATOM     20  H   UNL     1     -34.545  28.797   3.037  0.00  0.00    -0.089 HD
ATOM     21  H   UNL     1     -36.067  28.651   3.699  0.00  0.00    -0.089 HD
ATOM     22  H   UNL     1     -35.596  27.641   2.461  0.00  0.00    -0.089 HD
ENDBRANCH  18  19
BRANCH  18  23
ATOM     23  C   UNL     1     -33.250  26.986   4.106  0.00  0.00    +0.139 C 
BRANCH  23  24
ATOM     24  S   UNL     1     -32.249  28.197   4.908  0.00  0.00    +0.021 S 
ATOM     25  O   UNL     1     -32.605  27.785   6.445  0.00  0.00    -0.070 OA
ATOM     26  O   UNL     1     -32.797  29.515   4.639  0.00  0.00    -0.070 OA
ATOM     27  O   UNL     1     -30.852  27.891   4.655  0.00  0.00    -0.070 OA
ENDBRANCH  23  24
ENDBRANCH  18  23
ENDBRANCH  15  18
ENDBRANCH   1  15
TORSDOF 17
ENDMDL
MODEL 9
REMARK VINA RESULT:      -4.2      3.836      5.898
REMARK  Name = 195905
REMARK  17 active torsions:
REMARK  status: ('A' for Active; 'I' for Inactive)
REMARK    1  A    between atoms: C_1  and  C_2
REMARK    2  A    between atoms: C_1  and  C_15
REMARK    3  A    between atoms: C_2  and  C_3
REMARK    4  A    between atoms: C_3  and  C_4
REMARK    5  A    between atoms: C_4  and  C_5
REMARK    6  A    between atoms: C_5  and  C_6
REMARK    7  A    between atoms: C_6  and  C_7
REMARK    8  A    between atoms: C_7  and  C_8
REMARK    9  A    between atoms: C_8  and  C_9
REMARK   10  A    between atoms: C_9  and  C_10
REMARK   11  A    between atoms: C_10  and  C_11
REMARK   12  A    between atoms: C_11  and  C_12
REMARK   13  A    between atoms: C_15  and  O_16
REMARK   14  A    between atoms: C_15  and  C_18
REMARK   15  A    between atoms: C_18  and  N_19
REMARK   16  A    between atoms: C_18  and  C_23
REMARK   17  A    between atoms: C_23  and  S_24
REMARK                            x       y       z     vdW  Elec       q    Type
REMARK                         _______ _______ _______ _____ _____    ______ ____
ROOT
ATOM      1  C   UNL     1     -35.192  21.733   3.142  0.00  0.00    +0.027 C 
ENDROOT
BRANCH   1   2
ATOM      2  C   UNL     1     -35.574  21.980   4.606  0.00  0.00    +0.002 C 
BRANCH   2   3
ATOM      3  C   UNL     1     -34.882  23.229   5.158  0.00  0.00    +0.000 C 
BRANCH   3   4
ATOM      4  C   UNL     1     -35.881  24.370   5.361  0.00  0.00    +0.000 C 
BRANCH   4   5
ATOM      5  C   UNL     1     -35.230  25.757   5.381  0.00  0.00    +0.000 C 
BRANCH   5   6
ATOM      6  C   UNL     1     -34.980  26.399   4.014  0.00  0.00    +0.000 C 
BRANCH   6   7
ATOM      7  C   UNL     1     -33.590  26.103   3.444  0.00  0.00    +0.000 C 
BRANCH   7   8
ATOM      8  C   UNL     1     -33.083  27.269   2.591  0.00  0.00    +0.000 C 
BRANCH   8   9
ATOM      9  C   UNL     1     -33.453  28.644   3.156  0.00  0.00    +0.000 C 
BRANCH   9  10
ATOM     10  C   UNL     1     -32.238  29.486   3.557  0.00  0.00    +0.000 C 
BRANCH  10  11
ATOM     11  C   UNL     1     -31.255  28.664   4.399  0.00  0.00    +0.000 C 
BRANCH  11  12
ATOM     12  C   UNL     1     -31.369  28.859   5.923  0.00  0.00    +0.000 C 
ATOM     13  C   UNL     1     -32.240  27.791   6.585  0.00  0.00    +0.000 C 
ATOM     14  C   UNL     1     -31.863  30.258   6.297  0.00  0.00    +0.000 C 
ENDBRANCH  11  12
ENDBRANCH  10  11
ENDBRANCH   9  10
ENDBRANCH   8   9
ENDBRANCH   7   8
ENDBRANCH   6   7
ENDBRANCH   5   6
ENDBRANCH   4   5
ENDBRANCH   3   4
ENDBRANCH   2   3
ENDBRANCH   1   2
BRANCH   1  15
ATOM     15  C   UNL     1     -36.391  21.261   2.301  0.00  0.00    +0.092 C 
BRANCH  15  16
ATOM     16  O   UNL     1     -36.703  19.913   2.657  0.00  0.00    -0.387 OA
ATOM     17  H   UNL     1     -37.054  19.448   1.881  0.00  0.00    +0.210 HD
ENDBRANCH  15  16
BRANCH  15  18
ATOM     18  C   UNL     1     -37.645  22.143   2.498  0.00  0.00    -0.014 C 
BRANCH  18  19
ATOM     19  N   UNL     1     -38.861  21.366   2.250  0.00  0.00    +0.385 N 
ATOM     20  H   UNL     1     -38.842  20.998   1.299  0.00  0.00    -0.089 HD
ATOM     21  H   UNL     1     -39.678  21.966   2.366  0.00  0.00    -0.089 HD
ATOM     22  H   UNL     1     -38.912  20.592   2.913  0.00  0.00    -0.089 HD
ENDBRANCH  18  19
BRANCH  18  23
ATOM     23  C   UNL     1     -37.638  23.437   1.669  0.00  0.00    +0.139 C 
BRANCH  23  24
ATOM     24  S   UNL     1     -38.925  24.578   2.059  0.00  0.00    +0.021 S 
ATOM     25  O   UNL     1     -38.935  24.346   3.674  0.00  0.00    -0.070 OA
ATOM     26  O   UNL     1     -40.175  24.086   1.509  0.00  0.00    -0.070 OA
ATOM     27  O   UNL     1     -38.455  25.925   1.786  0.00  0.00    -0.070 OA
ENDBRANCH  23  24
ENDBRANCH  18  23
ENDBRANCH  15  18
ENDBRANCH   1  15
TORSDOF 17
ENDMDL
