MODEL 1
REMARK VINA RESULT:      -5.5      0.000      0.000
REMARK  Name = 57367819
REMARK  8 active torsions:
REMARK  status: ('A' for Active; 'I' for Inactive)
REMARK    1  A    between atoms: C_1  and  N_13
REMARK    2  A    between atoms: C_4  and  P_7
REMARK    3  A    between atoms: P_7  and  O_9
REMARK    4  A    between atoms: P_7  and  O_11
REMARK    5  A    between atoms: N_13  and  CA_15
REMARK    6  A    between atoms: CA_15  and  C_16
REMARK    7  A    between atoms: CA_15  and  C_20
REMARK    8  A    between atoms: C_20  and  O_21
REMARK                            x       y       z     vdW  Elec       q    Type
REMARK                         _______ _______ _______ _____ _____    ______ ____
ROOT
ATOM      1  C   UNL     1     -36.579  23.334   2.765  0.00  0.00    +0.045 C 
ATOM      2  C   UNL     1     -37.957  23.473   2.922  0.00  0.00    +0.015 C 
ATOM      3  C   UNL     1     -36.071  22.507   1.763  0.00  0.00    +0.015 C 
ATOM      4  C   UNL     1     -38.321  21.954   1.079  0.00  0.00    +0.080 C 
ATOM      5  C   UNL     1     -38.828  22.782   2.080  0.00  0.00    +0.009 C 
ATOM      6  C   UNL     1     -36.942  21.816   0.920  0.00  0.00    +0.009 C 
ENDROOT
BRANCH   4   7
ATOM      7  P   UNL     1     -39.423  21.084   0.007  0.00  0.00    +0.359 P 
ATOM      8  O   UNL     1     -39.649  21.643  -1.368  0.00  0.00    -0.253 OA
BRANCH   7   9
ATOM      9  O   UNL     1     -38.875  19.559  -0.016  0.00  0.00    -0.321 OA
ATOM     10  H   UNL     1     -37.924  19.560  -0.213  0.00  0.00    +0.220 HD
ENDBRANCH   7   9
BRANCH   7  11
ATOM     11  O   UNL     1     -40.796  20.925   0.855  0.00  0.00    -0.321 OA
ATOM     12  H   UNL     1     -41.242  20.103   0.596  0.00  0.00    +0.220 HD
ENDBRANCH   7  11
ENDBRANCH   4   7
BRANCH   1  13
ATOM     13  N   UNL     1     -35.715  24.019   3.601  0.00  0.00    -0.325 N 
ATOM     14  H   UNL     1     -34.935  24.465   3.199  0.00  0.00    +0.147 HD
BRANCH  13  15
ATOM     15  CA  UNL     1     -35.894  24.112   5.035  0.00  0.00    +0.169 C 
BRANCH  15  16
ATOM     16  C   UNL     1     -35.004  23.116   5.715  0.00  0.00    +0.029 C 
ATOM     17  C   UNL     1     -35.036  21.682   5.274  0.00  0.00    +0.002 C 
ATOM     18  C   UNL     1     -35.617  22.070   6.602  0.00  0.00    +0.002 C 
ENDBRANCH  15  16
BRANCH  15  20
ATOM     19  OXT UNL     1     -34.533  25.932   5.910  0.00  0.00    -0.248 OA
ATOM     20  C   UNL     1     -35.602  25.534   5.466  0.00  0.00    +0.332 C 
BRANCH  20  21
ATOM     21  O   UNL     1     -36.677  26.350   5.298  0.00  0.00    -0.479 OA
ATOM     22  H   UNL     1     -37.303  26.447   5.989  0.00  0.00    +0.295 HD
ENDBRANCH  20  21
ENDBRANCH  15  20
ENDBRANCH  13  15
ENDBRANCH   1  13
TORSDOF 8
ENDMDL
MODEL 2
REMARK VINA RESULT:      -5.4      1.185      1.854
REMARK  Name = 57367819
REMARK  8 active torsions:
REMARK  status: ('A' for Active; 'I' for Inactive)
REMARK    1  A    between atoms: C_1  and  N_13
REMARK    2  A    between atoms: C_4  and  P_7
REMARK    3  A    between atoms: P_7  and  O_9
REMARK    4  A    between atoms: P_7  and  O_11
REMARK    5  A    between atoms: N_13  and  CA_15
REMARK    6  A    between atoms: CA_15  and  C_16
REMARK    7  A    between atoms: CA_15  and  C_20
REMARK    8  A    between atoms: C_20  and  O_21
REMARK                            x       y       z     vdW  Elec       q    Type
REMARK                         _______ _______ _______ _____ _____    ______ ____
ROOT
ATOM      1  C   UNL     1     -36.006  22.895   2.597  0.00  0.00    +0.045 C 
ATOM      2  C   UNL     1     -35.110  22.249   1.746  0.00  0.00    +0.015 C 
ATOM      3  C   UNL     1     -37.352  22.527   2.603  0.00  0.00    +0.015 C 
ATOM      4  C   UNL     1     -36.905  20.868   0.904  0.00  0.00    +0.080 C 
ATOM      5  C   UNL     1     -35.560  21.236   0.899  0.00  0.00    +0.009 C 
ATOM      6  C   UNL     1     -37.802  21.514   1.756  0.00  0.00    +0.009 C 
ENDROOT
BRANCH   4   7
ATOM      7  P   UNL     1     -37.475  19.582  -0.163  0.00  0.00    +0.359 P 
ATOM      8  O   UNL     1     -36.978  19.577  -1.580  0.00  0.00    -0.253 OA
BRANCH   7   9
ATOM      9  O   UNL     1     -37.146  18.203   0.623  0.00  0.00    -0.321 OA
ATOM     10  H   UNL     1     -37.973  17.807   0.941  0.00  0.00    +0.220 HD
ENDBRANCH   7   9
BRANCH   7  11
ATOM     11  O   UNL     1     -39.092  19.637  -0.065  0.00  0.00    -0.321 OA
ATOM     12  H   UNL     1     -39.475  19.469  -0.940  0.00  0.00    +0.220 HD
ENDBRANCH   7  11
ENDBRANCH   4   7
BRANCH   1  13
ATOM     13  N   UNL     1     -35.560  23.900   3.436  0.00  0.00    -0.325 N 
ATOM     14  H   UNL     1     -34.992  24.608   3.054  0.00  0.00    +0.147 HD
BRANCH  13  15
ATOM     15  CA  UNL     1     -35.882  23.967   4.847  0.00  0.00    +0.169 C 
BRANCH  15  16
ATOM     16  C   UNL     1     -34.954  23.074   5.614  0.00  0.00    +0.029 C 
ATOM     17  C   UNL     1     -35.017  21.590   5.396  0.00  0.00    +0.002 C 
ATOM     18  C   UNL     1     -35.513  22.180   6.683  0.00  0.00    +0.002 C 
ENDBRANCH  15  16
BRANCH  15  20
ATOM     19  OXT UNL     1     -34.845  25.908   5.889  0.00  0.00    -0.248 OA
ATOM     20  C   UNL     1     -35.792  25.411   5.294  0.00  0.00    +0.332 C 
BRANCH  20  21
ATOM     21  O   UNL     1     -36.900  26.122   4.953  0.00  0.00    -0.479 OA
ATOM     22  H   UNL     1     -37.526  25.756   4.359  0.00  0.00    +0.295 HD
ENDBRANCH  20  21
ENDBRANCH  15  20
ENDBRANCH  13  15
ENDBRANCH   1  13
TORSDOF 8
ENDMDL
MODEL 3
REMARK VINA RESULT:      -5.4      0.890      1.566
REMARK  Name = 57367819
REMARK  8 active torsions:
REMARK  status: ('A' for Active; 'I' for Inactive)
REMARK    1  A    between atoms: C_1  and  N_13
REMARK    2  A    between atoms: C_4  and  P_7
REMARK    3  A    between atoms: P_7  and  O_9
REMARK    4  A    between atoms: P_7  and  O_11
REMARK    5  A    between atoms: N_13  and  CA_15
REMARK    6  A    between atoms: CA_15  and  C_16
REMARK    7  A    between atoms: CA_15  and  C_20
REMARK    8  A    between atoms: C_20  and  O_21
REMARK                            x       y       z     vdW  Elec       q    Type
REMARK                         _______ _______ _______ _____ _____    ______ ____
ROOT
ATOM      1  C   UNL     1     -36.918  23.922   2.781  0.00  0.00    +0.045 C 
ATOM      2  C   UNL     1     -36.615  23.082   1.710  0.00  0.00    +0.015 C 
ATOM      3  C   UNL     1     -38.245  24.264   3.046  0.00  0.00    +0.015 C 
ATOM      4  C   UNL     1     -38.964  22.926   1.168  0.00  0.00    +0.080 C 
ATOM      5  C   UNL     1     -37.638  22.584   0.903  0.00  0.00    +0.009 C 
ATOM      6  C   UNL     1     -39.268  23.766   2.239  0.00  0.00    +0.009 C 
ENDROOT
BRANCH   4   7
ATOM      7  P   UNL     1     -40.260  22.291   0.150  0.00  0.00    +0.359 P 
ATOM      8  O   UNL     1     -39.974  22.103  -1.312  0.00  0.00    -0.253 OA
BRANCH   7   9
ATOM      9  O   UNL     1     -40.739  20.924   0.878  0.00  0.00    -0.321 OA
ATOM     10  H   UNL     1     -40.461  20.939   1.808  0.00  0.00    +0.220 HD
ENDBRANCH   7   9
BRANCH   7  11
ATOM     11  O   UNL     1     -41.526  23.267   0.422  0.00  0.00    -0.321 OA
ATOM     12  H   UNL     1     -42.296  22.942  -0.071  0.00  0.00    +0.220 HD
ENDBRANCH   7  11
ENDBRANCH   4   7
BRANCH   1  13
ATOM     13  N   UNL     1     -35.904  24.417   3.581  0.00  0.00    -0.325 N 
ATOM     14  H   UNL     1     -35.110  24.799   3.143  0.00  0.00    +0.147 HD
BRANCH  13  15
ATOM     15  CA  UNL     1     -35.946  24.401   5.029  0.00  0.00    +0.169 C 
BRANCH  15  16
ATOM     16  C   UNL     1     -34.998  23.361   5.545  0.00  0.00    +0.029 C 
ATOM     17  C   UNL     1     -35.140  21.942   5.076  0.00  0.00    +0.002 C 
ATOM     18  C   UNL     1     -35.508  22.306   6.485  0.00  0.00    +0.002 C 
ENDBRANCH  15  16
BRANCH  15  20
ATOM     19  OXT UNL     1     -34.531  26.128   6.001  0.00  0.00    -0.248 OA
ATOM     20  C   UNL     1     -35.611  25.788   5.537  0.00  0.00    +0.332 C 
BRANCH  20  21
ATOM     21  O   UNL     1     -36.661  26.644   5.415  0.00  0.00    -0.479 OA
ATOM     22  H   UNL     1     -37.522  26.309   5.257  0.00  0.00    +0.295 HD
ENDBRANCH  20  21
ENDBRANCH  15  20
ENDBRANCH  13  15
ENDBRANCH   1  13
TORSDOF 8
ENDMDL
MODEL 4
REMARK VINA RESULT:      -5.3      2.991      6.577
REMARK  Name = 57367819
REMARK  8 active torsions:
REMARK  status: ('A' for Active; 'I' for Inactive)
REMARK    1  A    between atoms: C_1  and  N_13
REMARK    2  A    between atoms: C_4  and  P_7
REMARK    3  A    between atoms: P_7  and  O_9
REMARK    4  A    between atoms: P_7  and  O_11
REMARK    5  A    between atoms: N_13  and  CA_15
REMARK    6  A    between atoms: CA_15  and  C_16
REMARK    7  A    between atoms: CA_15  and  C_20
REMARK    8  A    between atoms: C_20  and  O_21
REMARK                            x       y       z     vdW  Elec       q    Type
REMARK                         _______ _______ _______ _____ _____    ______ ____
ROOT
ATOM      1  C   UNL     1     -35.600  22.309   3.411  0.00  0.00    +0.045 C 
ATOM      2  C   UNL     1     -35.569  22.556   4.783  0.00  0.00    +0.015 C 
ATOM      3  C   UNL     1     -35.163  23.287   2.517  0.00  0.00    +0.015 C 
ATOM      4  C   UNL     1     -34.668  24.758   4.368  0.00  0.00    +0.080 C 
ATOM      5  C   UNL     1     -35.104  23.780   5.261  0.00  0.00    +0.009 C 
ATOM      6  C   UNL     1     -34.697  24.512   2.995  0.00  0.00    +0.009 C 
ENDROOT
BRANCH   4   7
ATOM      7  P   UNL     1     -34.073  26.307   4.973  0.00  0.00    +0.359 P 
ATOM      8  O   UNL     1     -33.845  26.440   6.451  0.00  0.00    -0.253 OA
BRANCH   7   9
ATOM      9  O   UNL     1     -32.742  26.619   4.101  0.00  0.00    -0.321 OA
ATOM     10  H   UNL     1     -31.973  26.667   4.691  0.00  0.00    +0.220 HD
ENDBRANCH   7   9
BRANCH   7  11
ATOM     11  O   UNL     1     -35.109  27.412   4.395  0.00  0.00    -0.321 OA
ATOM     12  H   UNL     1     -36.012  27.057   4.428  0.00  0.00    +0.220 HD
ENDBRANCH   7  11
ENDBRANCH   4   7
BRANCH   1  13
ATOM     13  N   UNL     1     -36.062  21.095   2.936  0.00  0.00    -0.325 N 
ATOM     14  H   UNL     1     -36.295  20.398   3.590  0.00  0.00    +0.147 HD
BRANCH  13  15
ATOM     15  CA  UNL     1     -36.219  20.793   1.528  0.00  0.00    +0.169 C 
BRANCH  15  16
ATOM     16  C   UNL     1     -35.405  19.582   1.183  0.00  0.00    +0.029 C 
ATOM     17  C   UNL     1     -33.966  19.520   1.606  0.00  0.00    +0.002 C 
ATOM     18  C   UNL     1     -34.314  19.699   0.158  0.00  0.00    +0.002 C 
ENDBRANCH  15  16
BRANCH  15  20
ATOM     19  OXT UNL     1     -38.153  20.166   0.190  0.00  0.00    -0.248 OA
ATOM     20  C   UNL     1     -37.692  20.599   1.238  0.00  0.00    +0.332 C 
BRANCH  20  21
ATOM     21  O   UNL     1     -38.473  20.957   2.291  0.00  0.00    -0.479 OA
ATOM     22  H   UNL     1     -38.587  20.368   3.012  0.00  0.00    +0.295 HD
ENDBRANCH  20  21
ENDBRANCH  15  20
ENDBRANCH  13  15
ENDBRANCH   1  13
TORSDOF 8
ENDMDL
MODEL 5
REMARK VINA RESULT:      -5.3      3.942      7.238
REMARK  Name = 57367819
REMARK  8 active torsions:
REMARK  status: ('A' for Active; 'I' for Inactive)
REMARK    1  A    between atoms: C_1  and  N_13
REMARK    2  A    between atoms: C_4  and  P_7
REMARK    3  A    between atoms: P_7  and  O_9
REMARK    4  A    between atoms: P_7  and  O_11
REMARK    5  A    between atoms: N_13  and  CA_15
REMARK    6  A    between atoms: CA_15  and  C_16
REMARK    7  A    between atoms: CA_15  and  C_20
REMARK    8  A    between atoms: C_20  and  O_21
REMARK                            x       y       z     vdW  Elec       q    Type
REMARK                         _______ _______ _______ _____ _____    ______ ____
ROOT
ATOM      1  C   UNL     1     -35.630  25.434   4.708  0.00  0.00    +0.045 C 
ATOM      2  C   UNL     1     -34.968  25.443   5.935  0.00  0.00    +0.015 C 
ATOM      3  C   UNL     1     -35.185  26.253   3.670  0.00  0.00    +0.015 C 
ATOM      4  C   UNL     1     -33.419  27.092   5.088  0.00  0.00    +0.080 C 
ATOM      5  C   UNL     1     -33.863  26.273   6.126  0.00  0.00    +0.009 C 
ATOM      6  C   UNL     1     -34.080  27.083   3.860  0.00  0.00    +0.009 C 
ENDROOT
BRANCH   4   7
ATOM      7  P   UNL     1     -32.016  28.138   5.327  0.00  0.00    +0.359 P 
ATOM      8  O   UNL     1     -32.258  29.614   5.463  0.00  0.00    -0.253 OA
BRANCH   7   9
ATOM      9  O   UNL     1     -31.231  27.510   6.599  0.00  0.00    -0.321 OA
ATOM     10  H   UNL     1     -31.845  27.420   7.345  0.00  0.00    +0.220 HD
ENDBRANCH   7   9
BRANCH   7  11
ATOM     11  O   UNL     1     -31.008  27.776   4.110  0.00  0.00    -0.321 OA
ATOM     12  H   UNL     1     -30.215  28.331   4.170  0.00  0.00    +0.220 HD
ENDBRANCH   7  11
ENDBRANCH   4   7
BRANCH   1  13
ATOM     13  N   UNL     1     -36.726  24.612   4.518  0.00  0.00    -0.325 N 
ATOM     14  H   UNL     1     -37.070  24.109   5.292  0.00  0.00    +0.147 HD
BRANCH  13  15
ATOM     15  CA  UNL     1     -37.396  24.450   3.244  0.00  0.00    +0.169 C 
BRANCH  15  16
ATOM     16  C   UNL     1     -37.400  23.000   2.863  0.00  0.00    +0.029 C 
ATOM     17  C   UNL     1     -36.164  22.180   3.085  0.00  0.00    +0.002 C 
ATOM     18  C   UNL     1     -36.579  22.547   1.691  0.00  0.00    +0.002 C 
ENDBRANCH  15  16
BRANCH  15  20
ATOM     19  OXT UNL     1     -39.818  24.361   3.468  0.00  0.00    -0.248 OA
ATOM     20  C   UNL     1     -38.794  25.021   3.357  0.00  0.00    +0.332 C 
BRANCH  20  21
ATOM     21  O   UNL     1     -38.795  26.380   3.330  0.00  0.00    -0.479 OA
ATOM     22  H   UNL     1     -38.827  26.865   4.132  0.00  0.00    +0.295 HD
ENDBRANCH  20  21
ENDBRANCH  15  20
ENDBRANCH  13  15
ENDBRANCH   1  13
TORSDOF 8
ENDMDL
MODEL 6
REMARK VINA RESULT:      -5.3      2.984      6.574
REMARK  Name = 57367819
REMARK  8 active torsions:
REMARK  status: ('A' for Active; 'I' for Inactive)
REMARK    1  A    between atoms: C_1  and  N_13
REMARK    2  A    between atoms: C_4  and  P_7
REMARK    3  A    between atoms: P_7  and  O_9
REMARK    4  A    between atoms: P_7  and  O_11
REMARK    5  A    between atoms: N_13  and  CA_15
REMARK    6  A    between atoms: CA_15  and  C_16
REMARK    7  A    between atoms: CA_15  and  C_20
REMARK    8  A    between atoms: C_20  and  O_21
REMARK                            x       y       z     vdW  Elec       q    Type
REMARK                         _______ _______ _______ _____ _____    ______ ____
ROOT
ATOM      1  C   UNL     1     -35.371  21.863   3.189  0.00  0.00    +0.045 C 
ATOM      2  C   UNL     1     -35.117  22.974   2.385  0.00  0.00    +0.015 C 
ATOM      3  C   UNL     1     -35.501  22.017   4.570  0.00  0.00    +0.015 C 
ATOM      4  C   UNL     1     -35.119  24.391   4.341  0.00  0.00    +0.080 C 
ATOM      5  C   UNL     1     -34.990  24.237   2.962  0.00  0.00    +0.009 C 
ATOM      6  C   UNL     1     -35.374  23.280   5.146  0.00  0.00    +0.009 C 
ENDROOT
BRANCH   4   7
ATOM      7  P   UNL     1     -34.965  25.992   5.071  0.00  0.00    +0.359 P 
ATOM      8  O   UNL     1     -34.000  26.152   6.210  0.00  0.00    -0.253 OA
BRANCH   7   9
ATOM      9  O   UNL     1     -34.649  26.992   3.835  0.00  0.00    -0.321 OA
ATOM     10  H   UNL     1     -35.023  27.868   4.024  0.00  0.00    +0.220 HD
ENDBRANCH   7   9
BRANCH   7  11
ATOM     11  O   UNL     1     -36.477  26.424   5.464  0.00  0.00    -0.321 OA
ATOM     12  H   UNL     1     -36.718  26.023   6.314  0.00  0.00    +0.220 HD
ENDBRANCH   7  11
ENDBRANCH   4   7
BRANCH   1  13
ATOM     13  N   UNL     1     -35.496  20.609   2.618  0.00  0.00    -0.325 N 
ATOM     14  H   UNL     1     -35.495  19.825   3.213  0.00  0.00    +0.147 HD
BRANCH  13  15
ATOM     15  CA  UNL     1     -35.628  20.388   1.193  0.00  0.00    +0.169 C 
BRANCH  15  16
ATOM     16  C   UNL     1     -34.617  19.374   0.750  0.00  0.00    +0.029 C 
ATOM     17  C   UNL     1     -33.441  19.076   1.633  0.00  0.00    +0.002 C 
ATOM     18  C   UNL     1     -33.243  19.832   0.352  0.00  0.00    +0.002 C 
ENDBRANCH  15  16
BRANCH  15  20
ATOM     19  OXT UNL     1     -38.001  20.706   0.751  0.00  0.00    -0.248 OA
ATOM     20  C   UNL     1     -37.048  19.952   0.901  0.00  0.00    +0.332 C 
BRANCH  20  21
ATOM     21  O   UNL     1     -37.160  18.600   0.813  0.00  0.00    -0.479 OA
ATOM     22  H   UNL     1     -36.390  18.065   0.815  0.00  0.00    +0.295 HD
ENDBRANCH  20  21
ENDBRANCH  15  20
ENDBRANCH  13  15
ENDBRANCH   1  13
TORSDOF 8
ENDMDL
MODEL 7
REMARK VINA RESULT:      -5.3      4.465      8.014
REMARK  Name = 57367819
REMARK  8 active torsions:
REMARK  status: ('A' for Active; 'I' for Inactive)
REMARK    1  A    between atoms: C_1  and  N_13
REMARK    2  A    between atoms: C_4  and  P_7
REMARK    3  A    between atoms: P_7  and  O_9
REMARK    4  A    between atoms: P_7  and  O_11
REMARK    5  A    between atoms: N_13  and  CA_15
REMARK    6  A    between atoms: CA_15  and  C_16
REMARK    7  A    between atoms: CA_15  and  C_20
REMARK    8  A    between atoms: C_20  and  O_21
REMARK                            x       y       z     vdW  Elec       q    Type
REMARK                         _______ _______ _______ _____ _____    ______ ____
ROOT
ATOM      1  C   UNL     1     -34.249  25.996   4.851  0.00  0.00    +0.045 C 
ATOM      2  C   UNL     1     -33.931  26.072   6.206  0.00  0.00    +0.015 C 
ATOM      3  C   UNL     1     -33.593  26.816   3.933  0.00  0.00    +0.015 C 
ATOM      4  C   UNL     1     -32.301  27.790   5.727  0.00  0.00    +0.080 C 
ATOM      5  C   UNL     1     -32.957  26.970   6.644  0.00  0.00    +0.009 C 
ATOM      6  C   UNL     1     -32.619  27.714   4.370  0.00  0.00    +0.009 C 
ENDROOT
BRANCH   4   7
ATOM      7  P   UNL     1     -31.063  28.923   6.280  0.00  0.00    +0.359 P 
ATOM      8  O   UNL     1     -30.676  30.042   5.357  0.00  0.00    -0.253 OA
BRANCH   7   9
ATOM      9  O   UNL     1     -31.585  29.448   7.722  0.00  0.00    -0.321 OA
ATOM     10  H   UNL     1     -31.152  28.941   8.427  0.00  0.00    +0.220 HD
ENDBRANCH   7   9
BRANCH   7  11
ATOM     11  O   UNL     1     -29.804  27.995   6.706  0.00  0.00    -0.321 OA
ATOM     12  H   UNL     1     -29.274  28.457   7.376  0.00  0.00    +0.220 HD
ENDBRANCH   7  11
ENDBRANCH   4   7
BRANCH   1  13
ATOM     13  N   UNL     1     -35.215  25.107   4.416  0.00  0.00    -0.325 N 
ATOM     14  H   UNL     1     -36.147  25.421   4.361  0.00  0.00    +0.147 HD
BRANCH  13  15
ATOM     15  CA  UNL     1     -34.932  23.738   4.038  0.00  0.00    +0.169 C 
BRANCH  15  16
ATOM     16  C   UNL     1     -35.721  22.806   4.908  0.00  0.00    +0.029 C 
ATOM     17  C   UNL     1     -35.325  22.630   6.344  0.00  0.00    +0.002 C 
ATOM     18  C   UNL     1     -35.095  21.519   5.363  0.00  0.00    +0.002 C 
ENDBRANCH  15  16
BRANCH  15  20
ATOM     19  OXT UNL     1     -34.860  22.646   1.863  0.00  0.00    -0.248 OA
ATOM     20  C   UNL     1     -35.253  23.566   2.568  0.00  0.00    +0.332 C 
BRANCH  20  21
ATOM     21  O   UNL     1     -36.051  24.561   2.100  0.00  0.00    -0.479 OA
ATOM     22  H   UNL     1     -36.605  25.035   2.690  0.00  0.00    +0.295 HD
ENDBRANCH  20  21
ENDBRANCH  15  20
ENDBRANCH  13  15
ENDBRANCH   1  13
TORSDOF 8
ENDMDL
MODEL 8
REMARK VINA RESULT:      -5.3      3.096      6.642
REMARK  Name = 57367819
REMARK  8 active torsions:
REMARK  status: ('A' for Active; 'I' for Inactive)
REMARK    1  A    between atoms: C_1  and  N_13
REMARK    2  A    between atoms: C_4  and  P_7
REMARK    3  A    between atoms: P_7  and  O_9
REMARK    4  A    between atoms: P_7  and  O_11
REMARK    5  A    between atoms: N_13  and  CA_15
REMARK    6  A    between atoms: CA_15  and  C_16
REMARK    7  A    between atoms: CA_15  and  C_20
REMARK    8  A    between atoms: C_20  and  O_21
REMARK                            x       y       z     vdW  Elec       q    Type
REMARK                         _______ _______ _______ _____ _____    ______ ____
ROOT
ATOM      1  C   UNL     1     -35.930  23.637   3.936  0.00  0.00    +0.045 C 
ATOM      2  C   UNL     1     -35.305  24.266   2.859  0.00  0.00    +0.015 C 
ATOM      3  C   UNL     1     -35.721  24.105   5.233  0.00  0.00    +0.015 C 
ATOM      4  C   UNL     1     -34.263  25.830   4.376  0.00  0.00    +0.080 C 
ATOM      5  C   UNL     1     -34.472  25.362   3.080  0.00  0.00    +0.009 C 
ATOM      6  C   UNL     1     -34.887  25.201   5.454  0.00  0.00    +0.009 C 
ENDROOT
BRANCH   4   7
ATOM      7  P   UNL     1     -33.211  27.222   4.656  0.00  0.00    +0.359 P 
ATOM      8  O   UNL     1     -32.871  27.567   6.077  0.00  0.00    -0.253 OA
BRANCH   7   9
ATOM      9  O   UNL     1     -31.899  26.950   3.743  0.00  0.00    -0.321 OA
ATOM     10  H   UNL     1     -31.100  27.081   4.279  0.00  0.00    +0.220 HD
ENDBRANCH   7   9
BRANCH   7  11
ATOM     11  O   UNL     1     -33.915  28.447   3.862  0.00  0.00    -0.321 OA
ATOM     12  H   UNL     1     -34.300  29.068   4.501  0.00  0.00    +0.220 HD
ENDBRANCH   7  11
ENDBRANCH   4   7
BRANCH   1  13
ATOM     13  N   UNL     1     -36.756  22.549   3.718  0.00  0.00    -0.325 N 
ATOM     14  H   UNL     1     -37.088  22.053   4.500  0.00  0.00    +0.147 HD
BRANCH  13  15
ATOM     15  CA  UNL     1     -37.159  22.101   2.401  0.00  0.00    +0.169 C 
BRANCH  15  16
ATOM     16  C   UNL     1     -36.637  20.716   2.164  0.00  0.00    +0.029 C 
ATOM     17  C   UNL     1     -35.186  20.426   2.414  0.00  0.00    +0.002 C 
ATOM     18  C   UNL     1     -35.709  20.469   1.009  0.00  0.00    +0.002 C 
ENDBRANCH  15  16
BRANCH  15  20
ATOM     19  OXT UNL     1     -39.326  23.204   2.284  0.00  0.00    -0.248 OA
ATOM     20  C   UNL     1     -38.669  22.172   2.307  0.00  0.00    +0.332 C 
BRANCH  20  21
ATOM     21  O   UNL     1     -39.236  20.938   2.243  0.00  0.00    -0.479 OA
ATOM     22  H   UNL     1     -39.100  20.324   2.937  0.00  0.00    +0.295 HD
ENDBRANCH  20  21
ENDBRANCH  15  20
ENDBRANCH  13  15
ENDBRANCH   1  13
TORSDOF 8
ENDMDL
MODEL 9
REMARK VINA RESULT:      -5.2      4.292      6.020
REMARK  Name = 57367819
REMARK  8 active torsions:
REMARK  status: ('A' for Active; 'I' for Inactive)
REMARK    1  A    between atoms: C_1  and  N_13
REMARK    2  A    between atoms: C_4  and  P_7
REMARK    3  A    between atoms: P_7  and  O_9
REMARK    4  A    between atoms: P_7  and  O_11
REMARK    5  A    between atoms: N_13  and  CA_15
REMARK    6  A    between atoms: CA_15  and  C_16
REMARK    7  A    between atoms: CA_15  and  C_20
REMARK    8  A    between atoms: C_20  and  O_21
REMARK                            x       y       z     vdW  Elec       q    Type
REMARK                         _______ _______ _______ _____ _____    ______ ____
ROOT
ATOM      1  C   UNL     1     -33.899  26.635   4.611  0.00  0.00    +0.045 C 
ATOM      2  C   UNL     1     -34.001  26.057   3.346  0.00  0.00    +0.015 C 
ATOM      3  C   UNL     1     -34.386  25.958   5.729  0.00  0.00    +0.015 C 
ATOM      4  C   UNL     1     -35.079  24.125   4.316  0.00  0.00    +0.080 C 
ATOM      5  C   UNL     1     -34.591  24.802   3.199  0.00  0.00    +0.009 C 
ATOM      6  C   UNL     1     -34.976  24.702   5.582  0.00  0.00    +0.009 C 
ENDROOT
BRANCH   4   7
ATOM      7  P   UNL     1     -35.821  22.533   4.131  0.00  0.00    +0.359 P 
ATOM      8  O   UNL     1     -35.133  21.539   3.240  0.00  0.00    -0.253 OA
BRANCH   7   9
ATOM      9  O   UNL     1     -36.030  21.985   5.642  0.00  0.00    -0.321 OA
ATOM     10  H   UNL     1     -35.477  22.500   6.251  0.00  0.00    +0.220 HD
ENDBRANCH   7   9
BRANCH   7  11
ATOM     11  O   UNL     1     -37.349  22.830   3.677  0.00  0.00    -0.321 OA
ATOM     12  H   UNL     1     -37.957  22.317   4.232  0.00  0.00    +0.220 HD
ENDBRANCH   7  11
ENDBRANCH   4   7
BRANCH   1  13
ATOM     13  N   UNL     1     -33.314  27.880   4.758  0.00  0.00    -0.325 N 
ATOM     14  H   UNL     1     -33.903  28.663   4.850  0.00  0.00    +0.147 HD
BRANCH  13  15
ATOM     15  CA  UNL     1     -31.882  28.095   4.781  0.00  0.00    +0.169 C 
BRANCH  15  16
ATOM     16  C   UNL     1     -31.525  29.187   3.819  0.00  0.00    +0.029 C 
ATOM     17  C   UNL     1     -32.163  29.207   2.461  0.00  0.00    +0.002 C 
ATOM     18  C   UNL     1     -30.710  28.856   2.601  0.00  0.00    +0.002 C 
ENDBRANCH  15  16
BRANCH  15  20
ATOM     19  OXT UNL     1     -31.861  29.374   6.852  0.00  0.00    -0.248 OA
ATOM     20  C   UNL     1     -31.465  28.417   6.200  0.00  0.00    +0.332 C 
BRANCH  20  21
ATOM     21  O   UNL     1     -30.586  27.505   6.695  0.00  0.00    -0.479 OA
ATOM     22  H   UNL     1     -29.666  27.684   6.677  0.00  0.00    +0.295 HD
ENDBRANCH  20  21
ENDBRANCH  15  20
ENDBRANCH  13  15
ENDBRANCH   1  13
TORSDOF 8
ENDMDL
