MODEL 1
REMARK VINA RESULT:      -6.6      0.000      0.000
REMARK  Name = 5702054
REMARK  6 active torsions:
REMARK  status: ('A' for Active; 'I' for Inactive)
REMARK    1  A    between atoms: C_7  and  O_22
REMARK    2  A    between atoms: C_7  and  C_27
REMARK    3  A    between atoms: C_10  and  O_24
REMARK    4  A    between atoms: C_27  and  C_28
REMARK    5  A    between atoms: C_28  and  O_29
REMARK    6  A    between atoms: O_29  and  C_31
REMARK                            x       y       z     vdW  Elec       q    Type
REMARK                         _______ _______ _______ _____ _____    ______ ____
ROOT
ATOM      1  F   UNL     1     -34.709  19.607   2.040  0.00  0.00    -0.237 F 
ATOM      2  O   UNL     1     -31.650  15.698   0.405  0.00  0.00    -0.291 OA
ATOM      3  C   UNL     1     -36.594  22.487   1.377  0.00  0.00    +0.032 C 
ATOM      4  C   UNL     1     -37.037  21.011   1.274  0.00  0.00    +0.005 C 
ATOM      5  C   UNL     1     -36.180  20.179   0.307  0.00  0.00    +0.033 C 
ATOM      6  C   UNL     1     -34.694  20.206   0.788  0.00  0.00    +0.161 C 
ATOM      7  C   UNL     1     -37.687  23.013   2.347  0.00  0.00    +0.143 C 
ATOM      8  C   UNL     1     -35.149  22.498   1.913  0.00  0.00    +0.035 C 
ATOM      9  C   UNL     1     -33.748  19.302  -0.103  0.00  0.00    +0.046 C 
ATOM     10  C   UNL     1     -34.179  21.651   1.058  0.00  0.00    +0.141 C 
ATOM     11  C   UNL     1     -38.540  21.109   1.026  0.00  0.00    +0.003 C 
ATOM     12  C   UNL     1     -38.984  22.323   1.868  0.00  0.00    +0.034 C 
ATOM     13  C   UNL     1     -36.696  18.732   0.248  0.00  0.00    +0.007 C 
ATOM     14  C   UNL     1     -36.685  23.249   0.027  0.00  0.00    +0.003 C 
ATOM     15  C   UNL     1     -34.371  17.904  -0.237  0.00  0.00    -0.039 C 
ATOM     16  C   UNL     1     -35.826  17.857  -0.640  0.00  0.00    +0.022 C 
ATOM     17  C   UNL     1     -32.360  19.201   0.595  0.00  0.00    +0.014 C 
ATOM     18  C   UNL     1     -33.545  19.844  -1.537  0.00  0.00    +0.007 C 
ATOM     19  C   UNL     1     -31.497  18.065   0.070  0.00  0.00    +0.070 C 
ATOM     20  C   UNL     1     -33.696  16.758  -0.059  0.00  0.00    +0.029 C 
ATOM     21  C   UNL     1     -32.235  16.757   0.188  0.00  0.00    +0.173 C 
ENDROOT
BRANCH   7  22
ATOM     22  O   UNL     1     -37.414  22.627   3.691  0.00  0.00    -0.380 OA
ATOM     23  H   UNL     1     -37.337  23.418   4.246  0.00  0.00    +0.211 HD
ENDBRANCH   7  22
BRANCH  10  24
ATOM     24  O   UNL     1     -33.886  22.338  -0.149  0.00  0.00    -0.382 OA
ATOM     25  H   UNL     1     -34.498  23.082  -0.255  0.00  0.00    +0.210 HD
ENDBRANCH  10  24
BRANCH   7  27
ATOM     26  O   UNL     1     -38.788  25.089   1.954  0.00  0.00    -0.290 OA
ATOM     27  C   UNL     1     -37.803  24.507   2.406  0.00  0.00    +0.218 C 
BRANCH  27  28
ATOM     28  C   UNL     1     -36.647  25.244   3.048  0.00  0.00    +0.274 C 
BRANCH  28  29
ATOM     29  O   UNL     1     -36.884  25.440   4.426  0.00  0.00    -0.440 OA
BRANCH  29  31
ATOM     30  O   UNL     1     -35.927  23.771   5.706  0.00  0.00    -0.250 OA
ATOM     31  C   UNL     1     -35.946  24.918   5.281  0.00  0.00    +0.318 C 
ATOM     32  C   UNL     1     -34.928  25.960   5.633  0.00  0.00    +0.121 C 
ENDBRANCH  29  31
ENDBRANCH  28  29
ENDBRANCH  27  28
ENDBRANCH   7  27
TORSDOF 6
ENDMDL
MODEL 2
REMARK VINA RESULT:      -6.4      2.832      8.054
REMARK  Name = 5702054
REMARK  6 active torsions:
REMARK  status: ('A' for Active; 'I' for Inactive)
REMARK    1  A    between atoms: C_7  and  O_22
REMARK    2  A    between atoms: C_7  and  C_27
REMARK    3  A    between atoms: C_10  and  O_24
REMARK    4  A    between atoms: C_27  and  C_28
REMARK    5  A    between atoms: C_28  and  O_29
REMARK    6  A    between atoms: O_29  and  C_31
REMARK                            x       y       z     vdW  Elec       q    Type
REMARK                         _______ _______ _______ _____ _____    ______ ____
ROOT
ATOM      1  F   UNL     1     -39.949  22.843   2.472  0.00  0.00    -0.237 F 
ATOM      2  O   UNL     1     -43.645  26.533   2.641  0.00  0.00    -0.291 OA
ATOM      3  C   UNL     1     -36.865  21.668   1.292  0.00  0.00    +0.032 C 
ATOM      4  C   UNL     1     -37.136  22.582   2.507  0.00  0.00    +0.005 C 
ATOM      5  C   UNL     1     -37.872  23.881   2.145  0.00  0.00    +0.033 C 
ATOM      6  C   UNL     1     -39.245  23.525   1.489  0.00  0.00    +0.161 C 
ATOM      7  C   UNL     1     -36.075  20.532   2.000  0.00  0.00    +0.143 C 
ATOM      8  C   UNL     1     -38.231  21.275   0.696  0.00  0.00    +0.035 C 
ATOM      9  C   UNL     1     -40.113  24.808   1.159  0.00  0.00    +0.046 C 
ATOM     10  C   UNL     1     -39.105  22.496   0.329  0.00  0.00    +0.141 C 
ATOM     11  C   UNL     1     -35.775  22.674   3.192  0.00  0.00    +0.003 C 
ATOM     12  C   UNL     1     -35.159  21.273   3.000  0.00  0.00    +0.034 C 
ATOM     13  C   UNL     1     -38.087  24.740   3.401  0.00  0.00    +0.007 C 
ATOM     14  C   UNL     1     -35.965  22.333   0.214  0.00  0.00    +0.003 C 
ATOM     15  C   UNL     1     -40.191  25.696   2.410  0.00  0.00    -0.039 C 
ATOM     16  C   UNL     1     -38.881  26.001   3.097  0.00  0.00    +0.022 C 
ATOM     17  C   UNL     1     -41.541  24.345   0.745  0.00  0.00    +0.014 C 
ATOM     18  C   UNL     1     -39.525  25.679   0.025  0.00  0.00    +0.007 C 
ATOM     19  C   UNL     1     -42.577  25.457   0.787  0.00  0.00    +0.070 C 
ATOM     20  C   UNL     1     -41.328  26.231   2.885  0.00  0.00    +0.029 C 
ATOM     21  C   UNL     1     -42.610  26.082   2.157  0.00  0.00    +0.173 C 
ENDROOT
BRANCH   7  22
ATOM     22  O   UNL     1     -36.950  19.664   2.714  0.00  0.00    -0.380 OA
ATOM     23  H   UNL     1     -36.684  19.631   3.646  0.00  0.00    +0.211 HD
ENDBRANCH   7  22
BRANCH  10  24
ATOM     24  O   UNL     1     -38.605  23.100  -0.853  0.00  0.00    -0.382 OA
ATOM     25  H   UNL     1     -38.618  24.065  -0.754  0.00  0.00    +0.210 HD
ENDBRANCH  10  24
BRANCH   7  27
ATOM     26  O   UNL     1     -35.912  18.849   0.322  0.00  0.00    -0.290 OA
ATOM     27  C   UNL     1     -35.323  19.624   1.075  0.00  0.00    +0.218 C 
BRANCH  27  28
ATOM     28  C   UNL     1     -33.813  19.716   1.126  0.00  0.00    +0.274 C 
BRANCH  28  29
ATOM     29  O   UNL     1     -33.258  18.525   1.641  0.00  0.00    -0.440 OA
BRANCH  29  31
ATOM     30  O   UNL     1     -31.702  16.931   1.025  0.00  0.00    -0.250 OA
ATOM     31  C   UNL     1     -32.103  18.087   1.042  0.00  0.00    +0.318 C 
ATOM     32  C   UNL     1     -31.384  19.234   0.399  0.00  0.00    +0.121 C 
ENDBRANCH  29  31
ENDBRANCH  28  29
ENDBRANCH  27  28
ENDBRANCH   7  27
TORSDOF 6
ENDMDL
MODEL 3
REMARK VINA RESULT:      -6.3      2.879      7.342
REMARK  Name = 5702054
REMARK  6 active torsions:
REMARK  status: ('A' for Active; 'I' for Inactive)
REMARK    1  A    between atoms: C_7  and  O_22
REMARK    2  A    between atoms: C_7  and  C_27
REMARK    3  A    between atoms: C_10  and  O_24
REMARK    4  A    between atoms: C_27  and  C_28
REMARK    5  A    between atoms: C_28  and  O_29
REMARK    6  A    between atoms: O_29  and  C_31
REMARK                            x       y       z     vdW  Elec       q    Type
REMARK                         _______ _______ _______ _____ _____    ______ ____
ROOT
ATOM      1  F   UNL     1     -35.677  22.557   3.408  0.00  0.00    -0.237 F 
ATOM      2  O   UNL     1     -33.683  26.387   6.350  0.00  0.00    -0.291 OA
ATOM      3  C   UNL     1     -37.533  21.497   0.629  0.00  0.00    +0.032 C 
ATOM      4  C   UNL     1     -36.034  21.864   0.693  0.00  0.00    +0.005 C 
ATOM      5  C   UNL     1     -35.773  23.296   1.185  0.00  0.00    +0.033 C 
ATOM      6  C   UNL     1     -36.373  23.461   2.618  0.00  0.00    +0.161 C 
ATOM      7  C   UNL     1     -37.418  20.062   0.044  0.00  0.00    +0.143 C 
ATOM      8  C   UNL     1     -38.094  21.603   2.061  0.00  0.00    +0.035 C 
ATOM      9  C   UNL     1     -36.077  24.885   3.242  0.00  0.00    +0.046 C 
ATOM     10  C   UNL     1     -37.855  22.988   2.704  0.00  0.00    +0.141 C 
ATOM     11  C   UNL     1     -35.510  21.452  -0.681  0.00  0.00    +0.003 C 
ATOM     12  C   UNL     1     -36.305  20.174  -1.022  0.00  0.00    +0.034 C 
ATOM     13  C   UNL     1     -34.265  23.588   1.201  0.00  0.00    +0.007 C 
ATOM     14  C   UNL     1     -38.342  22.394  -0.347  0.00  0.00    +0.003 C 
ATOM     15  C   UNL     1     -34.575  25.184   3.119  0.00  0.00    -0.039 C 
ATOM     16  C   UNL     1     -33.961  24.971   1.757  0.00  0.00    +0.022 C 
ATOM     17  C   UNL     1     -36.494  24.864   4.743  0.00  0.00    +0.014 C 
ATOM     18  C   UNL     1     -36.825  26.040   2.536  0.00  0.00    +0.007 C 
ATOM     19  C   UNL     1     -35.909  26.009   5.553  0.00  0.00    +0.070 C 
ATOM     20  C   UNL     1     -33.815  25.650   4.123  0.00  0.00    +0.029 C 
ATOM     21  C   UNL     1     -34.408  26.016   5.430  0.00  0.00    +0.173 C 
ENDROOT
BRANCH   7  22
ATOM     22  O   UNL     1     -37.024  19.127   1.044  0.00  0.00    -0.380 OA
ATOM     23  H   UNL     1     -37.072  19.547   1.917  0.00  0.00    +0.211 HD
ENDBRANCH   7  22
BRANCH  10  24
ATOM     24  O   UNL     1     -38.744  23.936   2.135  0.00  0.00    -0.382 OA
ATOM     25  H   UNL     1     -39.374  24.235   2.809  0.00  0.00    +0.210 HD
ENDBRANCH  10  24
BRANCH   7  27
ATOM     26  O   UNL     1     -39.790  19.959  -0.157  0.00  0.00    -0.290 OA
ATOM     27  C   UNL     1     -38.699  19.505  -0.500  0.00  0.00    +0.218 C 
BRANCH  27  28
ATOM     28  C   UNL     1     -38.568  18.362  -1.484  0.00  0.00    +0.274 C 
BRANCH  28  29
ATOM     29  O   UNL     1     -39.377  17.273  -1.093  0.00  0.00    -0.440 OA
BRANCH  29  31
ATOM     30  O   UNL     1     -37.643  16.277   0.065  0.00  0.00    -0.250 OA
ATOM     31  C   UNL     1     -38.729  16.221  -0.497  0.00  0.00    +0.318 C 
ATOM     32  C   UNL     1     -39.542  14.969  -0.627  0.00  0.00    +0.121 C 
ENDBRANCH  29  31
ENDBRANCH  28  29
ENDBRANCH  27  28
ENDBRANCH   7  27
TORSDOF 6
ENDMDL
MODEL 4
REMARK VINA RESULT:      -6.3      3.942      6.239
REMARK  Name = 5702054
REMARK  6 active torsions:
REMARK  status: ('A' for Active; 'I' for Inactive)
REMARK    1  A    between atoms: C_7  and  O_22
REMARK    2  A    between atoms: C_7  and  C_27
REMARK    3  A    between atoms: C_10  and  O_24
REMARK    4  A    between atoms: C_27  and  C_28
REMARK    5  A    between atoms: C_28  and  O_29
REMARK    6  A    between atoms: O_29  and  C_31
REMARK                            x       y       z     vdW  Elec       q    Type
REMARK                         _______ _______ _______ _____ _____    ______ ____
ROOT
ATOM      1  F   UNL     1     -38.755  23.583   3.345  0.00  0.00    -0.237 F 
ATOM      2  O   UNL     1     -34.810  21.041   5.642  0.00  0.00    -0.291 OA
ATOM      3  C   UNL     1     -39.926  25.983   1.074  0.00  0.00    +0.032 C 
ATOM      4  C   UNL     1     -39.554  24.509   0.799  0.00  0.00    +0.005 C 
ATOM      5  C   UNL     1     -38.103  24.163   1.169  0.00  0.00    +0.033 C 
ATOM      6  C   UNL     1     -37.884  24.443   2.690  0.00  0.00    +0.161 C 
ATOM      7  C   UNL     1     -41.383  25.983   0.533  0.00  0.00    +0.143 C 
ATOM      8  C   UNL     1     -39.765  26.224   2.588  0.00  0.00    +0.035 C 
ATOM      9  C   UNL     1     -36.435  24.033   3.182  0.00  0.00    +0.046 C 
ATOM     10  C   UNL     1     -38.355  25.866   3.112  0.00  0.00    +0.141 C 
ATOM     11  C   UNL     1     -40.019  24.289  -0.638  0.00  0.00    +0.003 C 
ATOM     12  C   UNL     1     -41.310  25.126  -0.751  0.00  0.00    +0.034 C 
ATOM     13  C   UNL     1     -37.809  22.689   0.849  0.00  0.00    +0.007 C 
ATOM     14  C   UNL     1     -39.069  26.992   0.262  0.00  0.00    +0.003 C 
ATOM     15  C   UNL     1     -36.139  22.596   2.727  0.00  0.00    -0.039 C 
ATOM     16  C   UNL     1     -36.405  22.287   1.273  0.00  0.00    +0.022 C 
ATOM     17  C   UNL     1     -36.399  24.117   4.737  0.00  0.00    +0.014 C 
ATOM     18  C   UNL     1     -35.311  24.927   2.610  0.00  0.00    +0.007 C 
ATOM     19  C   UNL     1     -35.222  23.383   5.358  0.00  0.00    +0.070 C 
ATOM     20  C   UNL     1     -35.633  21.642   3.525  0.00  0.00    +0.029 C 
ATOM     21  C   UNL     1     -35.217  21.944   4.915  0.00  0.00    +0.173 C 
ENDROOT
BRANCH   7  22
ATOM     22  O   UNL     1     -42.277  25.373   1.459  0.00  0.00    -0.380 OA
ATOM     23  H   UNL     1     -43.096  25.124   1.002  0.00  0.00    +0.211 HD
ENDBRANCH   7  22
BRANCH  10  24
ATOM     24  O   UNL     1     -37.432  26.866   2.712  0.00  0.00    -0.382 OA
ATOM     25  H   UNL     1     -36.537  26.607   2.981  0.00  0.00    +0.210 HD
ENDBRANCH  10  24
BRANCH   7  27
ATOM     26  O   UNL     1     -41.696  27.987  -0.716  0.00  0.00    -0.290 OA
ATOM     27  C   UNL     1     -41.963  27.345   0.299  0.00  0.00    +0.218 C 
BRANCH  27  28
ATOM     28  C   UNL     1     -42.883  27.876   1.377  0.00  0.00    +0.274 C 
BRANCH  28  29
ATOM     29  O   UNL     1     -42.144  28.537   2.382  0.00  0.00    -0.440 OA
BRANCH  29  31
ATOM     30  O   UNL     1     -42.060  28.827   4.673  0.00  0.00    -0.250 OA
ATOM     31  C   UNL     1     -42.594  28.376   3.668  0.00  0.00    +0.318 C 
ATOM     32  C   UNL     1     -43.850  27.558   3.681  0.00  0.00    +0.121 C 
ENDBRANCH  29  31
ENDBRANCH  28  29
ENDBRANCH  27  28
ENDBRANCH   7  27
TORSDOF 6
ENDMDL
MODEL 5
REMARK VINA RESULT:      -6.2      1.926      2.799
REMARK  Name = 5702054
REMARK  6 active torsions:
REMARK  status: ('A' for Active; 'I' for Inactive)
REMARK    1  A    between atoms: C_7  and  O_22
REMARK    2  A    between atoms: C_7  and  C_27
REMARK    3  A    between atoms: C_10  and  O_24
REMARK    4  A    between atoms: C_27  and  C_28
REMARK    5  A    between atoms: C_28  and  O_29
REMARK    6  A    between atoms: O_29  and  C_31
REMARK                            x       y       z     vdW  Elec       q    Type
REMARK                         _______ _______ _______ _____ _____    ______ ____
ROOT
ATOM      1  F   UNL     1     -33.921  17.009   0.683  0.00  0.00    -0.237 F 
ATOM      2  O   UNL     1     -30.699  13.515  -1.488  0.00  0.00    -0.291 OA
ATOM      3  C   UNL     1     -35.214  20.261   0.870  0.00  0.00    +0.032 C 
ATOM      4  C   UNL     1     -35.666  19.105  -0.050  0.00  0.00    +0.005 C 
ATOM      5  C   UNL     1     -34.545  18.567  -0.953  0.00  0.00    +0.033 C 
ATOM      6  C   UNL     1     -33.375  18.046  -0.059  0.00  0.00    +0.161 C 
ATOM      7  C   UNL     1     -36.571  20.584   1.555  0.00  0.00    +0.143 C 
ATOM      8  C   UNL     1     -34.104  19.713   1.788  0.00  0.00    +0.035 C 
ATOM      9  C   UNL     1     -32.206  17.392  -0.905  0.00  0.00    +0.046 C 
ATOM     10  C   UNL     1     -32.925  19.089   1.006  0.00  0.00    +0.141 C 
ATOM     11  C   UNL     1     -36.938  19.645  -0.700  0.00  0.00    +0.003 C 
ATOM     12  C   UNL     1     -37.608  20.476   0.415  0.00  0.00    +0.034 C 
ATOM     13  C   UNL     1     -35.078  17.436  -1.847  0.00  0.00    +0.007 C 
ATOM     14  C   UNL     1     -34.716  21.507   0.088  0.00  0.00    +0.003 C 
ATOM     15  C   UNL     1     -32.805  16.360  -1.873  0.00  0.00    -0.039 C 
ATOM     16  C   UNL     1     -33.979  16.824  -2.702  0.00  0.00    +0.022 C 
ATOM     17  C   UNL     1     -31.219  16.692   0.075  0.00  0.00    +0.014 C 
ATOM     18  C   UNL     1     -31.418  18.409  -1.763  0.00  0.00    +0.007 C 
ATOM     19  C   UNL     1     -30.287  15.703  -0.606  0.00  0.00    +0.070 C 
ATOM     20  C   UNL     1     -32.325  15.118  -2.042  0.00  0.00    +0.029 C 
ATOM     21  C   UNL     1     -31.086  14.674  -1.362  0.00  0.00    +0.173 C 
ENDROOT
BRANCH   7  22
ATOM     22  O   UNL     1     -36.878  19.629   2.567  0.00  0.00    -0.380 OA
ATOM     23  H   UNL     1     -37.420  18.920   2.188  0.00  0.00    +0.211 HD
ENDBRANCH   7  22
BRANCH  10  24
ATOM     24  O   UNL     1     -32.136  20.120   0.433  0.00  0.00    -0.382 OA
ATOM     25  H   UNL     1     -32.382  20.972   0.826  0.00  0.00    +0.210 HD
ENDBRANCH  10  24
BRANCH   7  27
ATOM     26  O   UNL     1     -37.277  22.843   1.827  0.00  0.00    -0.290 OA
ATOM     27  C   UNL     1     -36.613  21.904   2.265  0.00  0.00    +0.218 C 
BRANCH  27  28
ATOM     28  C   UNL     1     -35.798  22.008   3.536  0.00  0.00    +0.274 C 
BRANCH  28  29
ATOM     29  O   UNL     1     -36.415  22.886   4.453  0.00  0.00    -0.440 OA
BRANCH  29  31
ATOM     30  O   UNL     1     -35.268  24.468   5.687  0.00  0.00    -0.250 OA
ATOM     31  C   UNL     1     -35.636  23.316   5.497  0.00  0.00    +0.318 C 
ATOM     32  C   UNL     1     -35.287  22.166   6.392  0.00  0.00    +0.121 C 
ENDBRANCH  29  31
ENDBRANCH  28  29
ENDBRANCH  27  28
ENDBRANCH   7  27
TORSDOF 6
ENDMDL
MODEL 6
REMARK VINA RESULT:      -6.2      2.562      4.154
REMARK  Name = 5702054
REMARK  6 active torsions:
REMARK  status: ('A' for Active; 'I' for Inactive)
REMARK    1  A    between atoms: C_7  and  O_22
REMARK    2  A    between atoms: C_7  and  C_27
REMARK    3  A    between atoms: C_10  and  O_24
REMARK    4  A    between atoms: C_27  and  C_28
REMARK    5  A    between atoms: C_28  and  O_29
REMARK    6  A    between atoms: O_29  and  C_31
REMARK                            x       y       z     vdW  Elec       q    Type
REMARK                         _______ _______ _______ _____ _____    ______ ____
ROOT
ATOM      1  F   UNL     1     -34.063  22.214   0.945  0.00  0.00    -0.237 F 
ATOM      2  O   UNL     1     -34.568  19.040  -3.176  0.00  0.00    -0.291 OA
ATOM      3  C   UNL     1     -35.484  24.246   3.421  0.00  0.00    +0.032 C 
ATOM      4  C   UNL     1     -35.251  22.720   3.457  0.00  0.00    +0.005 C 
ATOM      5  C   UNL     1     -35.950  21.966   2.313  0.00  0.00    +0.033 C 
ATOM      6  C   UNL     1     -35.419  22.506   0.947  0.00  0.00    +0.161 C 
ATOM      7  C   UNL     1     -34.721  24.649   4.713  0.00  0.00    +0.143 C 
ATOM      8  C   UNL     1     -34.898  24.771   2.096  0.00  0.00    +0.035 C 
ATOM      9  C   UNL     1     -36.023  21.726  -0.292  0.00  0.00    +0.046 C 
ATOM     10  C   UNL     1     -35.479  24.060   0.853  0.00  0.00    +0.141 C 
ATOM     11  C   UNL     1     -35.586  22.343   4.898  0.00  0.00    +0.003 C 
ATOM     12  C   UNL     1     -35.082  23.542   5.729  0.00  0.00    +0.034 C 
ATOM     13  C   UNL     1     -35.685  20.457   2.430  0.00  0.00    +0.007 C 
ATOM     14  C   UNL     1     -36.980  24.641   3.556  0.00  0.00    +0.003 C 
ATOM     15  C   UNL     1     -35.848  20.216  -0.067  0.00  0.00    -0.039 C 
ATOM     16  C   UNL     1     -36.296  19.684   1.272  0.00  0.00    +0.022 C 
ATOM     17  C   UNL     1     -35.256  22.166  -1.574  0.00  0.00    +0.014 C 
ATOM     18  C   UNL     1     -37.534  21.977  -0.506  0.00  0.00    +0.007 C 
ATOM     19  C   UNL     1     -35.452  21.225  -2.752  0.00  0.00    +0.070 C 
ATOM     20  C   UNL     1     -35.368  19.368  -0.991  0.00  0.00    +0.029 C 
ATOM     21  C   UNL     1     -35.059  19.823  -2.366  0.00  0.00    +0.173 C 
ENDROOT
BRANCH   7  22
ATOM     22  O   UNL     1     -33.312  24.655   4.500  0.00  0.00    -0.380 OA
ATOM     23  H   UNL     1     -33.038  23.803   4.125  0.00  0.00    +0.211 HD
ENDBRANCH   7  22
BRANCH  10  24
ATOM     24  O   UNL     1     -36.800  24.521   0.615  0.00  0.00    -0.382 OA
ATOM     25  H   UNL     1     -36.919  24.688  -0.333  0.00  0.00    +0.210 HD
ENDBRANCH  10  24
BRANCH   7  27
ATOM     26  O   UNL     1     -36.014  26.250   5.914  0.00  0.00    -0.290 OA
ATOM     27  C   UNL     1     -35.026  26.029   5.215  0.00  0.00    +0.218 C 
BRANCH  27  28
ATOM     28  C   UNL     1     -34.056  27.118   4.811  0.00  0.00    +0.274 C 
BRANCH  28  29
ATOM     29  O   UNL     1     -33.127  27.367   5.845  0.00  0.00    -0.440 OA
BRANCH  29  31
ATOM     30  O   UNL     1     -31.231  27.753   4.581  0.00  0.00    -0.250 OA
ATOM     31  C   UNL     1     -31.995  28.055   5.489  0.00  0.00    +0.318 C 
ATOM     32  C   UNL     1     -31.813  29.249   6.375  0.00  0.00    +0.121 C 
ENDBRANCH  29  31
ENDBRANCH  28  29
ENDBRANCH  27  28
ENDBRANCH   7  27
TORSDOF 6
ENDMDL
MODEL 7
REMARK VINA RESULT:      -6.2      4.583      6.711
REMARK  Name = 5702054
REMARK  6 active torsions:
REMARK  status: ('A' for Active; 'I' for Inactive)
REMARK    1  A    between atoms: C_7  and  O_22
REMARK    2  A    between atoms: C_7  and  C_27
REMARK    3  A    between atoms: C_10  and  O_24
REMARK    4  A    between atoms: C_27  and  C_28
REMARK    5  A    between atoms: C_28  and  O_29
REMARK    6  A    between atoms: O_29  and  C_31
REMARK                            x       y       z     vdW  Elec       q    Type
REMARK                         _______ _______ _______ _____ _____    ______ ____
ROOT
ATOM      1  F   UNL     1     -37.039  24.200   0.760  0.00  0.00    -0.237 F 
ATOM      2  O   UNL     1     -40.993  22.725  -2.321  0.00  0.00    -0.291 OA
ATOM      3  C   UNL     1     -35.840  25.322   3.856  0.00  0.00    +0.032 C 
ATOM      4  C   UNL     1     -36.105  23.869   3.405  0.00  0.00    +0.005 C 
ATOM      5  C   UNL     1     -37.557  23.617   2.970  0.00  0.00    +0.033 C 
ATOM      6  C   UNL     1     -37.906  24.566   1.779  0.00  0.00    +0.161 C 
ATOM      7  C   UNL     1     -34.349  25.190   4.274  0.00  0.00    +0.143 C 
ATOM      8  C   UNL     1     -36.127  26.239   2.651  0.00  0.00    +0.035 C 
ATOM      9  C   UNL     1     -39.361  24.316   1.208  0.00  0.00    +0.046 C 
ATOM     10  C   UNL     1     -37.549  26.053   2.074  0.00  0.00    +0.141 C 
ATOM     11  C   UNL     1     -35.522  23.033   4.542  0.00  0.00    +0.003 C 
ATOM     12  C   UNL     1     -34.276  23.824   4.992  0.00  0.00    +0.034 C 
ATOM     13  C   UNL     1     -37.742  22.149   2.556  0.00  0.00    +0.007 C 
ATOM     14  C   UNL     1     -36.689  25.747   5.085  0.00  0.00    +0.003 C 
ATOM     15  C   UNL     1     -39.540  22.816   0.929  0.00  0.00    -0.039 C 
ATOM     16  C   UNL     1     -39.149  21.878   2.045  0.00  0.00    +0.022 C 
ATOM     17  C   UNL     1     -39.519  25.125  -0.114  0.00  0.00    +0.014 C 
ATOM     18  C   UNL     1     -40.489  24.730   2.181  0.00  0.00    +0.007 C 
ATOM     19  C   UNL     1     -40.696  24.676  -0.965  0.00  0.00    +0.070 C 
ATOM     20  C   UNL     1     -40.050  22.316  -0.209  0.00  0.00    +0.029 C 
ATOM     21  C   UNL     1     -40.585  23.205  -1.266  0.00  0.00    +0.173 C 
ENDROOT
BRANCH   7  22
ATOM     22  O   UNL     1     -33.493  25.173   3.136  0.00  0.00    -0.380 OA
ATOM     23  H   UNL     1     -32.586  24.975   3.415  0.00  0.00    +0.211 HD
ENDBRANCH   7  22
BRANCH  10  24
ATOM     24  O   UNL     1     -38.496  26.659   2.940  0.00  0.00    -0.382 OA
ATOM     25  H   UNL     1     -39.108  25.985   3.273  0.00  0.00    +0.210 HD
ENDBRANCH  10  24
BRANCH   7  27
ATOM     26  O   UNL     1     -34.035  26.365   6.323  0.00  0.00    -0.290 OA
ATOM     27  C   UNL     1     -33.832  26.322   5.110  0.00  0.00    +0.218 C 
BRANCH  27  28
ATOM     28  C   UNL     1     -33.056  27.396   4.378  0.00  0.00    +0.274 C 
BRANCH  28  29
ATOM     29  O   UNL     1     -32.950  28.560   5.169  0.00  0.00    -0.440 OA
BRANCH  29  31
ATOM     30  O   UNL     1     -30.847  27.940   5.899  0.00  0.00    -0.250 OA
ATOM     31  C   UNL     1     -31.740  28.769   5.781  0.00  0.00    +0.318 C 
ATOM     32  C   UNL     1     -31.653  30.173   6.297  0.00  0.00    +0.121 C 
ENDBRANCH  29  31
ENDBRANCH  28  29
ENDBRANCH  27  28
ENDBRANCH   7  27
TORSDOF 6
ENDMDL
MODEL 8
REMARK VINA RESULT:      -6.1      5.159      8.867
REMARK  Name = 5702054
REMARK  6 active torsions:
REMARK  status: ('A' for Active; 'I' for Inactive)
REMARK    1  A    between atoms: C_7  and  O_22
REMARK    2  A    between atoms: C_7  and  C_27
REMARK    3  A    between atoms: C_10  and  O_24
REMARK    4  A    between atoms: C_27  and  C_28
REMARK    5  A    between atoms: C_28  and  O_29
REMARK    6  A    between atoms: O_29  and  C_31
REMARK                            x       y       z     vdW  Elec       q    Type
REMARK                         _______ _______ _______ _____ _____    ______ ____
ROOT
ATOM      1  F   UNL     1     -34.588  29.198   3.334  0.00  0.00    -0.237 F 
ATOM      2  O   UNL     1     -31.485  33.242   2.183  0.00  0.00    -0.291 OA
ATOM      3  C   UNL     1     -35.227  25.752   3.347  0.00  0.00    +0.032 C 
ATOM      4  C   UNL     1     -34.446  26.582   4.389  0.00  0.00    +0.005 C 
ATOM      5  C   UNL     1     -33.243  27.334   3.797  0.00  0.00    +0.033 C 
ATOM      6  C   UNL     1     -33.747  28.306   2.683  0.00  0.00    +0.161 C 
ATOM      7  C   UNL     1     -36.283  25.100   4.281  0.00  0.00    +0.143 C 
ATOM      8  C   UNL     1     -35.771  26.734   2.290  0.00  0.00    +0.035 C 
ATOM      9  C   UNL     1     -32.583  29.189   2.072  0.00  0.00    +0.046 C 
ATOM     10  C   UNL     1     -34.666  27.600   1.642  0.00  0.00    +0.141 C 
ATOM     11  C   UNL     1     -34.205  25.589   5.524  0.00  0.00    +0.003 C 
ATOM     12  C   UNL     1     -35.488  24.732   5.554  0.00  0.00    +0.034 C 
ATOM     13  C   UNL     1     -32.511  28.117   4.897  0.00  0.00    +0.007 C 
ATOM     14  C   UNL     1     -34.369  24.644   2.678  0.00  0.00    +0.003 C 
ATOM     15  C   UNL     1     -31.801  29.849   3.218  0.00  0.00    -0.039 C 
ATOM     16  C   UNL     1     -31.359  28.938   4.338  0.00  0.00    +0.022 C 
ATOM     17  C   UNL     1     -33.217  30.282   1.162  0.00  0.00    +0.014 C 
ATOM     18  C   UNL     1     -31.563  28.379   1.239  0.00  0.00    +0.007 C 
ATOM     19  C   UNL     1     -32.270  31.425   0.835  0.00  0.00    +0.070 C 
ATOM     20  C   UNL     1     -31.467  31.150   3.251  0.00  0.00    +0.029 C 
ATOM     21  C   UNL     1     -31.749  32.045   2.105  0.00  0.00    +0.173 C 
ENDROOT
BRANCH   7  22
ATOM     22  O   UNL     1     -37.314  26.024   4.619  0.00  0.00    -0.380 OA
ATOM     23  H   UNL     1     -37.614  25.858   5.526  0.00  0.00    +0.211 HD
ENDBRANCH   7  22
BRANCH  10  24
ATOM     24  O   UNL     1     -33.918  26.811   0.730  0.00  0.00    -0.382 OA
ATOM     25  H   UNL     1     -34.293  26.903  -0.160  0.00  0.00    +0.210 HD
ENDBRANCH  10  24
BRANCH   7  27
ATOM     26  O   UNL     1     -36.742  22.778   4.012  0.00  0.00    -0.290 OA
ATOM     27  C   UNL     1     -37.011  23.933   3.685  0.00  0.00    +0.218 C 
BRANCH  27  28
ATOM     28  C   UNL     1     -38.082  24.261   2.666  0.00  0.00    +0.274 C 
BRANCH  28  29
ATOM     29  O   UNL     1     -39.332  24.436   3.297  0.00  0.00    -0.440 OA
BRANCH  29  31
ATOM     30  O   UNL     1     -40.066  26.623   3.159  0.00  0.00    -0.250 OA
ATOM     31  C   UNL     1     -40.118  25.451   2.811  0.00  0.00    +0.318 C 
ATOM     32  C   UNL     1     -41.067  24.924   1.778  0.00  0.00    +0.121 C 
ENDBRANCH  29  31
ENDBRANCH  28  29
ENDBRANCH  27  28
ENDBRANCH   7  27
TORSDOF 6
ENDMDL
MODEL 9
REMARK VINA RESULT:      -6.1      1.733      2.921
REMARK  Name = 5702054
REMARK  6 active torsions:
REMARK  status: ('A' for Active; 'I' for Inactive)
REMARK    1  A    between atoms: C_7  and  O_22
REMARK    2  A    between atoms: C_7  and  C_27
REMARK    3  A    between atoms: C_10  and  O_24
REMARK    4  A    between atoms: C_27  and  C_28
REMARK    5  A    between atoms: C_28  and  O_29
REMARK    6  A    between atoms: O_29  and  C_31
REMARK                            x       y       z     vdW  Elec       q    Type
REMARK                         _______ _______ _______ _____ _____    ______ ____
ROOT
ATOM      1  F   UNL     1     -35.367  20.574  -0.823  0.00  0.00    -0.237 F 
ATOM      2  O   UNL     1     -32.744  16.551  -2.883  0.00  0.00    -0.291 OA
ATOM      3  C   UNL     1     -36.006  22.750   1.849  0.00  0.00    +0.032 C 
ATOM      4  C   UNL     1     -34.927  22.877   0.752  0.00  0.00    +0.005 C 
ATOM      5  C   UNL     1     -33.965  21.679   0.696  0.00  0.00    +0.033 C 
ATOM      6  C   UNL     1     -34.785  20.378   0.421  0.00  0.00    +0.161 C 
ATOM      7  C   UNL     1     -36.720  24.117   1.662  0.00  0.00    +0.143 C 
ATOM      8  C   UNL     1     -36.846  21.498   1.527  0.00  0.00    +0.035 C 
ATOM      9  C   UNL     1     -33.864  19.100   0.262  0.00  0.00    +0.046 C 
ATOM     10  C   UNL     1     -35.993  20.216   1.391  0.00  0.00    +0.141 C 
ATOM     11  C   UNL     1     -34.351  24.272   0.981  0.00  0.00    +0.003 C 
ATOM     12  C   UNL     1     -35.567  25.117   1.415  0.00  0.00    +0.034 C 
ATOM     13  C   UNL     1     -32.914  21.890  -0.405  0.00  0.00    +0.007 C 
ATOM     14  C   UNL     1     -35.415  22.662   3.282  0.00  0.00    +0.003 C 
ATOM     15  C   UNL     1     -32.753  19.406  -0.754  0.00  0.00    -0.039 C 
ATOM     16  C   UNL     1     -31.990  20.691  -0.543  0.00  0.00    +0.022 C 
ATOM     17  C   UNL     1     -34.741  17.919  -0.248  0.00  0.00    +0.014 C 
ATOM     18  C   UNL     1     -33.167  18.671   1.575  0.00  0.00    +0.007 C 
ATOM     19  C   UNL     1     -33.934  16.763  -0.816  0.00  0.00    +0.070 C 
ATOM     20  C   UNL     1     -32.412  18.591  -1.766  0.00  0.00    +0.029 C 
ATOM     21  C   UNL     1     -33.032  17.254  -1.917  0.00  0.00    +0.173 C 
ENDROOT
BRANCH   7  22
ATOM     22  O   UNL     1     -37.581  24.099   0.528  0.00  0.00    -0.380 OA
ATOM     23  H   UNL     1     -38.505  24.147   0.822  0.00  0.00    +0.211 HD
ENDBRANCH   7  22
BRANCH  10  24
ATOM     24  O   UNL     1     -35.580  19.781   2.677  0.00  0.00    -0.382 OA
ATOM     25  H   UNL     1     -34.731  20.193   2.901  0.00  0.00    +0.210 HD
ENDBRANCH  10  24
BRANCH   7  27
ATOM     26  O   UNL     1     -38.541  23.801   3.165  0.00  0.00    -0.290 OA
ATOM     27  C   UNL     1     -37.611  24.518   2.799  0.00  0.00    +0.218 C 
BRANCH  27  28
ATOM     28  C   UNL     1     -37.299  25.843   3.461  0.00  0.00    +0.274 C 
BRANCH  28  29
ATOM     29  O   UNL     1     -36.645  25.642   4.695  0.00  0.00    -0.440 OA
BRANCH  29  31
ATOM     30  O   UNL     1     -35.043  27.262   4.304  0.00  0.00    -0.250 OA
ATOM     31  C   UNL     1     -35.403  26.213   4.822  0.00  0.00    +0.318 C 
ATOM     32  C   UNL     1     -34.529  25.366   5.696  0.00  0.00    +0.121 C 
ENDBRANCH  29  31
ENDBRANCH  28  29
ENDBRANCH  27  28
ENDBRANCH   7  27
TORSDOF 6
ENDMDL
