MODEL 1
REMARK VINA RESULT:      -6.6      0.000      0.000
REMARK  Name = 5338
REMARK  3 active torsions:
REMARK  status: ('A' for Active; 'I' for Inactive)
REMARK    1  A    between atoms: S_1  and  N_4
REMARK    2  A    between atoms: S_1  and  C_16
REMARK    3  A    between atoms: C_21  and  N_22
REMARK                            x       y       z     vdW  Elec       q    Type
REMARK                         _______ _______ _______ _____ _____    ______ ____
ROOT
ATOM      1  S   UNL     1     -36.254  21.341   2.442  0.00  0.00    +0.075 S 
ATOM      2  O   UNL     1     -37.627  20.932   2.212  0.00  0.00    -0.150 OA
ATOM      3  O   UNL     1     -35.354  20.468   3.169  0.00  0.00    -0.150 OA
ENDROOT
BRANCH   1   4
ATOM      4  N   UNL     1     -35.544  21.801   0.940  0.00  0.00    -0.191 N 
ATOM      5  N   UNL     1     -33.940  20.065   0.999  0.00  0.00    -0.391 NA
ATOM      6  N   UNL     1     -32.111  21.654  -0.362  0.00  0.00    -0.263 NA
ATOM      7  C   UNL     1     -34.242  21.319   0.617  0.00  0.00    +0.200 C 
ATOM      8  C   UNL     1     -32.715  19.598   0.699  0.00  0.00    +0.128 C 
ATOM      9  C   UNL     1     -31.789  20.403   0.010  0.00  0.00    +0.084 C 
ATOM     10  C   UNL     1     -33.342  22.102  -0.054  0.00  0.00    +0.201 C 
ATOM     11  C   UNL     1     -32.346  18.307   1.069  0.00  0.00    +0.086 C 
ATOM     12  C   UNL     1     -30.529  19.886  -0.284  0.00  0.00    +0.073 C 
ATOM     13  C   UNL     1     -31.083  17.800   0.771  0.00  0.00    -0.023 C 
ATOM     14  C   UNL     1     -30.171  18.593   0.091  0.00  0.00    -0.024 C 
ATOM     15  H   UNL     1     -36.029  22.387   0.315  0.00  0.00    +0.176 HD
ENDBRANCH   1   4
BRANCH   1  16
ATOM     16  C   UNL     1     -36.318  22.887   3.301  0.00  0.00    +0.125 C 
ATOM     17  C   UNL     1     -35.729  22.990   4.548  0.00  0.00    +0.021 C 
ATOM     18  C   UNL     1     -36.954  23.963   2.707  0.00  0.00    +0.021 C 
ATOM     19  C   UNL     1     -35.779  24.208   5.226  0.00  0.00    +0.015 C 
ATOM     20  C   UNL     1     -37.005  25.180   3.385  0.00  0.00    +0.015 C 
ATOM     21  C   UNL     1     -36.417  25.303   4.644  0.00  0.00    +0.042 C 
BRANCH  21  22
ATOM     22  N   UNL     1     -36.466  26.536   5.328  0.00  0.00    -0.357 N 
ATOM     23  H   UNL     1     -35.672  26.864   5.808  0.00  0.00    +0.142 HD
ATOM     24  H   UNL     1     -37.295  27.068   5.326  0.00  0.00    +0.142 HD
ENDBRANCH  21  22
ENDBRANCH   1  16
TORSDOF 3
ENDMDL
MODEL 2
REMARK VINA RESULT:      -6.5      4.095      7.352
REMARK  Name = 5338
REMARK  3 active torsions:
REMARK  status: ('A' for Active; 'I' for Inactive)
REMARK    1  A    between atoms: S_1  and  N_4
REMARK    2  A    between atoms: S_1  and  C_16
REMARK    3  A    between atoms: C_21  and  N_22
REMARK                            x       y       z     vdW  Elec       q    Type
REMARK                         _______ _______ _______ _____ _____    ______ ____
ROOT
ATOM      1  S   UNL     1     -35.349  24.169   4.538  0.00  0.00    +0.075 S 
ATOM      2  O   UNL     1     -34.583  23.401   5.501  0.00  0.00    -0.150 OA
ATOM      3  O   UNL     1     -36.331  25.130   5.000  0.00  0.00    -0.150 OA
ENDROOT
BRANCH   1   4
ATOM      4  N   UNL     1     -34.265  24.921   3.428  0.00  0.00    -0.191 N 
ATOM      5  N   UNL     1     -33.332  26.341   5.072  0.00  0.00    -0.391 NA
ATOM      6  N   UNL     1     -32.894  28.320   3.172  0.00  0.00    -0.263 NA
ATOM      7  C   UNL     1     -33.671  26.167   3.782  0.00  0.00    +0.200 C 
ATOM      8  C   UNL     1     -32.769  27.512   5.419  0.00  0.00    +0.128 C 
ATOM      9  C   UNL     1     -32.547  28.513   4.457  0.00  0.00    +0.084 C 
ATOM     10  C   UNL     1     -33.455  27.142   2.845  0.00  0.00    +0.201 C 
ATOM     11  C   UNL     1     -32.397  27.747   6.740  0.00  0.00    +0.086 C 
ATOM     12  C   UNL     1     -31.961  29.714   4.852  0.00  0.00    +0.073 C 
ATOM     13  C   UNL     1     -31.812  28.952   7.125  0.00  0.00    -0.023 C 
ATOM     14  C   UNL     1     -31.594  29.939   6.177  0.00  0.00    -0.024 C 
ATOM     15  H   UNL     1     -34.061  24.498   2.562  0.00  0.00    +0.176 HD
ENDBRANCH   1   4
BRANCH   1  16
ATOM     16  C   UNL     1     -36.181  23.003   3.499  0.00  0.00    +0.125 C 
ATOM     17  C   UNL     1     -35.563  21.802   3.203  0.00  0.00    +0.021 C 
ATOM     18  C   UNL     1     -37.434  23.315   3.004  0.00  0.00    +0.021 C 
ATOM     19  C   UNL     1     -36.217  20.882   2.384  0.00  0.00    +0.015 C 
ATOM     20  C   UNL     1     -38.089  22.397   2.184  0.00  0.00    +0.015 C 
ATOM     21  C   UNL     1     -37.481  21.180   1.875  0.00  0.00    +0.042 C 
BRANCH  21  22
ATOM     22  N   UNL     1     -38.145  20.250   1.048  0.00  0.00    -0.357 N 
ATOM     23  H   UNL     1     -37.745  19.981   0.190  0.00  0.00    +0.142 HD
ATOM     24  H   UNL     1     -39.010  19.870   1.329  0.00  0.00    +0.142 HD
ENDBRANCH  21  22
ENDBRANCH   1  16
TORSDOF 3
ENDMDL
MODEL 3
REMARK VINA RESULT:      -6.5      1.666      6.727
REMARK  Name = 5338
REMARK  3 active torsions:
REMARK  status: ('A' for Active; 'I' for Inactive)
REMARK    1  A    between atoms: S_1  and  N_4
REMARK    2  A    between atoms: S_1  and  C_16
REMARK    3  A    between atoms: C_21  and  N_22
REMARK                            x       y       z     vdW  Elec       q    Type
REMARK                         _______ _______ _______ _____ _____    ______ ____
ROOT
ATOM      1  S   UNL     1     -35.498  20.132   1.434  0.00  0.00    +0.075 S 
ATOM      2  O   UNL     1     -35.547  20.219   2.881  0.00  0.00    -0.150 OA
ATOM      3  O   UNL     1     -36.346  19.183   0.739  0.00  0.00    -0.150 OA
ENDROOT
BRANCH   1   4
ATOM      4  N   UNL     1     -35.707  21.708   0.767  0.00  0.00    -0.191 N 
ATOM      5  N   UNL     1     -35.190  22.798   2.801  0.00  0.00    -0.391 NA
ATOM      6  N   UNL     1     -36.911  24.885   2.167  0.00  0.00    -0.263 NA
ATOM      7  C   UNL     1     -35.888  22.811   1.651  0.00  0.00    +0.200 C 
ATOM      8  C   UNL     1     -35.351  23.834   3.643  0.00  0.00    +0.128 C 
ATOM      9  C   UNL     1     -36.222  24.891   3.321  0.00  0.00    +0.084 C 
ATOM     10  C   UNL     1     -36.735  23.840   1.338  0.00  0.00    +0.201 C 
ATOM     11  C   UNL     1     -34.653  23.873   4.848  0.00  0.00    +0.086 C 
ATOM     12  C   UNL     1     -36.363  25.948   4.217  0.00  0.00    +0.073 C 
ATOM     13  C   UNL     1     -34.803  24.935   5.737  0.00  0.00    -0.023 C 
ATOM     14  C   UNL     1     -35.661  25.977   5.421  0.00  0.00    -0.024 C 
ATOM     15  H   UNL     1     -35.703  21.844  -0.208  0.00  0.00    +0.176 HD
ENDBRANCH   1   4
BRANCH   1  16
ATOM     16  C   UNL     1     -33.820  19.775   0.999  0.00  0.00    +0.125 C 
ATOM     17  C   UNL     1     -33.257  18.579   1.407  0.00  0.00    +0.021 C 
ATOM     18  C   UNL     1     -33.104  20.699   0.258  0.00  0.00    +0.021 C 
ATOM     19  C   UNL     1     -31.935  18.297   1.066  0.00  0.00    +0.015 C 
ATOM     20  C   UNL     1     -31.781  20.417  -0.083  0.00  0.00    +0.015 C 
ATOM     21  C   UNL     1     -31.197  19.216   0.320  0.00  0.00    +0.042 C 
BRANCH  21  22
ATOM     22  N   UNL     1     -29.860  18.931  -0.028  0.00  0.00    -0.357 N 
ATOM     23  H   UNL     1     -29.123  19.388   0.436  0.00  0.00    +0.142 HD
ATOM     24  H   UNL     1     -29.665  18.274  -0.736  0.00  0.00    +0.142 HD
ENDBRANCH  21  22
ENDBRANCH   1  16
TORSDOF 3
ENDMDL
MODEL 4
REMARK VINA RESULT:      -6.4      2.350      7.381
REMARK  Name = 5338
REMARK  3 active torsions:
REMARK  status: ('A' for Active; 'I' for Inactive)
REMARK    1  A    between atoms: S_1  and  N_4
REMARK    2  A    between atoms: S_1  and  C_16
REMARK    3  A    between atoms: C_21  and  N_22
REMARK                            x       y       z     vdW  Elec       q    Type
REMARK                         _______ _______ _______ _____ _____    ______ ____
ROOT
ATOM      1  S   UNL     1     -35.051  20.542   0.895  0.00  0.00    +0.075 S 
ATOM      2  O   UNL     1     -36.201  20.538   0.010  0.00  0.00    -0.150 OA
ATOM      3  O   UNL     1     -34.062  21.596   0.786  0.00  0.00    -0.150 OA
ENDROOT
BRANCH   1   4
ATOM      4  N   UNL     1     -35.594  20.409   2.525  0.00  0.00    -0.191 N 
ATOM      5  N   UNL     1     -35.881  22.743   2.775  0.00  0.00    -0.391 NA
ATOM      6  N   UNL     1     -35.238  22.575   5.473  0.00  0.00    -0.263 NA
ATOM      7  C   UNL     1     -35.575  21.569   3.354  0.00  0.00    +0.200 C 
ATOM      8  C   UNL     1     -35.867  23.845   3.546  0.00  0.00    +0.128 C 
ATOM      9  C   UNL     1     -35.542  23.759   4.912  0.00  0.00    +0.084 C 
ATOM     10  C   UNL     1     -35.259  21.485   4.684  0.00  0.00    +0.201 C 
ATOM     11  C   UNL     1     -36.177  25.088   3.000  0.00  0.00    +0.086 C 
ATOM     12  C   UNL     1     -35.538  24.920   5.681  0.00  0.00    +0.073 C 
ATOM     13  C   UNL     1     -36.170  26.243   3.778  0.00  0.00    -0.023 C 
ATOM     14  C   UNL     1     -35.849  26.159   5.124  0.00  0.00    -0.024 C 
ATOM     15  H   UNL     1     -35.912  19.547   2.879  0.00  0.00    +0.176 HD
ENDBRANCH   1   4
BRANCH   1  16
ATOM     16  C   UNL     1     -34.221  18.996   0.663  0.00  0.00    +0.125 C 
ATOM     17  C   UNL     1     -34.839  18.003  -0.076  0.00  0.00    +0.021 C 
ATOM     18  C   UNL     1     -32.970  18.811   1.223  0.00  0.00    +0.021 C 
ATOM     19  C   UNL     1     -34.186  16.785  -0.259  0.00  0.00    +0.015 C 
ATOM     20  C   UNL     1     -32.317  17.593   1.041  0.00  0.00    +0.015 C 
ATOM     21  C   UNL     1     -32.925  16.580   0.299  0.00  0.00    +0.042 C 
BRANCH  21  22
ATOM     22  N   UNL     1     -32.262  15.348   0.113  0.00  0.00    -0.357 N 
ATOM     23  H   UNL     1     -32.183  14.714   0.861  0.00  0.00    +0.142 HD
ATOM     24  H   UNL     1     -31.878  15.123  -0.766  0.00  0.00    +0.142 HD
ENDBRANCH  21  22
ENDBRANCH   1  16
TORSDOF 3
ENDMDL
MODEL 5
REMARK VINA RESULT:      -6.3      4.413      5.726
REMARK  Name = 5338
REMARK  3 active torsions:
REMARK  status: ('A' for Active; 'I' for Inactive)
REMARK    1  A    between atoms: S_1  and  N_4
REMARK    2  A    between atoms: S_1  and  C_16
REMARK    3  A    between atoms: C_21  and  N_22
REMARK                            x       y       z     vdW  Elec       q    Type
REMARK                         _______ _______ _______ _____ _____    ______ ____
ROOT
ATOM      1  S   UNL     1     -35.870  22.156   2.903  0.00  0.00    +0.075 S 
ATOM      2  O   UNL     1     -35.397  20.956   3.568  0.00  0.00    -0.150 OA
ATOM      3  O   UNL     1     -35.591  22.356   1.494  0.00  0.00    -0.150 OA
ENDROOT
BRANCH   1   4
ATOM      4  N   UNL     1     -37.558  22.338   3.202  0.00  0.00    -0.191 N 
ATOM      5  N   UNL     1     -38.179  21.019   1.341  0.00  0.00    -0.391 NA
ATOM      6  N   UNL     1     -40.491  22.521   0.996  0.00  0.00    -0.263 NA
ATOM      7  C   UNL     1     -38.478  22.048   2.153  0.00  0.00    +0.200 C 
ATOM      8  C   UNL     1     -39.040  20.734   0.348  0.00  0.00    +0.128 C 
ATOM      9  C   UNL     1     -40.211  21.495   0.174  0.00  0.00    +0.084 C 
ATOM     10  C   UNL     1     -39.617  22.789   1.984  0.00  0.00    +0.201 C 
ATOM     11  C   UNL     1     -38.783  19.679  -0.524  0.00  0.00    +0.086 C 
ATOM     12  C   UNL     1     -41.080  21.172  -0.865  0.00  0.00    +0.073 C 
ATOM     13  C   UNL     1     -39.659  19.364  -1.560  0.00  0.00    -0.023 C 
ATOM     14  C   UNL     1     -40.813  20.114  -1.732  0.00  0.00    -0.024 C 
ATOM     15  H   UNL     1     -37.881  22.638   4.082  0.00  0.00    +0.176 HD
ENDBRANCH   1   4
BRANCH   1  16
ATOM     16  C   UNL     1     -35.195  23.532   3.787  0.00  0.00    +0.125 C 
ATOM     17  C   UNL     1     -35.448  23.653   5.142  0.00  0.00    +0.021 C 
ATOM     18  C   UNL     1     -34.425  24.459   3.107  0.00  0.00    +0.021 C 
ATOM     19  C   UNL     1     -34.917  24.737   5.840  0.00  0.00    +0.015 C 
ATOM     20  C   UNL     1     -33.895  25.544   3.805  0.00  0.00    +0.015 C 
ATOM     21  C   UNL     1     -34.140  25.682   5.171  0.00  0.00    +0.042 C 
BRANCH  21  22
ATOM     22  N   UNL     1     -33.600  26.778   5.877  0.00  0.00    -0.357 N 
ATOM     23  H   UNL     1     -34.152  27.576   6.043  0.00  0.00    +0.142 HD
ATOM     24  H   UNL     1     -32.671  26.745   6.203  0.00  0.00    +0.142 HD
ENDBRANCH  21  22
ENDBRANCH   1  16
TORSDOF 3
ENDMDL
MODEL 6
REMARK VINA RESULT:      -6.3      6.492      9.099
REMARK  Name = 5338
REMARK  3 active torsions:
REMARK  status: ('A' for Active; 'I' for Inactive)
REMARK    1  A    between atoms: S_1  and  N_4
REMARK    2  A    between atoms: S_1  and  C_16
REMARK    3  A    between atoms: C_21  and  N_22
REMARK                            x       y       z     vdW  Elec       q    Type
REMARK                         _______ _______ _______ _____ _____    ______ ____
ROOT
ATOM      1  S   UNL     1     -33.562  27.355   3.846  0.00  0.00    +0.075 S 
ATOM      2  O   UNL     1     -34.644  28.295   3.617  0.00  0.00    -0.150 OA
ATOM      3  O   UNL     1     -32.548  27.162   2.829  0.00  0.00    -0.150 OA
ENDROOT
BRANCH   1   4
ATOM      4  N   UNL     1     -32.819  27.709   5.360  0.00  0.00    -0.191 N 
ATOM      5  N   UNL     1     -31.771  29.670   4.554  0.00  0.00    -0.391 NA
ATOM      6  N   UNL     1     -29.630  29.285   6.282  0.00  0.00    -0.263 NA
ATOM      7  C   UNL     1     -31.723  28.620   5.393  0.00  0.00    +0.200 C 
ATOM      8  C   UNL     1     -30.744  30.537   4.576  0.00  0.00    +0.128 C 
ATOM      9  C   UNL     1     -29.660  30.342   5.451  0.00  0.00    +0.084 C 
ATOM     10  C   UNL     1     -30.668  28.430   6.245  0.00  0.00    +0.201 C 
ATOM     11  C   UNL     1     -30.740  31.643   3.730  0.00  0.00    +0.086 C 
ATOM     12  C   UNL     1     -28.612  31.260   5.447  0.00  0.00    +0.073 C 
ATOM     13  C   UNL     1     -29.688  32.555   3.733  0.00  0.00    -0.023 C 
ATOM     14  C   UNL     1     -28.619  32.364   4.596  0.00  0.00    -0.024 C 
ATOM     15  H   UNL     1     -33.145  27.289   6.189  0.00  0.00    +0.176 HD
ENDBRANCH   1   4
BRANCH   1  16
ATOM     16  C   UNL     1     -34.310  25.784   4.169  0.00  0.00    +0.125 C 
ATOM     17  C   UNL     1     -34.737  25.491   5.451  0.00  0.00    +0.021 C 
ATOM     18  C   UNL     1     -34.454  24.879   3.132  0.00  0.00    +0.021 C 
ATOM     19  C   UNL     1     -35.326  24.253   5.707  0.00  0.00    +0.015 C 
ATOM     20  C   UNL     1     -35.042  23.641   3.386  0.00  0.00    +0.015 C 
ATOM     21  C   UNL     1     -35.478  23.328   4.674  0.00  0.00    +0.042 C 
BRANCH  21  22
ATOM     22  N   UNL     1     -36.076  22.076   4.931  0.00  0.00    -0.357 N 
ATOM     23  H   UNL     1     -36.565  21.928   5.772  0.00  0.00    +0.142 HD
ATOM     24  H   UNL     1     -36.003  21.350   4.269  0.00  0.00    +0.142 HD
ENDBRANCH  21  22
ENDBRANCH   1  16
TORSDOF 3
ENDMDL
MODEL 7
REMARK VINA RESULT:      -6.2      4.814      8.008
REMARK  Name = 5338
REMARK  3 active torsions:
REMARK  status: ('A' for Active; 'I' for Inactive)
REMARK    1  A    between atoms: S_1  and  N_4
REMARK    2  A    between atoms: S_1  and  C_16
REMARK    3  A    between atoms: C_21  and  N_22
REMARK                            x       y       z     vdW  Elec       q    Type
REMARK                         _______ _______ _______ _____ _____    ______ ____
ROOT
ATOM      1  S   UNL     1     -34.976  25.626   4.600  0.00  0.00    +0.075 S 
ATOM      2  O   UNL     1     -33.720  25.051   5.042  0.00  0.00    -0.150 OA
ATOM      3  O   UNL     1     -35.829  26.312   5.551  0.00  0.00    -0.150 OA
ENDROOT
BRANCH   1   4
ATOM      4  N   UNL     1     -34.684  26.637   3.234  0.00  0.00    -0.191 N 
ATOM      5  N   UNL     1     -33.005  27.888   4.335  0.00  0.00    -0.391 NA
ATOM      6  N   UNL     1     -33.690  30.158   2.886  0.00  0.00    -0.263 NA
ATOM      7  C   UNL     1     -33.997  27.871   3.426  0.00  0.00    +0.200 C 
ATOM      8  C   UNL     1     -32.349  29.046   4.524  0.00  0.00    +0.128 C 
ATOM      9  C   UNL     1     -32.696  30.195   3.790  0.00  0.00    +0.084 C 
ATOM     10  C   UNL     1     -34.334  28.990   2.711  0.00  0.00    +0.201 C 
ATOM     11  C   UNL     1     -31.313  29.122   5.451  0.00  0.00    +0.086 C 
ATOM     12  C   UNL     1     -31.993  31.377   4.011  0.00  0.00    +0.073 C 
ATOM     13  C   UNL     1     -30.617  30.309   5.665  0.00  0.00    -0.023 C 
ATOM     14  C   UNL     1     -30.959  31.442   4.942  0.00  0.00    -0.024 C 
ATOM     15  H   UNL     1     -34.988  26.368   2.337  0.00  0.00    +0.176 HD
ENDBRANCH   1   4
BRANCH   1  16
ATOM     16  C   UNL     1     -35.917  24.311   3.881  0.00  0.00    +0.125 C 
ATOM     17  C   UNL     1     -35.348  23.054   3.775  0.00  0.00    +0.021 C 
ATOM     18  C   UNL     1     -37.204  24.564   3.442  0.00  0.00    +0.021 C 
ATOM     19  C   UNL     1     -36.088  22.017   3.209  0.00  0.00    +0.015 C 
ATOM     20  C   UNL     1     -37.944  23.527   2.875  0.00  0.00    +0.015 C 
ATOM     21  C   UNL     1     -37.387  22.254   2.759  0.00  0.00    +0.042 C 
BRANCH  21  22
ATOM     22  N   UNL     1     -38.137  21.204   2.188  0.00  0.00    -0.357 N 
ATOM     23  H   UNL     1     -37.688  20.376   1.904  0.00  0.00    +0.142 HD
ATOM     24  H   UNL     1     -39.111  21.301   2.073  0.00  0.00    +0.142 HD
ENDBRANCH  21  22
ENDBRANCH   1  16
TORSDOF 3
ENDMDL
MODEL 8
REMARK VINA RESULT:      -6.2      4.441      7.848
REMARK  Name = 5338
REMARK  3 active torsions:
REMARK  status: ('A' for Active; 'I' for Inactive)
REMARK    1  A    between atoms: S_1  and  N_4
REMARK    2  A    between atoms: S_1  and  C_16
REMARK    3  A    between atoms: C_21  and  N_22
REMARK                            x       y       z     vdW  Elec       q    Type
REMARK                         _______ _______ _______ _____ _____    ______ ____
ROOT
ATOM      1  S   UNL     1     -34.631  25.440   2.588  0.00  0.00    +0.075 S 
ATOM      2  O   UNL     1     -35.538  26.274   1.821  0.00  0.00    -0.150 OA
ATOM      3  O   UNL     1     -33.223  25.400   2.244  0.00  0.00    -0.150 OA
ENDROOT
BRANCH   1   4
ATOM      4  N   UNL     1     -34.819  25.796   4.264  0.00  0.00    -0.191 N 
ATOM      5  N   UNL     1     -33.448  27.720   4.160  0.00  0.00    -0.391 NA
ATOM      6  N   UNL     1     -32.598  27.305   6.773  0.00  0.00    -0.263 NA
ATOM      7  C   UNL     1     -33.891  26.679   4.889  0.00  0.00    +0.200 C 
ATOM      8  C   UNL     1     -32.573  28.561   4.738  0.00  0.00    +0.128 C 
ATOM      9  C   UNL     1     -32.143  28.351   6.061  0.00  0.00    +0.084 C 
ATOM     10  C   UNL     1     -33.473  26.475   6.176  0.00  0.00    +0.201 C 
ATOM     11  C   UNL     1     -32.081  29.656   4.032  0.00  0.00    +0.086 C 
ATOM     12  C   UNL     1     -31.237  29.244   6.629  0.00  0.00    +0.073 C 
ATOM     13  C   UNL     1     -31.174  30.543   4.608  0.00  0.00    -0.023 C 
ATOM     14  C   UNL     1     -30.750  30.336   5.912  0.00  0.00    -0.024 C 
ATOM     15  H   UNL     1     -35.554  25.395   4.782  0.00  0.00    +0.176 HD
ENDBRANCH   1   4
BRANCH   1  16
ATOM     16  C   UNL     1     -35.256  23.787   2.496  0.00  0.00    +0.125 C 
ATOM     17  C   UNL     1     -35.205  22.984   3.621  0.00  0.00    +0.021 C 
ATOM     18  C   UNL     1     -35.784  23.330   1.302  0.00  0.00    +0.021 C 
ATOM     19  C   UNL     1     -35.697  21.680   3.550  0.00  0.00    +0.015 C 
ATOM     20  C   UNL     1     -36.275  22.027   1.230  0.00  0.00    +0.015 C 
ATOM     21  C   UNL     1     -36.232  21.203   2.354  0.00  0.00    +0.042 C 
BRANCH  21  22
ATOM     22  N   UNL     1     -36.732  19.885   2.282  0.00  0.00    -0.357 N 
ATOM     23  H   UNL     1     -37.572  19.704   1.802  0.00  0.00    +0.142 HD
ATOM     24  H   UNL     1     -36.241  19.148   2.712  0.00  0.00    +0.142 HD
ENDBRANCH  21  22
ENDBRANCH   1  16
TORSDOF 3
ENDMDL
MODEL 9
REMARK VINA RESULT:      -6.2      2.222      7.144
REMARK  Name = 5338
REMARK  3 active torsions:
REMARK  status: ('A' for Active; 'I' for Inactive)
REMARK    1  A    between atoms: S_1  and  N_4
REMARK    2  A    between atoms: S_1  and  C_16
REMARK    3  A    between atoms: C_21  and  N_22
REMARK                            x       y       z     vdW  Elec       q    Type
REMARK                         _______ _______ _______ _____ _____    ______ ____
ROOT
ATOM      1  S   UNL     1     -34.332  21.307   0.234  0.00  0.00    +0.075 S 
ATOM      2  O   UNL     1     -35.026  20.960  -0.992  0.00  0.00    -0.150 OA
ATOM      3  O   UNL     1     -33.716  22.613   0.368  0.00  0.00    -0.150 OA
ENDROOT
BRANCH   1   4
ATOM      4  N   UNL     1     -35.372  21.006   1.575  0.00  0.00    -0.191 N 
ATOM      5  N   UNL     1     -35.347  23.259   2.290  0.00  0.00    -0.391 NA
ATOM      6  N   UNL     1     -35.616  22.464   4.939  0.00  0.00    -0.263 NA
ATOM      7  C   UNL     1     -35.428  21.961   2.631  0.00  0.00    +0.200 C 
ATOM      8  C   UNL     1     -35.400  24.171   3.278  0.00  0.00    +0.128 C 
ATOM      9  C   UNL     1     -35.537  23.768   4.618  0.00  0.00    +0.084 C 
ATOM     10  C   UNL     1     -35.562  21.569   3.936  0.00  0.00    +0.201 C 
ATOM     11  C   UNL     1     -35.321  25.530   2.984  0.00  0.00    +0.086 C 
ATOM     12  C   UNL     1     -35.589  24.739   5.616  0.00  0.00    +0.073 C 
ATOM     13  C   UNL     1     -35.373  26.493   3.988  0.00  0.00    -0.023 C 
ATOM     14  C   UNL     1     -35.508  26.096   5.310  0.00  0.00    -0.024 C 
ATOM     15  H   UNL     1     -35.917  20.187   1.612  0.00  0.00    +0.176 HD
ENDBRANCH   1   4
BRANCH   1  16
ATOM     16  C   UNL     1     -33.071  20.089   0.472  0.00  0.00    +0.125 C 
ATOM     17  C   UNL     1     -31.825  20.289  -0.095  0.00  0.00    +0.021 C 
ATOM     18  C   UNL     1     -33.356  18.961   1.220  0.00  0.00    +0.021 C 
ATOM     19  C   UNL     1     -30.830  19.329   0.092  0.00  0.00    +0.015 C 
ATOM     20  C   UNL     1     -32.362  18.000   1.406  0.00  0.00    +0.015 C 
ATOM     21  C   UNL     1     -31.099  18.185   0.843  0.00  0.00    +0.042 C 
BRANCH  21  22
ATOM     22  N   UNL     1     -30.093  17.214   1.034  0.00  0.00    -0.357 N 
ATOM     23  H   UNL     1     -29.146  17.481   1.036  0.00  0.00    +0.142 HD
ATOM     24  H   UNL     1     -30.339  16.269   1.164  0.00  0.00    +0.142 HD
ENDBRANCH  21  22
ENDBRANCH   1  16
TORSDOF 3
ENDMDL
