MODEL 1
REMARK VINA RESULT:      -5.5      0.000      0.000
REMARK  Name = 195965
REMARK  10 active torsions:
REMARK  status: ('A' for Active; 'I' for Inactive)
REMARK    1  A    between atoms: C_2  and  O_3
REMARK    2  A    between atoms: C_2  and  C_13
REMARK    3  A    between atoms: O_3  and  C_4
REMARK    4  A    between atoms: C_7  and  N_12
REMARK    5  A    between atoms: C_13  and  C_14
REMARK    6  A    between atoms: C_14  and  S_15
REMARK    7  A    between atoms: S_15  and  C_18
REMARK    8  A    between atoms: C_18  and  C_19
REMARK    9  A    between atoms: C_19  and  C_21
REMARK   10  A    between atoms: C_21  and  C_23
REMARK                            x       y       z     vdW  Elec       q    Type
REMARK                         _______ _______ _______ _____ _____    ______ ____
ROOT
ATOM      1  O   UNL     1     -37.303  24.010   1.451  0.00  0.00    -0.250 OA
ATOM      2  C   UNL     1     -37.854  23.562   2.448  0.00  0.00    +0.323 C 
ENDROOT
BRANCH   2   3
ATOM      3  O   UNL     1     -37.228  23.086   3.598  0.00  0.00    -0.424 OA
BRANCH   3   4
ATOM      4  C   UNL     1     -36.300  23.988   4.125  0.00  0.00    +0.149 C 
ATOM      5  C   UNL     1     -34.934  23.727   4.017  0.00  0.00    +0.039 C 
ATOM      6  C   UNL     1     -36.741  25.150   4.760  0.00  0.00    +0.039 C 
ATOM      7  C   UNL     1     -34.448  25.789   5.177  0.00  0.00    +0.143 C 
ATOM      8  C   UNL     1     -34.009  24.628   4.543  0.00  0.00    +0.027 C 
ATOM      9  C   UNL     1     -35.814  26.050   5.285  0.00  0.00    +0.027 C 
BRANCH   7  12
ATOM     10  O   UNL     1     -33.027  26.490   6.852  0.00  0.00    -0.126 OA
ATOM     11  O   UNL     1     -33.177  27.708   5.032  0.00  0.00    -0.126 OA
ATOM     12  N   UNL     1     -33.505  26.706   5.713  0.00  0.00    +0.058 N 
ENDBRANCH   7  12
ENDBRANCH   3   4
ENDBRANCH   2   3
BRANCH   2  13
ATOM     13  C   UNL     1     -39.351  23.467   2.653  0.00  0.00    +0.135 C 
BRANCH  13  14
ATOM     14  C   UNL     1     -40.006  24.820   2.878  0.00  0.00    +0.163 C 
BRANCH  14  15
ATOM     15  S   UNL     1     -41.082  25.278   1.539  0.00  0.00    -0.009 S 
ATOM     16  O   UNL     1     -40.310  26.087   0.612  0.00  0.00    -0.173 OA
ATOM     17  O   UNL     1     -41.755  24.072   1.085  0.00  0.00    -0.173 OA
BRANCH  15  18
ATOM     18  C   UNL     1     -42.279  26.319   2.316  0.00  0.00    +0.159 C 
BRANCH  18  19
ATOM     19  C   UNL     1     -41.760  26.916   3.614  0.00  0.00    +0.091 C 
BRANCH  19  21
ATOM     20  O   UNL     1     -42.087  29.006   4.785  0.00  0.00    -0.295 OA
ATOM     21  C   UNL     1     -42.574  28.106   4.101  0.00  0.00    +0.164 C 
BRANCH  21  23
ATOM     22 BR   UNL     1     -44.905  29.327   4.957  0.00  0.00    -0.072 Br
ATOM     23  C   UNL     1     -44.028  28.132   3.716  0.00  0.00    +0.132 C 
ENDBRANCH  21  23
ENDBRANCH  19  21
ENDBRANCH  18  19
ENDBRANCH  15  18
ENDBRANCH  14  15
ENDBRANCH  13  14
ENDBRANCH   2  13
TORSDOF 10
ENDMDL
MODEL 2
REMARK VINA RESULT:      -5.4      5.051      7.665
REMARK  Name = 195965
REMARK  10 active torsions:
REMARK  status: ('A' for Active; 'I' for Inactive)
REMARK    1  A    between atoms: C_2  and  O_3
REMARK    2  A    between atoms: C_2  and  C_13
REMARK    3  A    between atoms: O_3  and  C_4
REMARK    4  A    between atoms: C_7  and  N_12
REMARK    5  A    between atoms: C_13  and  C_14
REMARK    6  A    between atoms: C_14  and  S_15
REMARK    7  A    between atoms: S_15  and  C_18
REMARK    8  A    between atoms: C_18  and  C_19
REMARK    9  A    between atoms: C_19  and  C_21
REMARK   10  A    between atoms: C_21  and  C_23
REMARK                            x       y       z     vdW  Elec       q    Type
REMARK                         _______ _______ _______ _____ _____    ______ ____
ROOT
ATOM      1  O   UNL     1     -38.674  24.284   3.354  0.00  0.00    -0.250 OA
ATOM      2  C   UNL     1     -37.780  23.490   3.094  0.00  0.00    +0.323 C 
ENDROOT
BRANCH   2   3
ATOM      3  O   UNL     1     -36.775  23.060   3.958  0.00  0.00    -0.424 OA
BRANCH   3   4
ATOM      4  C   UNL     1     -35.868  24.072   4.283  0.00  0.00    +0.149 C 
ATOM      5  C   UNL     1     -34.918  24.483   3.348  0.00  0.00    +0.039 C 
ATOM      6  C   UNL     1     -35.912  24.670   5.543  0.00  0.00    +0.039 C 
ATOM      7  C   UNL     1     -34.057  26.092   4.932  0.00  0.00    +0.143 C 
ATOM      8  C   UNL     1     -34.013  25.494   3.673  0.00  0.00    +0.027 C 
ATOM      9  C   UNL     1     -35.007  25.681   5.866  0.00  0.00    +0.027 C 
BRANCH   7  12
ATOM     10  O   UNL     1     -32.452  27.011   6.308  0.00  0.00    -0.126 OA
ATOM     11  O   UNL     1     -33.031  28.111   4.498  0.00  0.00    -0.126 OA
ATOM     12  N   UNL     1     -33.136  27.121   5.261  0.00  0.00    +0.058 N 
ENDBRANCH   7  12
ENDBRANCH   3   4
ENDBRANCH   2   3
BRANCH   2  13
ATOM     13  C   UNL     1     -37.601  22.775   1.771  0.00  0.00    +0.135 C 
BRANCH  13  14
ATOM     14  C   UNL     1     -37.444  21.271   1.927  0.00  0.00    +0.163 C 
BRANCH  14  15
ATOM     15  S   UNL     1     -35.784  20.730   1.593  0.00  0.00    -0.009 S 
ATOM     16  O   UNL     1     -35.139  21.757   0.795  0.00  0.00    -0.173 OA
ATOM     17  O   UNL     1     -35.201  20.297   2.852  0.00  0.00    -0.173 OA
BRANCH  15  18
ATOM     18  C   UNL     1     -36.017  19.306   0.574  0.00  0.00    +0.159 C 
BRANCH  18  19
ATOM     19  C   UNL     1     -34.778  18.975  -0.240  0.00  0.00    +0.091 C 
BRANCH  19  21
ATOM     20  O   UNL     1     -34.163  16.673   0.167  0.00  0.00    -0.295 OA
ATOM     21  C   UNL     1     -33.932  17.865   0.367  0.00  0.00    +0.164 C 
BRANCH  21  23
ATOM     22 BR   UNL     1     -31.919  19.764   0.343  0.00  0.00    -0.072 Br
ATOM     23  C   UNL     1     -32.789  18.292   1.247  0.00  0.00    +0.132 C 
ENDBRANCH  21  23
ENDBRANCH  19  21
ENDBRANCH  18  19
ENDBRANCH  15  18
ENDBRANCH  14  15
ENDBRANCH  13  14
ENDBRANCH   2  13
TORSDOF 10
ENDMDL
MODEL 3
REMARK VINA RESULT:      -5.3      5.701      7.839
REMARK  Name = 195965
REMARK  10 active torsions:
REMARK  status: ('A' for Active; 'I' for Inactive)
REMARK    1  A    between atoms: C_2  and  O_3
REMARK    2  A    between atoms: C_2  and  C_13
REMARK    3  A    between atoms: O_3  and  C_4
REMARK    4  A    between atoms: C_7  and  N_12
REMARK    5  A    between atoms: C_13  and  C_14
REMARK    6  A    between atoms: C_14  and  S_15
REMARK    7  A    between atoms: S_15  and  C_18
REMARK    8  A    between atoms: C_18  and  C_19
REMARK    9  A    between atoms: C_19  and  C_21
REMARK   10  A    between atoms: C_21  and  C_23
REMARK                            x       y       z     vdW  Elec       q    Type
REMARK                         _______ _______ _______ _____ _____    ______ ____
ROOT
ATOM      1  O   UNL     1     -35.238  20.638   3.816  0.00  0.00    -0.250 OA
ATOM      2  C   UNL     1     -35.369  21.153   2.714  0.00  0.00    +0.323 C 
ENDROOT
BRANCH   2   3
ATOM      3  O   UNL     1     -35.345  20.499   1.483  0.00  0.00    -0.424 OA
BRANCH   3   4
ATOM      4  C   UNL     1     -34.056  20.140   1.084  0.00  0.00    +0.149 C 
ATOM      5  C   UNL     1     -33.520  18.914   1.478  0.00  0.00    +0.039 C 
ATOM      6  C   UNL     1     -33.304  21.008   0.291  0.00  0.00    +0.039 C 
ATOM      7  C   UNL     1     -31.481  19.422   0.286  0.00  0.00    +0.143 C 
ATOM      8  C   UNL     1     -32.232  18.555   1.079  0.00  0.00    +0.027 C 
ATOM      9  C   UNL     1     -32.017  20.648  -0.108  0.00  0.00    +0.027 C 
BRANCH   7  12
ATOM     10  O   UNL     1     -29.405  19.942  -0.573  0.00  0.00    -0.126 OA
ATOM     11  O   UNL     1     -29.813  17.858  -0.015  0.00  0.00    -0.126 OA
ATOM     12  N   UNL     1     -30.170  19.057  -0.120  0.00  0.00    +0.058 N 
ENDBRANCH   7  12
ENDBRANCH   3   4
ENDBRANCH   2   3
BRANCH   2  13
ATOM     13  C   UNL     1     -35.620  22.625   2.460  0.00  0.00    +0.135 C 
BRANCH  13  14
ATOM     14  C   UNL     1     -34.989  23.524   3.511  0.00  0.00    +0.163 C 
BRANCH  14  15
ATOM     15  S   UNL     1     -36.142  23.982   4.785  0.00  0.00    -0.009 S 
ATOM     16  O   UNL     1     -37.449  24.118   4.166  0.00  0.00    -0.173 OA
ATOM     17  O   UNL     1     -35.943  23.076   5.904  0.00  0.00    -0.173 OA
BRANCH  15  18
ATOM     18  C   UNL     1     -35.592  25.589   5.271  0.00  0.00    +0.159 C 
BRANCH  18  19
ATOM     19  C   UNL     1     -34.130  25.821   4.931  0.00  0.00    +0.091 C 
BRANCH  19  21
ATOM     20  O   UNL     1     -34.803  27.836   3.777  0.00  0.00    -0.295 OA
ATOM     21  C   UNL     1     -33.892  27.074   4.100  0.00  0.00    +0.164 C 
BRANCH  21  23
ATOM     22 BR   UNL     1     -32.007  29.081   4.375  0.00  0.00    -0.072 Br
ATOM     23  C   UNL     1     -32.474  27.341   3.673  0.00  0.00    +0.132 C 
ENDBRANCH  21  23
ENDBRANCH  19  21
ENDBRANCH  18  19
ENDBRANCH  15  18
ENDBRANCH  14  15
ENDBRANCH  13  14
ENDBRANCH   2  13
TORSDOF 10
ENDMDL
MODEL 4
REMARK VINA RESULT:      -5.2      5.464      7.817
REMARK  Name = 195965
REMARK  10 active torsions:
REMARK  status: ('A' for Active; 'I' for Inactive)
REMARK    1  A    between atoms: C_2  and  O_3
REMARK    2  A    between atoms: C_2  and  C_13
REMARK    3  A    between atoms: O_3  and  C_4
REMARK    4  A    between atoms: C_7  and  N_12
REMARK    5  A    between atoms: C_13  and  C_14
REMARK    6  A    between atoms: C_14  and  S_15
REMARK    7  A    between atoms: S_15  and  C_18
REMARK    8  A    between atoms: C_18  and  C_19
REMARK    9  A    between atoms: C_19  and  C_21
REMARK   10  A    between atoms: C_21  and  C_23
REMARK                            x       y       z     vdW  Elec       q    Type
REMARK                         _______ _______ _______ _____ _____    ______ ____
ROOT
ATOM      1  O   UNL     1     -31.915  24.637   0.344  0.00  0.00    -0.250 OA
ATOM      2  C   UNL     1     -33.091  24.435   0.616  0.00  0.00    +0.323 C 
ENDROOT
BRANCH   2   3
ATOM      3  O   UNL     1     -33.957  23.561  -0.039  0.00  0.00    -0.424 OA
BRANCH   3   4
ATOM      4  C   UNL     1     -33.690  22.219   0.243  0.00  0.00    +0.149 C 
ATOM      5  C   UNL     1     -34.555  21.493   1.062  0.00  0.00    +0.039 C 
ATOM      6  C   UNL     1     -32.557  21.605  -0.294  0.00  0.00    +0.039 C 
ATOM      7  C   UNL     1     -33.156  19.540   0.807  0.00  0.00    +0.143 C 
ATOM      8  C   UNL     1     -34.288  20.153   1.343  0.00  0.00    +0.027 C 
ATOM      9  C   UNL     1     -32.291  20.266  -0.012  0.00  0.00    +0.027 C 
BRANCH   7  12
ATOM     10  O   UNL     1     -33.670  17.296   0.664  0.00  0.00    -0.126 OA
ATOM     11  O   UNL     1     -31.868  17.887   1.770  0.00  0.00    -0.126 OA
ATOM     12  N   UNL     1     -32.885  18.176   1.094  0.00  0.00    +0.058 N 
ENDBRANCH   7  12
ENDBRANCH   3   4
ENDBRANCH   2   3
BRANCH   2  13
ATOM     13  C   UNL     1     -33.847  25.076   1.761  0.00  0.00    +0.135 C 
BRANCH  13  14
ATOM     14  C   UNL     1     -32.937  25.800   2.740  0.00  0.00    +0.163 C 
BRANCH  14  15
ATOM     15  S   UNL     1     -33.844  26.855   3.848  0.00  0.00    -0.009 S 
ATOM     16  O   UNL     1     -32.954  27.924   4.264  0.00  0.00    -0.173 OA
ATOM     17  O   UNL     1     -35.120  27.156   3.221  0.00  0.00    -0.173 OA
BRANCH  15  18
ATOM     18  C   UNL     1     -34.147  25.814   5.243  0.00  0.00    +0.159 C 
BRANCH  18  19
ATOM     19  C   UNL     1     -35.632  25.600   5.485  0.00  0.00    +0.091 C 
BRANCH  19  21
ATOM     20  O   UNL     1     -37.355  24.292   4.406  0.00  0.00    -0.295 OA
ATOM     21  C   UNL     1     -36.188  24.366   4.789  0.00  0.00    +0.164 C 
BRANCH  21  23
ATOM     22 BR   UNL     1     -35.312  22.162   6.214  0.00  0.00    -0.072 Br
ATOM     23  C   UNL     1     -35.237  23.216   4.595  0.00  0.00    +0.132 C 
ENDBRANCH  21  23
ENDBRANCH  19  21
ENDBRANCH  18  19
ENDBRANCH  15  18
ENDBRANCH  14  15
ENDBRANCH  13  14
ENDBRANCH   2  13
TORSDOF 10
ENDMDL
MODEL 5
REMARK VINA RESULT:      -5.2      3.464      4.114
REMARK  Name = 195965
REMARK  10 active torsions:
REMARK  status: ('A' for Active; 'I' for Inactive)
REMARK    1  A    between atoms: C_2  and  O_3
REMARK    2  A    between atoms: C_2  and  C_13
REMARK    3  A    between atoms: O_3  and  C_4
REMARK    4  A    between atoms: C_7  and  N_12
REMARK    5  A    between atoms: C_13  and  C_14
REMARK    6  A    between atoms: C_14  and  S_15
REMARK    7  A    between atoms: S_15  and  C_18
REMARK    8  A    between atoms: C_18  and  C_19
REMARK    9  A    between atoms: C_19  and  C_21
REMARK   10  A    between atoms: C_21  and  C_23
REMARK                            x       y       z     vdW  Elec       q    Type
REMARK                         _______ _______ _______ _____ _____    ______ ____
ROOT
ATOM      1  O   UNL     1     -35.532  21.357   0.354  0.00  0.00    -0.250 OA
ATOM      2  C   UNL     1     -36.029  21.174   1.458  0.00  0.00    +0.323 C 
ENDROOT
BRANCH   2   3
ATOM      3  O   UNL     1     -35.344  21.024   2.662  0.00  0.00    -0.424 OA
BRANCH   3   4
ATOM      4  C   UNL     1     -35.277  22.209   3.399  0.00  0.00    +0.149 C 
ATOM      5  C   UNL     1     -34.905  23.399   2.775  0.00  0.00    +0.039 C 
ATOM      6  C   UNL     1     -35.581  22.200   4.761  0.00  0.00    +0.039 C 
ATOM      7  C   UNL     1     -35.142  24.573   4.873  0.00  0.00    +0.143 C 
ATOM      8  C   UNL     1     -34.839  24.581   3.512  0.00  0.00    +0.027 C 
ATOM      9  C   UNL     1     -35.514  23.382   5.498  0.00  0.00    +0.027 C 
BRANCH   7  12
ATOM     10  O   UNL     1     -36.097  26.499   5.708  0.00  0.00    -0.126 OA
ATOM     11  O   UNL     1     -33.993  26.086   6.180  0.00  0.00    -0.126 OA
ATOM     12  N   UNL     1     -35.074  25.777   5.623  0.00  0.00    +0.058 N 
ENDBRANCH   7  12
ENDBRANCH   3   4
ENDBRANCH   2   3
BRANCH   2  13
ATOM     13  C   UNL     1     -37.513  21.108   1.748  0.00  0.00    +0.135 C 
BRANCH  13  14
ATOM     14  C   UNL     1     -38.364  21.108   0.489  0.00  0.00    +0.163 C 
BRANCH  14  15
ATOM     15  S   UNL     1     -40.078  21.433   0.834  0.00  0.00    -0.009 S 
ATOM     16  O   UNL     1     -40.864  20.821  -0.222  0.00  0.00    -0.173 OA
ATOM     17  O   UNL     1     -40.317  21.092   2.227  0.00  0.00    -0.173 OA
BRANCH  15  18
ATOM     18  C   UNL     1     -40.200  23.187   0.667  0.00  0.00    +0.159 C 
BRANCH  18  19
ATOM     19  C   UNL     1     -40.208  23.891   2.014  0.00  0.00    +0.091 C 
BRANCH  19  21
ATOM     20  O   UNL     1     -38.487  24.450   3.618  0.00  0.00    -0.295 OA
ATOM     21  C   UNL     1     -38.838  24.400   2.439  0.00  0.00    +0.164 C 
BRANCH  21  23
ATOM     22 BR   UNL     1     -37.391  26.666   1.785  0.00  0.00    -0.072 Br
ATOM     23  C   UNL     1     -37.919  24.860   1.341  0.00  0.00    +0.132 C 
ENDBRANCH  21  23
ENDBRANCH  19  21
ENDBRANCH  18  19
ENDBRANCH  15  18
ENDBRANCH  14  15
ENDBRANCH  13  14
ENDBRANCH   2  13
TORSDOF 10
ENDMDL
MODEL 6
REMARK VINA RESULT:      -5.2      4.190      5.837
REMARK  Name = 195965
REMARK  10 active torsions:
REMARK  status: ('A' for Active; 'I' for Inactive)
REMARK    1  A    between atoms: C_2  and  O_3
REMARK    2  A    between atoms: C_2  and  C_13
REMARK    3  A    between atoms: O_3  and  C_4
REMARK    4  A    between atoms: C_7  and  N_12
REMARK    5  A    between atoms: C_13  and  C_14
REMARK    6  A    between atoms: C_14  and  S_15
REMARK    7  A    between atoms: S_15  and  C_18
REMARK    8  A    between atoms: C_18  and  C_19
REMARK    9  A    between atoms: C_19  and  C_21
REMARK   10  A    between atoms: C_21  and  C_23
REMARK                            x       y       z     vdW  Elec       q    Type
REMARK                         _______ _______ _______ _____ _____    ______ ____
ROOT
ATOM      1  O   UNL     1     -38.861  26.143   3.042  0.00  0.00    -0.250 OA
ATOM      2  C   UNL     1     -38.800  24.925   3.151  0.00  0.00    +0.323 C 
ENDROOT
BRANCH   2   3
ATOM      3  O   UNL     1     -37.856  24.202   3.878  0.00  0.00    -0.424 OA
BRANCH   3   4
ATOM      4  C   UNL     1     -36.667  24.908   4.076  0.00  0.00    +0.149 C 
ATOM      5  C   UNL     1     -35.827  25.178   2.996  0.00  0.00    +0.039 C 
ATOM      6  C   UNL     1     -36.320  25.342   5.356  0.00  0.00    +0.039 C 
ATOM      7  C   UNL     1     -34.293  26.317   4.474  0.00  0.00    +0.143 C 
ATOM      8  C   UNL     1     -34.641  25.883   3.195  0.00  0.00    +0.027 C 
ATOM      9  C   UNL     1     -35.133  26.047   5.554  0.00  0.00    +0.027 C 
BRANCH   7  12
ATOM     10  O   UNL     1     -32.202  27.002   3.783  0.00  0.00    -0.126 OA
ATOM     11  O   UNL     1     -32.931  27.680   5.741  0.00  0.00    -0.126 OA
ATOM     12  N   UNL     1     -33.084  27.034   4.676  0.00  0.00    +0.058 N 
ENDBRANCH   7  12
ENDBRANCH   3   4
ENDBRANCH   2   3
BRANCH   2  13
ATOM     13  C   UNL     1     -39.776  23.943   2.537  0.00  0.00    +0.135 C 
BRANCH  13  14
ATOM     14  C   UNL     1     -39.310  23.407   1.193  0.00  0.00    +0.163 C 
BRANCH  14  15
ATOM     15  S   UNL     1     -39.503  21.644   1.068  0.00  0.00    -0.009 S 
ATOM     16  O   UNL     1     -40.207  21.193   2.256  0.00  0.00    -0.173 OA
ATOM     17  O   UNL     1     -40.026  21.353  -0.257  0.00  0.00    -0.173 OA
BRANCH  15  18
ATOM     18  C   UNL     1     -37.843  21.046   1.149  0.00  0.00    +0.159 C 
BRANCH  18  19
ATOM     19  C   UNL     1     -36.829  22.178   1.187  0.00  0.00    +0.091 C 
BRANCH  19  21
ATOM     20  O   UNL     1     -34.419  22.367   1.231  0.00  0.00    -0.295 OA
ATOM     21  C   UNL     1     -35.420  21.717   1.531  0.00  0.00    +0.164 C 
BRANCH  21  23
ATOM     22 BR   UNL     1     -33.953  19.380   1.319  0.00  0.00    -0.072 Br
ATOM     23  C   UNL     1     -35.298  20.405   2.257  0.00  0.00    +0.132 C 
ENDBRANCH  21  23
ENDBRANCH  19  21
ENDBRANCH  18  19
ENDBRANCH  15  18
ENDBRANCH  14  15
ENDBRANCH  13  14
ENDBRANCH   2  13
TORSDOF 10
ENDMDL
MODEL 7
REMARK VINA RESULT:      -5.2      2.809      3.452
REMARK  Name = 195965
REMARK  10 active torsions:
REMARK  status: ('A' for Active; 'I' for Inactive)
REMARK    1  A    between atoms: C_2  and  O_3
REMARK    2  A    between atoms: C_2  and  C_13
REMARK    3  A    between atoms: O_3  and  C_4
REMARK    4  A    between atoms: C_7  and  N_12
REMARK    5  A    between atoms: C_13  and  C_14
REMARK    6  A    between atoms: C_14  and  S_15
REMARK    7  A    between atoms: S_15  and  C_18
REMARK    8  A    between atoms: C_18  and  C_19
REMARK    9  A    between atoms: C_19  and  C_21
REMARK   10  A    between atoms: C_21  and  C_23
REMARK                            x       y       z     vdW  Elec       q    Type
REMARK                         _______ _______ _______ _____ _____    ______ ____
ROOT
ATOM      1  O   UNL     1     -37.027  23.807   1.557  0.00  0.00    -0.250 OA
ATOM      2  C   UNL     1     -37.147  22.910   2.381  0.00  0.00    +0.323 C 
ENDROOT
BRANCH   2   3
ATOM      3  O   UNL     1     -37.183  23.054   3.766  0.00  0.00    -0.424 OA
BRANCH   3   4
ATOM      4  C   UNL     1     -36.255  23.984   4.240  0.00  0.00    +0.149 C 
ATOM      5  C   UNL     1     -34.889  23.714   4.152  0.00  0.00    +0.039 C 
ATOM      6  C   UNL     1     -36.695  25.183   4.802  0.00  0.00    +0.039 C 
ATOM      7  C   UNL     1     -34.402  25.842   5.187  0.00  0.00    +0.143 C 
ATOM      8  C   UNL     1     -33.963  24.643   4.625  0.00  0.00    +0.027 C 
ATOM      9  C   UNL     1     -35.768  26.112   5.275  0.00  0.00    +0.027 C 
BRANCH   7  12
ATOM     10  O   UNL     1     -32.951  26.616   6.803  0.00  0.00    -0.126 OA
ATOM     11  O   UNL     1     -33.159  27.769   4.946  0.00  0.00    -0.126 OA
ATOM     12  N   UNL     1     -33.459  26.787   5.668  0.00  0.00    +0.058 N 
ENDBRANCH   7  12
ENDBRANCH   3   4
ENDBRANCH   2   3
BRANCH   2  13
ATOM     13  C   UNL     1     -37.318  21.441   2.055  0.00  0.00    +0.135 C 
BRANCH  13  14
ATOM     14  C   UNL     1     -37.920  21.206   0.679  0.00  0.00    +0.163 C 
BRANCH  14  15
ATOM     15  S   UNL     1     -39.692  21.347   0.686  0.00  0.00    -0.009 S 
ATOM     16  O   UNL     1     -40.221  20.284  -0.150  0.00  0.00    -0.173 OA
ATOM     17  O   UNL     1     -40.116  21.479   2.071  0.00  0.00    -0.173 OA
BRANCH  15  18
ATOM     18  C   UNL     1     -39.981  22.887  -0.129  0.00  0.00    +0.159 C 
BRANCH  18  19
ATOM     19  C   UNL     1     -40.770  23.854   0.739  0.00  0.00    +0.091 C 
BRANCH  19  21
ATOM     20  O   UNL     1     -40.806  25.767  -0.740  0.00  0.00    -0.295 OA
ATOM     21  C   UNL     1     -40.546  25.314   0.375  0.00  0.00    +0.164 C 
BRANCH  21  23
ATOM     22 BR   UNL     1     -40.079  25.193   3.100  0.00  0.00    -0.072 Br
ATOM     23  C   UNL     1     -39.972  26.197   1.450  0.00  0.00    +0.132 C 
ENDBRANCH  21  23
ENDBRANCH  19  21
ENDBRANCH  18  19
ENDBRANCH  15  18
ENDBRANCH  14  15
ENDBRANCH  13  14
ENDBRANCH   2  13
TORSDOF 10
ENDMDL
MODEL 8
REMARK VINA RESULT:      -5.1      6.139      9.555
REMARK  Name = 195965
REMARK  10 active torsions:
REMARK  status: ('A' for Active; 'I' for Inactive)
REMARK    1  A    between atoms: C_2  and  O_3
REMARK    2  A    between atoms: C_2  and  C_13
REMARK    3  A    between atoms: O_3  and  C_4
REMARK    4  A    between atoms: C_7  and  N_12
REMARK    5  A    between atoms: C_13  and  C_14
REMARK    6  A    between atoms: C_14  and  S_15
REMARK    7  A    between atoms: S_15  and  C_18
REMARK    8  A    between atoms: C_18  and  C_19
REMARK    9  A    between atoms: C_19  and  C_21
REMARK   10  A    between atoms: C_21  and  C_23
REMARK                            x       y       z     vdW  Elec       q    Type
REMARK                         _______ _______ _______ _____ _____    ______ ____
ROOT
ATOM      1  O   UNL     1     -34.524  27.279   1.889  0.00  0.00    -0.250 OA
ATOM      2  C   UNL     1     -34.295  27.811   2.967  0.00  0.00    +0.323 C 
ENDROOT
BRANCH   2   3
ATOM      3  O   UNL     1     -34.984  27.600   4.160  0.00  0.00    -0.424 OA
BRANCH   3   4
ATOM      4  C   UNL     1     -35.142  26.246   4.463  0.00  0.00    +0.149 C 
ATOM      5  C   UNL     1     -36.359  25.612   4.212  0.00  0.00    +0.039 C 
ATOM      6  C   UNL     1     -34.083  25.528   5.019  0.00  0.00    +0.039 C 
ATOM      7  C   UNL     1     -35.457  23.541   5.070  0.00  0.00    +0.143 C 
ATOM      8  C   UNL     1     -36.516  24.259   4.515  0.00  0.00    +0.027 C 
ATOM      9  C   UNL     1     -34.240  24.175   5.322  0.00  0.00    +0.027 C 
BRANCH   7  12
ATOM     10  O   UNL     1     -36.017  21.841   6.524  0.00  0.00    -0.126 OA
ATOM     11  O   UNL     1     -35.354  21.309   4.499  0.00  0.00    -0.126 OA
ATOM     12  N   UNL     1     -35.618  22.165   5.379  0.00  0.00    +0.058 N 
ENDBRANCH   7  12
ENDBRANCH   3   4
ENDBRANCH   2   3
BRANCH   2  13
ATOM     13  C   UNL     1     -33.177  28.796   3.237  0.00  0.00    +0.135 C 
BRANCH  13  14
ATOM     14  C   UNL     1     -31.953  28.146   3.860  0.00  0.00    +0.163 C 
BRANCH  14  15
ATOM     15  S   UNL     1     -31.745  28.601   5.567  0.00  0.00    -0.009 S 
ATOM     16  O   UNL     1     -32.398  29.884   5.762  0.00  0.00    -0.173 OA
ATOM     17  O   UNL     1     -32.116  27.452   6.376  0.00  0.00    -0.173 OA
BRANCH  15  18
ATOM     18  C   UNL     1     -30.002  28.841   5.715  0.00  0.00    +0.159 C 
BRANCH  18  19
ATOM     19  C   UNL     1     -29.632  29.578   6.991  0.00  0.00    +0.091 C 
BRANCH  19  21
ATOM     20  O   UNL     1     -27.905  29.105   8.616  0.00  0.00    -0.295 OA
ATOM     21  C   UNL     1     -28.200  29.328   7.443  0.00  0.00    +0.164 C 
BRANCH  21  23
ATOM     22 BR   UNL     1     -26.938  31.236   5.886  0.00  0.00    -0.072 Br
ATOM     23  C   UNL     1     -27.139  29.377   6.377  0.00  0.00    +0.132 C 
ENDBRANCH  21  23
ENDBRANCH  19  21
ENDBRANCH  18  19
ENDBRANCH  15  18
ENDBRANCH  14  15
ENDBRANCH  13  14
ENDBRANCH   2  13
TORSDOF 10
ENDMDL
MODEL 9
REMARK VINA RESULT:      -5.1      6.071      8.377
REMARK  Name = 195965
REMARK  10 active torsions:
REMARK  status: ('A' for Active; 'I' for Inactive)
REMARK    1  A    between atoms: C_2  and  O_3
REMARK    2  A    between atoms: C_2  and  C_13
REMARK    3  A    between atoms: O_3  and  C_4
REMARK    4  A    between atoms: C_7  and  N_12
REMARK    5  A    between atoms: C_13  and  C_14
REMARK    6  A    between atoms: C_14  and  S_15
REMARK    7  A    between atoms: S_15  and  C_18
REMARK    8  A    between atoms: C_18  and  C_19
REMARK    9  A    between atoms: C_19  and  C_21
REMARK   10  A    between atoms: C_21  and  C_23
REMARK                            x       y       z     vdW  Elec       q    Type
REMARK                         _______ _______ _______ _____ _____    ______ ____
ROOT
ATOM      1  O   UNL     1     -35.172  21.002   4.947  0.00  0.00    -0.250 OA
ATOM      2  C   UNL     1     -35.659  21.767   4.125  0.00  0.00    +0.323 C 
ENDROOT
BRANCH   2   3
ATOM      3  O   UNL     1     -36.388  22.924   4.397  0.00  0.00    -0.424 OA
BRANCH   3   4
ATOM      4  C   UNL     1     -35.594  24.072   4.425  0.00  0.00    +0.149 C 
ATOM      5  C   UNL     1     -35.277  24.731   3.237  0.00  0.00    +0.039 C 
ATOM      6  C   UNL     1     -35.116  24.560   5.643  0.00  0.00    +0.039 C 
ATOM      7  C   UNL     1     -34.007  26.366   4.483  0.00  0.00    +0.143 C 
ATOM      8  C   UNL     1     -34.484  25.878   3.267  0.00  0.00    +0.027 C 
ATOM      9  C   UNL     1     -34.323  25.706   5.671  0.00  0.00    +0.027 C 
BRANCH   7  12
ATOM     10  O   UNL     1     -33.687  28.619   4.116  0.00  0.00    -0.126 OA
ATOM     11  O   UNL     1     -32.020  27.447   4.932  0.00  0.00    -0.126 OA
ATOM     12  N   UNL     1     -33.199  27.533   4.512  0.00  0.00    +0.058 N 
ENDBRANCH   7  12
ENDBRANCH   3   4
ENDBRANCH   2   3
BRANCH   2  13
ATOM     13  C   UNL     1     -35.537  21.630   2.621  0.00  0.00    +0.135 C 
BRANCH  13  14
ATOM     14  C   UNL     1     -35.928  20.250   2.119  0.00  0.00    +0.163 C 
BRANCH  14  15
ATOM     15  S   UNL     1     -35.477  20.001   0.417  0.00  0.00    -0.009 S 
ATOM     16  O   UNL     1     -36.682  19.644  -0.310  0.00  0.00    -0.173 OA
ATOM     17  O   UNL     1     -34.674  21.140   0.005  0.00  0.00    -0.173 OA
BRANCH  15  18
ATOM     18  C   UNL     1     -34.428  18.581   0.478  0.00  0.00    +0.159 C 
BRANCH  18  19
ATOM     19  C   UNL     1     -33.314  18.736   1.500  0.00  0.00    +0.091 C 
BRANCH  19  21
ATOM     20  O   UNL     1     -31.181  17.625   1.754  0.00  0.00    -0.295 OA
ATOM     21  C   UNL     1     -31.969  18.213   1.014  0.00  0.00    +0.164 C 
BRANCH  21  23
ATOM     22 BR   UNL     1     -31.007  20.286  -0.546  0.00  0.00    -0.072 Br
ATOM     23  C   UNL     1     -31.632  18.460  -0.431  0.00  0.00    +0.132 C 
ENDBRANCH  21  23
ENDBRANCH  19  21
ENDBRANCH  18  19
ENDBRANCH  15  18
ENDBRANCH  14  15
ENDBRANCH  13  14
ENDBRANCH   2  13
TORSDOF 10
ENDMDL
