MODEL 1
REMARK VINA RESULT:      -6.4      0.000      0.000
REMARK  Name = 5281951
REMARK  6 active torsions:
REMARK  status: ('A' for Active; 'I' for Inactive)
REMARK    1  A    between atoms: C_1  and  C_3
REMARK    2  A    between atoms: C_2  and  C_16
REMARK    3  A    between atoms: C_4  and  S_9
REMARK    4  A    between atoms: C_7  and  N_14
REMARK    5  A    between atoms: C_17  and  S_22
REMARK    6  A    between atoms: C_20  and  N_27
REMARK                            x       y       z     vdW  Elec       q    Type
REMARK                         _______ _______ _______ _____ _____    ______ ____
ROOT
ATOM      1  C   UNL     1     -36.144  23.848   3.391  0.00  0.00    +0.001 C 
ATOM      2  C   UNL     1     -36.134  25.170   3.681  0.00  0.00    +0.001 C 
ENDROOT
BRANCH   1   3
ATOM      3  C   UNL     1     -37.260  23.133   2.785  0.00  0.00    +0.018 C 
ATOM      4  C   UNL     1     -37.107  21.859   2.236  0.00  0.00    +0.114 C 
ATOM      5  C   UNL     1     -38.508  23.755   2.765  0.00  0.00    +0.003 C 
ATOM      6  C   UNL     1     -38.201  21.209   1.666  0.00  0.00    +0.039 C 
ATOM      7  C   UNL     1     -39.449  21.832   1.645  0.00  0.00    +0.092 C 
ATOM      8  C   UNL     1     -39.603  23.105   2.194  0.00  0.00    +0.020 C 
BRANCH   4   9
ATOM      9  S   UNL     1     -35.561  21.034   2.237  0.00  0.00    +0.042 S 
ATOM     10  O   UNL     1     -35.804  19.677   1.361  0.00  0.00    -0.065 OA
ATOM     11  O   UNL     1     -34.619  21.858   1.497  0.00  0.00    -0.065 OA
ATOM     12  O   UNL     1     -35.295  20.646   3.613  0.00  0.00    -0.065 OA
ENDBRANCH   4   9
BRANCH   7  14
ATOM     13  S   UNL     1     -40.378  20.913  -1.685  0.00  0.00    +0.021 S 
ATOM     14  N   UNL     1     -40.545  21.182   1.071  0.00  0.00    -0.196 NA
ATOM     15  C   UNL     1     -40.463  21.073  -0.102  0.00  0.00    +0.041 C 
ENDBRANCH   7  14
ENDBRANCH   1   3
BRANCH   2  16
ATOM     16  C   UNL     1     -35.013  25.889   4.312  0.00  0.00    +0.018 C 
ATOM     17  C   UNL     1     -34.229  26.774   3.589  0.00  0.00    +0.114 C 
ATOM     18  C   UNL     1     -34.771  25.647   5.656  0.00  0.00    +0.003 C 
ATOM     19  C   UNL     1     -33.176  27.433   4.224  0.00  0.00    +0.039 C 
ATOM     20  C   UNL     1     -32.922  27.199   5.576  0.00  0.00    +0.092 C 
ATOM     21  C   UNL     1     -33.718  26.306   6.291  0.00  0.00    +0.020 C 
BRANCH  17  22
ATOM     22  S   UNL     1     -34.508  27.102   1.890  0.00  0.00    +0.042 S 
ATOM     23  O   UNL     1     -33.365  28.194   1.478  0.00  0.00    -0.065 OA
ATOM     24  O   UNL     1     -34.221  25.883   1.151  0.00  0.00    -0.065 OA
ATOM     25  O   UNL     1     -35.807  27.744   1.796  0.00  0.00    -0.065 OA
ENDBRANCH  17  22
BRANCH  20  27
ATOM     26  S   UNL     1     -31.738  30.573   5.655  0.00  0.00    +0.021 S 
ATOM     27  N   UNL     1     -31.866  27.859   6.213  0.00  0.00    -0.196 NA
ATOM     28  C   UNL     1     -31.821  29.013   5.969  0.00  0.00    +0.041 C 
ENDBRANCH  20  27
ENDBRANCH   2  16
TORSDOF 6
ENDMDL
MODEL 2
REMARK VINA RESULT:      -6.4      0.226      8.548
REMARK  Name = 5281951
REMARK  6 active torsions:
REMARK  status: ('A' for Active; 'I' for Inactive)
REMARK    1  A    between atoms: C_1  and  C_3
REMARK    2  A    between atoms: C_2  and  C_16
REMARK    3  A    between atoms: C_4  and  S_9
REMARK    4  A    between atoms: C_7  and  N_14
REMARK    5  A    between atoms: C_17  and  S_22
REMARK    6  A    between atoms: C_20  and  N_27
REMARK                            x       y       z     vdW  Elec       q    Type
REMARK                         _______ _______ _______ _____ _____    ______ ____
ROOT
ATOM      1  C   UNL     1     -36.177  25.127   3.668  0.00  0.00    +0.001 C 
ATOM      2  C   UNL     1     -36.160  23.820   3.320  0.00  0.00    +0.001 C 
ENDROOT
BRANCH   1   3
ATOM      3  C   UNL     1     -35.067  25.844   4.283  0.00  0.00    +0.018 C 
ATOM      4  C   UNL     1     -34.295  26.760   3.566  0.00  0.00    +0.114 C 
ATOM      5  C   UNL     1     -34.785  25.596   5.625  0.00  0.00    +0.003 C 
ATOM      6  C   UNL     1     -33.241  27.424   4.191  0.00  0.00    +0.039 C 
ATOM      7  C   UNL     1     -32.958  27.175   5.534  0.00  0.00    +0.092 C 
ATOM      8  C   UNL     1     -33.730  26.261   6.252  0.00  0.00    +0.020 C 
BRANCH   4   9
ATOM      9  S   UNL     1     -34.609  27.107   1.877  0.00  0.00    +0.042 S 
ATOM     10  O   UNL     1     -33.504  28.238   1.465  0.00  0.00    -0.065 OA
ATOM     11  O   UNL     1     -34.299  25.910   1.113  0.00  0.00    -0.065 OA
ATOM     12  O   UNL     1     -35.928  27.714   1.813  0.00  0.00    -0.065 OA
ENDBRANCH   4   9
BRANCH   7  14
ATOM     13  S   UNL     1     -31.858  30.575   5.698  0.00  0.00    +0.021 S 
ATOM     14  N   UNL     1     -31.900  27.840   6.161  0.00  0.00    -0.196 NA
ATOM     15  C   UNL     1     -31.892  29.003   5.958  0.00  0.00    +0.041 C 
ENDBRANCH   7  14
ENDBRANCH   1   3
BRANCH   2  16
ATOM     16  C   UNL     1     -37.289  23.090   2.717  0.00  0.00    +0.018 C 
ATOM     17  C   UNL     1     -37.124  21.817   2.194  0.00  0.00    +0.114 C 
ATOM     18  C   UNL     1     -38.522  23.723   2.692  0.00  0.00    +0.003 C 
ATOM     19  C   UNL     1     -38.219  21.161   1.630  0.00  0.00    +0.039 C 
ATOM     20  C   UNL     1     -39.466  21.787   1.599  0.00  0.00    +0.092 C 
ATOM     21  C   UNL     1     -39.617  23.068   2.128  0.00  0.00    +0.020 C 
BRANCH  17  22
ATOM     22  S   UNL     1     -35.581  20.988   2.209  0.00  0.00    +0.042 S 
ATOM     23  O   UNL     1     -35.818  19.637   1.323  0.00  0.00    -0.065 OA
ATOM     24  O   UNL     1     -34.628  21.814   1.484  0.00  0.00    -0.065 OA
ATOM     25  O   UNL     1     -35.332  20.594   3.584  0.00  0.00    -0.065 OA
ENDBRANCH  17  22
BRANCH  20  27
ATOM     26  S   UNL     1     -40.988  21.750  -1.638  0.00  0.00    +0.021 S 
ATOM     27  N   UNL     1     -40.564  21.131   1.033  0.00  0.00    -0.196 NA
ATOM     28  C   UNL     1     -40.735  21.402  -0.103  0.00  0.00    +0.041 C 
ENDBRANCH  20  27
ENDBRANCH   2  16
TORSDOF 6
ENDMDL
MODEL 3
REMARK VINA RESULT:      -6.2      4.853      7.049
REMARK  Name = 5281951
REMARK  6 active torsions:
REMARK  status: ('A' for Active; 'I' for Inactive)
REMARK    1  A    between atoms: C_1  and  C_3
REMARK    2  A    between atoms: C_2  and  C_16
REMARK    3  A    between atoms: C_4  and  S_9
REMARK    4  A    between atoms: C_7  and  N_14
REMARK    5  A    between atoms: C_17  and  S_22
REMARK    6  A    between atoms: C_20  and  N_27
REMARK                            x       y       z     vdW  Elec       q    Type
REMARK                         _______ _______ _______ _____ _____    ______ ____
ROOT
ATOM      1  C   UNL     1     -35.594  20.466   1.704  0.00  0.00    +0.001 C 
ATOM      2  C   UNL     1     -34.632  20.624   0.766  0.00  0.00    +0.001 C 
ENDROOT
BRANCH   1   3
ATOM      3  C   UNL     1     -36.852  21.200   1.746  0.00  0.00    +0.018 C 
ATOM      4  C   UNL     1     -37.058  22.257   2.634  0.00  0.00    +0.114 C 
ATOM      5  C   UNL     1     -37.865  20.822   0.865  0.00  0.00    +0.003 C 
ATOM      6  C   UNL     1     -38.277  22.933   2.642  0.00  0.00    +0.039 C 
ATOM      7  C   UNL     1     -39.291  22.554   1.761  0.00  0.00    +0.092 C 
ATOM      8  C   UNL     1     -39.085  21.499   0.873  0.00  0.00    +0.020 C 
BRANCH   4   9
ATOM      9  S   UNL     1     -35.818  22.771   3.760  0.00  0.00    +0.042 S 
ATOM     10  O   UNL     1     -36.564  23.824   4.761  0.00  0.00    -0.065 OA
ATOM     11  O   UNL     1     -35.439  21.617   4.559  0.00  0.00    -0.065 OA
ATOM     12  O   UNL     1     -34.827  23.501   2.987  0.00  0.00    -0.065 OA
ENDBRANCH   4   9
BRANCH   7  14
ATOM     13  S   UNL     1     -40.291  25.964   1.348  0.00  0.00    +0.021 S 
ATOM     14  N   UNL     1     -40.514  23.231   1.770  0.00  0.00    -0.196 NA
ATOM     15  C   UNL     1     -40.407  24.393   1.589  0.00  0.00    +0.041 C 
ENDBRANCH   7  14
ENDBRANCH   1   3
BRANCH   2  16
ATOM     16  C   UNL     1     -33.352  19.896   0.734  0.00  0.00    +0.018 C 
ATOM     17  C   UNL     1     -32.248  20.411   0.073  0.00  0.00    +0.114 C 
ATOM     18  C   UNL     1     -33.291  18.675   1.390  0.00  0.00    +0.003 C 
ATOM     19  C   UNL     1     -31.055  19.688   0.066  0.00  0.00    +0.039 C 
ATOM     20  C   UNL     1     -30.981  18.459   0.722  0.00  0.00    +0.092 C 
ATOM     21  C   UNL     1     -32.099  17.952   1.383  0.00  0.00    +0.020 C 
BRANCH  17  22
ATOM     22  S   UNL     1     -32.290  21.949  -0.766  0.00  0.00    +0.042 S 
ATOM     23  O   UNL     1     -30.723  22.368  -0.958  0.00  0.00    -0.065 OA
ATOM     24  O   UNL     1     -32.836  21.714  -2.094  0.00  0.00    -0.065 OA
ATOM     25  O   UNL     1     -32.910  22.901   0.138  0.00  0.00    -0.065 OA
ENDBRANCH  17  22
BRANCH  20  27
ATOM     26  S   UNL     1     -30.008  15.213  -0.423  0.00  0.00    +0.021 S 
ATOM     27  N   UNL     1     -29.785  17.733   0.714  0.00  0.00    -0.196 NA
ATOM     28  C   UNL     1     -29.892  16.663   0.228  0.00  0.00    +0.041 C 
ENDBRANCH  20  27
ENDBRANCH   2  16
TORSDOF 6
ENDMDL
MODEL 4
REMARK VINA RESULT:      -6.0      4.875      7.756
REMARK  Name = 5281951
REMARK  6 active torsions:
REMARK  status: ('A' for Active; 'I' for Inactive)
REMARK    1  A    between atoms: C_1  and  C_3
REMARK    2  A    between atoms: C_2  and  C_16
REMARK    3  A    between atoms: C_4  and  S_9
REMARK    4  A    between atoms: C_7  and  N_14
REMARK    5  A    between atoms: C_17  and  S_22
REMARK    6  A    between atoms: C_20  and  N_27
REMARK                            x       y       z     vdW  Elec       q    Type
REMARK                         _______ _______ _______ _____ _____    ______ ____
ROOT
ATOM      1  C   UNL     1     -34.614  20.598   0.722  0.00  0.00    +0.001 C 
ATOM      2  C   UNL     1     -35.576  20.435   1.660  0.00  0.00    +0.001 C 
ENDROOT
BRANCH   1   3
ATOM      3  C   UNL     1     -33.341  19.889   0.698  0.00  0.00    +0.018 C 
ATOM      4  C   UNL     1     -32.239  20.380  -0.003  0.00  0.00    +0.114 C 
ATOM      5  C   UNL     1     -33.241  18.690   1.402  0.00  0.00    +0.003 C 
ATOM      6  C   UNL     1     -31.039  19.670  -0.001  0.00  0.00    +0.039 C 
ATOM      7  C   UNL     1     -30.939  18.470   0.703  0.00  0.00    +0.092 C 
ATOM      8  C   UNL     1     -32.040  17.979   1.405  0.00  0.00    +0.020 C 
BRANCH   4   9
ATOM      9  S   UNL     1     -32.312  21.881  -0.904  0.00  0.00    +0.042 S 
ATOM     10  O   UNL     1     -30.759  22.237  -1.262  0.00  0.00    -0.065 OA
ATOM     11  O   UNL     1     -32.990  21.612  -2.161  0.00  0.00    -0.065 OA
ATOM     12  O   UNL     1     -32.812  22.894   0.012  0.00  0.00    -0.065 OA
ENDBRANCH   4   9
BRANCH   7  14
ATOM     13  S   UNL     1     -29.875  15.316  -0.608  0.00  0.00    +0.021 S 
ATOM     14  N   UNL     1     -29.736  17.757   0.703  0.00  0.00    -0.196 NA
ATOM     15  C   UNL     1     -29.807  16.720   0.142  0.00  0.00    +0.041 C 
ENDBRANCH   7  14
ENDBRANCH   1   3
BRANCH   2  16
ATOM     16  C   UNL     1     -36.855  21.165   1.696  0.00  0.00    +0.018 C 
ATOM     17  C   UNL     1     -37.059  22.215   2.579  0.00  0.00    +0.114 C 
ATOM     18  C   UNL     1     -37.849  20.765   0.814  0.00  0.00    +0.003 C 
ATOM     19  C   UNL     1     -38.286  22.878   2.582  0.00  0.00    +0.039 C 
ATOM     20  C   UNL     1     -39.293  22.486   1.700  0.00  0.00    +0.092 C 
ATOM     21  C   UNL     1     -39.075  21.429   0.817  0.00  0.00    +0.020 C 
BRANCH  17  22
ATOM     22  S   UNL     1     -35.827  22.745   3.705  0.00  0.00    +0.042 S 
ATOM     23  O   UNL     1     -36.580  23.816   4.682  0.00  0.00    -0.065 OA
ATOM     24  O   UNL     1     -35.456  21.603   4.527  0.00  0.00    -0.065 OA
ATOM     25  O   UNL     1     -34.830  23.460   2.928  0.00  0.00    -0.065 OA
ENDBRANCH  17  22
BRANCH  20  27
ATOM     26  S   UNL     1     -40.319  25.894   1.342  0.00  0.00    +0.021 S 
ATOM     27  N   UNL     1     -40.524  23.151   1.703  0.00  0.00    -0.196 NA
ATOM     28  C   UNL     1     -40.425  24.317   1.549  0.00  0.00    +0.041 C 
ENDBRANCH  20  27
ENDBRANCH   2  16
TORSDOF 6
ENDMDL
MODEL 5
REMARK VINA RESULT:      -5.9      4.570      6.978
REMARK  Name = 5281951
REMARK  6 active torsions:
REMARK  status: ('A' for Active; 'I' for Inactive)
REMARK    1  A    between atoms: C_1  and  C_3
REMARK    2  A    between atoms: C_2  and  C_16
REMARK    3  A    between atoms: C_4  and  S_9
REMARK    4  A    between atoms: C_7  and  N_14
REMARK    5  A    between atoms: C_17  and  S_22
REMARK    6  A    between atoms: C_20  and  N_27
REMARK                            x       y       z     vdW  Elec       q    Type
REMARK                         _______ _______ _______ _____ _____    ______ ____
ROOT
ATOM      1  C   UNL     1     -35.517  22.482   2.038  0.00  0.00    +0.001 C 
ATOM      2  C   UNL     1     -34.946  22.039   0.894  0.00  0.00    +0.001 C 
ENDROOT
BRANCH   1   3
ATOM      3  C   UNL     1     -36.508  23.547   2.121  0.00  0.00    +0.018 C 
ATOM      4  C   UNL     1     -36.666  24.316   3.274  0.00  0.00    +0.114 C 
ATOM      5  C   UNL     1     -37.309  23.790   1.006  0.00  0.00    +0.003 C 
ATOM      6  C   UNL     1     -37.627  25.326   3.313  0.00  0.00    +0.039 C 
ATOM      7  C   UNL     1     -38.429  25.568   2.197  0.00  0.00    +0.092 C 
ATOM      8  C   UNL     1     -38.271  24.800   1.044  0.00  0.00    +0.020 C 
BRANCH   4   9
ATOM      9  S   UNL     1     -35.684  24.052   4.702  0.00  0.00    +0.042 S 
ATOM     10  O   UNL     1     -36.026  25.307   5.689  0.00  0.00    -0.065 OA
ATOM     11  O   UNL     1     -36.170  22.848   5.356  0.00  0.00    -0.065 OA
ATOM     12  O   UNL     1     -34.297  24.166   4.282  0.00  0.00    -0.065 OA
ENDBRANCH   4   9
BRANCH   7  14
ATOM     13  S   UNL     1     -41.954  25.717   1.606  0.00  0.00    +0.021 S 
ATOM     14  N   UNL     1     -39.394  26.580   2.236  0.00  0.00    -0.196 NA
ATOM     15  C   UNL     1     -40.479  26.201   1.967  0.00  0.00    +0.041 C 
ENDBRANCH   7  14
ENDBRANCH   1   3
BRANCH   2  16
ATOM     16  C   UNL     1     -33.930  20.975   0.811  0.00  0.00    +0.018 C 
ATOM     17  C   UNL     1     -32.779  21.137   0.055  0.00  0.00    +0.114 C 
ATOM     18  C   UNL     1     -34.166  19.805   1.517  0.00  0.00    +0.003 C 
ATOM     19  C   UNL     1     -31.843  20.104   0.002  0.00  0.00    +0.039 C 
ATOM     20  C   UNL     1     -32.069  18.922   0.708  0.00  0.00    +0.092 C 
ATOM     21  C   UNL     1     -33.231  18.772   1.465  0.00  0.00    +0.020 C 
BRANCH  17  22
ATOM     22  S   UNL     1     -32.449  22.602  -0.849  0.00  0.00    +0.042 S 
ATOM     23  O   UNL     1     -30.998  22.345  -1.552  0.00  0.00    -0.065 OA
ATOM     24  O   UNL     1     -33.433  22.693  -1.917  0.00  0.00    -0.065 OA
ATOM     25  O   UNL     1     -32.303  23.669   0.124  0.00  0.00    -0.065 OA
ENDBRANCH  17  22
BRANCH  20  27
ATOM     26  S   UNL     1     -32.134  15.517  -0.382  0.00  0.00    +0.021 S 
ATOM     27  N   UNL     1     -31.131  17.886   0.655  0.00  0.00    -0.196 NA
ATOM     28  C   UNL     1     -31.569  16.883   0.213  0.00  0.00    +0.041 C 
ENDBRANCH  20  27
ENDBRANCH   2  16
TORSDOF 6
ENDMDL
MODEL 6
REMARK VINA RESULT:      -5.9      4.671      6.763
REMARK  Name = 5281951
REMARK  6 active torsions:
REMARK  status: ('A' for Active; 'I' for Inactive)
REMARK    1  A    between atoms: C_1  and  C_3
REMARK    2  A    between atoms: C_2  and  C_16
REMARK    3  A    between atoms: C_4  and  S_9
REMARK    4  A    between atoms: C_7  and  N_14
REMARK    5  A    between atoms: C_17  and  S_22
REMARK    6  A    between atoms: C_20  and  N_27
REMARK                            x       y       z     vdW  Elec       q    Type
REMARK                         _______ _______ _______ _____ _____    ______ ____
ROOT
ATOM      1  C   UNL     1     -34.811  21.851   0.814  0.00  0.00    +0.001 C 
ATOM      2  C   UNL     1     -35.271  22.465   1.929  0.00  0.00    +0.001 C 
ENDROOT
BRANCH   1   3
ATOM      3  C   UNL     1     -33.822  20.781   0.796  0.00  0.00    +0.018 C 
ATOM      4  C   UNL     1     -32.642  20.883   0.059  0.00  0.00    +0.114 C 
ATOM      5  C   UNL     1     -34.081  19.632   1.542  0.00  0.00    +0.003 C 
ATOM      6  C   UNL     1     -31.722  19.835   0.068  0.00  0.00    +0.039 C 
ATOM      7  C   UNL     1     -31.981  18.685   0.814  0.00  0.00    +0.092 C 
ATOM      8  C   UNL     1     -33.161  18.583   1.551  0.00  0.00    +0.020 C 
BRANCH   4   9
ATOM      9  S   UNL     1     -32.269  22.305  -0.894  0.00  0.00    +0.042 S 
ATOM     10  O   UNL     1     -30.753  22.057  -1.450  0.00  0.00    -0.065 OA
ATOM     11  O   UNL     1     -33.153  22.308  -2.049  0.00  0.00    -0.065 OA
ATOM     12  O   UNL     1     -32.238  23.429   0.026  0.00  0.00    -0.065 OA
ENDBRANCH   4   9
BRANCH   7  14
ATOM     13  S   UNL     1     -31.917  15.377  -0.545  0.00  0.00    +0.021 S 
ATOM     14  N   UNL     1     -31.060  17.633   0.822  0.00  0.00    -0.196 NA
ATOM     15  C   UNL     1     -31.435  16.679   0.237  0.00  0.00    +0.041 C 
ENDBRANCH   7  14
ENDBRANCH   1   3
BRANCH   2  16
ATOM     16  C   UNL     1     -36.256  23.561   1.947  0.00  0.00    +0.018 C 
ATOM     17  C   UNL     1     -36.487  24.301   3.096  0.00  0.00    +0.114 C 
ATOM     18  C   UNL     1     -36.944  23.824   0.772  0.00  0.00    +0.003 C 
ATOM     19  C   UNL     1     -37.431  25.328   3.071  0.00  0.00    +0.039 C 
ATOM     20  C   UNL     1     -38.129  25.604   1.895  0.00  0.00    +0.092 C 
ATOM     21  C   UNL     1     -37.887  24.852   0.746  0.00  0.00    +0.020 C 
BRANCH  17  22
ATOM     22  S   UNL     1     -35.636  23.994   4.597  0.00  0.00    +0.042 S 
ATOM     23  O   UNL     1     -36.114  25.188   5.604  0.00  0.00    -0.065 OA
ATOM     24  O   UNL     1     -36.140  22.744   5.144  0.00  0.00    -0.065 OA
ATOM     25  O   UNL     1     -34.222  24.171   4.318  0.00  0.00    -0.065 OA
ENDBRANCH  17  22
BRANCH  20  27
ATOM     26  S   UNL     1     -41.681  25.755   1.499  0.00  0.00    +0.021 S 
ATOM     27  N   UNL     1     -39.076  26.634   1.869  0.00  0.00    -0.196 NA
ATOM     28  C   UNL     1     -40.180  26.249   1.711  0.00  0.00    +0.041 C 
ENDBRANCH  20  27
ENDBRANCH   2  16
TORSDOF 6
ENDMDL
MODEL 7
REMARK VINA RESULT:      -5.9      3.943      4.614
REMARK  Name = 5281951
REMARK  6 active torsions:
REMARK  status: ('A' for Active; 'I' for Inactive)
REMARK    1  A    between atoms: C_1  and  C_3
REMARK    2  A    between atoms: C_2  and  C_16
REMARK    3  A    between atoms: C_4  and  S_9
REMARK    4  A    between atoms: C_7  and  N_14
REMARK    5  A    between atoms: C_17  and  S_22
REMARK    6  A    between atoms: C_20  and  N_27
REMARK                            x       y       z     vdW  Elec       q    Type
REMARK                         _______ _______ _______ _____ _____    ______ ____
ROOT
ATOM      1  C   UNL     1     -35.343  25.495   2.339  0.00  0.00    +0.001 C 
ATOM      2  C   UNL     1     -34.301  26.325   2.576  0.00  0.00    +0.001 C 
ENDROOT
BRANCH   1   3
ATOM      3  C   UNL     1     -35.262  24.040   2.301  0.00  0.00    +0.018 C 
ATOM      4  C   UNL     1     -35.471  23.261   3.440  0.00  0.00    +0.114 C 
ATOM      5  C   UNL     1     -34.969  23.429   1.083  0.00  0.00    +0.003 C 
ATOM      6  C   UNL     1     -35.384  21.872   3.360  0.00  0.00    +0.039 C 
ATOM      7  C   UNL     1     -35.090  21.260   2.141  0.00  0.00    +0.092 C 
ATOM      8  C   UNL     1     -34.881  22.038   1.002  0.00  0.00    +0.020 C 
BRANCH   4   9
ATOM      9  S   UNL     1     -35.843  23.980   4.994  0.00  0.00    +0.042 S 
ATOM     10  O   UNL     1     -36.120  22.716   5.990  0.00  0.00    -0.065 OA
ATOM     11  O   UNL     1     -34.643  24.647   5.472  0.00  0.00    -0.065 OA
ATOM     12  O   UNL     1     -37.089  24.711   4.829  0.00  0.00    -0.065 OA
ENDBRANCH   4   9
BRANCH   7  14
ATOM     13  S   UNL     1     -32.664  18.955   0.876  0.00  0.00    +0.021 S 
ATOM     14  N   UNL     1     -35.000  19.867   2.061  0.00  0.00    -0.196 NA
ATOM     15  C   UNL     1     -34.002  19.491   1.556  0.00  0.00    +0.041 C 
ENDBRANCH   7  14
ENDBRANCH   1   3
BRANCH   2  16
ATOM     16  C   UNL     1     -34.378  27.796   2.595  0.00  0.00    +0.018 C 
ATOM     17  C   UNL     1     -33.425  28.558   3.254  0.00  0.00    +0.114 C 
ATOM     18  C   UNL     1     -35.440  28.392   1.930  0.00  0.00    +0.003 C 
ATOM     19  C   UNL     1     -33.537  29.948   3.249  0.00  0.00    +0.039 C 
ATOM     20  C   UNL     1     -34.600  30.560   2.584  0.00  0.00    +0.092 C 
ATOM     21  C   UNL     1     -35.552  29.782   1.926  0.00  0.00    +0.020 C 
BRANCH  17  22
ATOM     22  S   UNL     1     -32.072  27.838   4.103  0.00  0.00    +0.042 S 
ATOM     23  O   UNL     1     -31.141  29.099   4.560  0.00  0.00    -0.065 OA
ATOM     24  O   UNL     1     -32.588  27.224   5.317  0.00  0.00    -0.065 OA
ATOM     25  O   UNL     1     -31.335  27.056   3.127  0.00  0.00    -0.065 OA
ENDBRANCH  17  22
BRANCH  20  27
ATOM     26  S   UNL     1     -32.469  33.259   1.604  0.00  0.00    +0.021 S 
ATOM     27  N   UNL     1     -34.713  31.954   2.580  0.00  0.00    -0.196 NA
ATOM     28  C   UNL     1     -33.753  32.499   2.163  0.00  0.00    +0.041 C 
ENDBRANCH  20  27
ENDBRANCH   2  16
TORSDOF 6
ENDMDL
MODEL 8
REMARK VINA RESULT:      -5.7      4.013      4.601
REMARK  Name = 5281951
REMARK  6 active torsions:
REMARK  status: ('A' for Active; 'I' for Inactive)
REMARK    1  A    between atoms: C_1  and  C_3
REMARK    2  A    between atoms: C_2  and  C_16
REMARK    3  A    between atoms: C_4  and  S_9
REMARK    4  A    between atoms: C_7  and  N_14
REMARK    5  A    between atoms: C_17  and  S_22
REMARK    6  A    between atoms: C_20  and  N_27
REMARK                            x       y       z     vdW  Elec       q    Type
REMARK                         _______ _______ _______ _____ _____    ______ ____
ROOT
ATOM      1  C   UNL     1     -34.541  25.426   2.532  0.00  0.00    +0.001 C 
ATOM      2  C   UNL     1     -35.249  26.398   1.914  0.00  0.00    +0.001 C 
ENDROOT
BRANCH   1   3
ATOM      3  C   UNL     1     -34.740  23.995   2.341  0.00  0.00    +0.018 C 
ATOM      4  C   UNL     1     -35.288  23.188   3.339  0.00  0.00    +0.114 C 
ATOM      5  C   UNL     1     -34.367  23.436   1.119  0.00  0.00    +0.003 C 
ATOM      6  C   UNL     1     -35.461  21.822   3.114  0.00  0.00    +0.039 C 
ATOM      7  C   UNL     1     -35.087  21.263   1.892  0.00  0.00    +0.092 C 
ATOM      8  C   UNL     1     -34.540  22.070   0.894  0.00  0.00    +0.020 C 
BRANCH   4   9
ATOM      9  S   UNL     1     -35.772  23.841   4.891  0.00  0.00    +0.042 S 
ATOM     10  O   UNL     1     -36.093  22.535   5.818  0.00  0.00    -0.065 OA
ATOM     11  O   UNL     1     -34.617  24.505   5.472  0.00  0.00    -0.065 OA
ATOM     12  O   UNL     1     -37.016  24.561   4.672  0.00  0.00    -0.065 OA
ENDBRANCH   4   9
BRANCH   7  14
ATOM     13  S   UNL     1     -32.893  18.526   1.193  0.00  0.00    +0.021 S 
ATOM     14  N   UNL     1     -35.259  19.894   1.668  0.00  0.00    -0.196 NA
ATOM     15  C   UNL     1     -34.246  19.322   1.468  0.00  0.00    +0.041 C 
ENDBRANCH   7  14
ENDBRANCH   1   3
BRANCH   2  16
ATOM     16  C   UNL     1     -35.061  27.845   2.122  0.00  0.00    +0.018 C 
ATOM     17  C   UNL     1     -35.923  28.771   1.556  0.00  0.00    +0.114 C 
ATOM     18  C   UNL     1     -33.989  28.247   2.906  0.00  0.00    +0.003 C 
ATOM     19  C   UNL     1     -35.708  30.131   1.777  0.00  0.00    +0.039 C 
ATOM     20  C   UNL     1     -34.634  30.549   2.563  0.00  0.00    +0.092 C 
ATOM     21  C   UNL     1     -33.774  29.607   3.127  0.00  0.00    +0.020 C 
BRANCH  17  22
ATOM     22  S   UNL     1     -37.286  28.298   0.561  0.00  0.00    +0.042 S 
ATOM     23  O   UNL     1     -38.115  29.680   0.297  0.00  0.00    -0.065 OA
ATOM     24  O   UNL     1     -36.764  27.859  -0.724  0.00  0.00    -0.065 OA
ATOM     25  O   UNL     1     -38.110  27.419   1.372  0.00  0.00    -0.065 OA
ENDBRANCH  17  22
BRANCH  20  27
ATOM     26  S   UNL     1     -33.566  33.293   0.534  0.00  0.00    +0.021 S 
ATOM     27  N   UNL     1     -34.418  31.913   2.784  0.00  0.00    -0.196 NA
ATOM     28  C   UNL     1     -34.055  32.490   1.821  0.00  0.00    +0.041 C 
ENDBRANCH  20  27
ENDBRANCH   2  16
TORSDOF 6
ENDMDL
MODEL 9
REMARK VINA RESULT:      -5.7      4.463      7.104
REMARK  Name = 5281951
REMARK  6 active torsions:
REMARK  status: ('A' for Active; 'I' for Inactive)
REMARK    1  A    between atoms: C_1  and  C_3
REMARK    2  A    between atoms: C_2  and  C_16
REMARK    3  A    between atoms: C_4  and  S_9
REMARK    4  A    between atoms: C_7  and  N_14
REMARK    5  A    between atoms: C_17  and  S_22
REMARK    6  A    between atoms: C_20  and  N_27
REMARK                            x       y       z     vdW  Elec       q    Type
REMARK                         _______ _______ _______ _____ _____    ______ ____
ROOT
ATOM      1  C   UNL     1     -35.946  20.436   0.931  0.00  0.00    +0.001 C 
ATOM      2  C   UNL     1     -36.463  20.839   2.115  0.00  0.00    +0.001 C 
ENDROOT
BRANCH   1   3
ATOM      3  C   UNL     1     -34.968  19.369   0.765  0.00  0.00    +0.018 C 
ATOM      4  C   UNL     1     -35.162  18.326  -0.142  0.00  0.00    +0.114 C 
ATOM      5  C   UNL     1     -33.810  19.410   1.541  0.00  0.00    +0.003 C 
ATOM      6  C   UNL     1     -34.201  17.324  -0.269  0.00  0.00    +0.039 C 
ATOM      7  C   UNL     1     -33.044  17.365   0.509  0.00  0.00    +0.092 C 
ATOM      8  C   UNL     1     -32.848  18.407   1.414  0.00  0.00    +0.020 C 
BRANCH   4   9
ATOM      9  S   UNL     1     -36.599  18.228  -1.141  0.00  0.00    +0.042 S 
ATOM     10  O   UNL     1     -36.358  16.931  -2.103  0.00  0.00    -0.065 OA
ATOM     11  O   UNL     1     -37.722  17.915  -0.273  0.00  0.00    -0.065 OA
ATOM     12  O   UNL     1     -36.609  19.419  -1.975  0.00  0.00    -0.065 OA
ENDBRANCH   4   9
BRANCH   7  14
ATOM     13  S   UNL     1     -29.570  17.290  -0.341  0.00  0.00    +0.021 S 
ATOM     14  N   UNL     1     -32.080  16.359   0.382  0.00  0.00    -0.196 NA
ATOM     15  C   UNL     1     -31.016  16.767   0.074  0.00  0.00    +0.041 C 
ENDBRANCH   7  14
ENDBRANCH   1   3
BRANCH   2  16
ATOM     16  C   UNL     1     -37.437  21.931   2.285  0.00  0.00    +0.018 C 
ATOM     17  C   UNL     1     -37.160  23.023   3.094  0.00  0.00    +0.114 C 
ATOM     18  C   UNL     1     -38.642  21.828   1.606  0.00  0.00    +0.003 C 
ATOM     19  C   UNL     1     -38.111  24.034   3.229  0.00  0.00    +0.039 C 
ATOM     20  C   UNL     1     -39.328  23.942   2.552  0.00  0.00    +0.092 C 
ATOM     21  C   UNL     1     -39.594  22.839   1.741  0.00  0.00    +0.020 C 
BRANCH  17  22
ATOM     22  S   UNL     1     -35.648  23.185   3.965  0.00  0.00    +0.042 S 
ATOM     23  O   UNL     1     -35.911  24.380   5.046  0.00  0.00    -0.065 OA
ATOM     24  O   UNL     1     -35.440  21.960   4.722  0.00  0.00    -0.065 OA
ATOM     25  O   UNL     1     -34.661  23.646   3.005  0.00  0.00    -0.065 OA
ENDBRANCH  17  22
BRANCH  20  27
ATOM     26  S   UNL     1     -40.639  26.476   0.395  0.00  0.00    +0.021 S 
ATOM     27  N   UNL     1     -40.282  24.955   2.687  0.00  0.00    -0.196 NA
ATOM     28  C   UNL     1     -40.426  25.596   1.706  0.00  0.00    +0.041 C 
ENDBRANCH  20  27
ENDBRANCH   2  16
TORSDOF 6
ENDMDL
