MODEL 1
REMARK VINA RESULT:      -5.7      0.000      0.000
REMARK  Name = 195588
REMARK  7 active torsions:
REMARK  status: ('A' for Active; 'I' for Inactive)
REMARK    1  A    between atoms: C_3  and  C_13
REMARK    2  A    between atoms: C_6  and  O_9
REMARK    3  A    between atoms: C_8  and  O_11
REMARK    4  A    between atoms: C_13  and  CA_14
REMARK    5  A    between atoms: CA_14  and  N_15
REMARK    6  A    between atoms: CA_14  and  C_20
REMARK    7  A    between atoms: C_20  and  O_21
REMARK                            x       y       z     vdW  Elec       q    Type
REMARK                         _______ _______ _______ _____ _____    ______ ____
ROOT
ATOM      1  F   UNL     1     -34.984  23.078   6.737  0.00  0.00    -0.201 F 
ATOM      2  F   UNL     1     -36.120  25.070   2.584  0.00  0.00    -0.204 F 
ATOM      3  C   UNL     1     -35.551  24.085   4.667  0.00  0.00    +0.034 C 
ATOM      4  C   UNL     1     -35.326  22.962   5.446  0.00  0.00    +0.175 C 
ATOM      5  C   UNL     1     -35.902  23.979   3.332  0.00  0.00    +0.141 C 
ATOM      6  C   UNL     1     -35.455  21.697   4.872  0.00  0.00    +0.195 C 
ATOM      7  C   UNL     1     -36.032  22.715   2.759  0.00  0.00    +0.069 C 
ATOM      8  C   UNL     1     -35.809  21.573   3.529  0.00  0.00    +0.172 C 
ENDROOT
BRANCH   6   9
ATOM      9  O   UNL     1     -35.235  20.589   5.634  0.00  0.00    -0.501 OA
ATOM     10  H   UNL     1     -35.034  20.678   6.544  0.00  0.00    +0.292 HD
ENDBRANCH   6   9
BRANCH   8  11
ATOM     11  O   UNL     1     -35.937  20.344   2.958  0.00  0.00    -0.503 OA
ATOM     12  H   UNL     1     -35.209  19.956   2.512  0.00  0.00    +0.292 HD
ENDBRANCH   8  11
BRANCH   3  13
ATOM     13  C   UNL     1     -35.411  25.456   5.288  0.00  0.00    +0.020 C 
BRANCH  13  14
ATOM     14  CA  UNL     1     -34.002  26.045   5.123  0.00  0.00    +0.040 C 
BRANCH  14  15
ATOM     15  N   UNL     1     -33.566  26.646   6.381  0.00  0.00    +0.389 N 
ATOM     16  H1  UNL     1     -32.636  27.048   6.262  0.00  0.00    -0.088 HD
ATOM     17  H2  UNL     1     -33.535  25.930   7.107  0.00  0.00    -0.088 HD
ATOM     18  H3  UNL     1     -34.221  27.378   6.654  0.00  0.00    -0.088 HD
ENDBRANCH  14  15
BRANCH  14  20
ATOM     19  OXT UNL     1     -32.977  27.453   3.420  0.00  0.00    -0.253 OA
ATOM     20  C   UNL     1     -33.963  27.149   4.079  0.00  0.00    +0.293 C 
BRANCH  20  21
ATOM     21  O   UNL     1     -35.169  27.753   3.921  0.00  0.00    -0.482 OA
ATOM     22  H   UNL     1     -35.213  28.647   3.642  0.00  0.00    +0.295 HD
ENDBRANCH  20  21
ENDBRANCH  14  20
ENDBRANCH  13  14
ENDBRANCH   3  13
TORSDOF 7
ENDMDL
MODEL 2
REMARK VINA RESULT:      -5.4      2.792      3.816
REMARK  Name = 195588
REMARK  7 active torsions:
REMARK  status: ('A' for Active; 'I' for Inactive)
REMARK    1  A    between atoms: C_3  and  C_13
REMARK    2  A    between atoms: C_6  and  O_9
REMARK    3  A    between atoms: C_8  and  O_11
REMARK    4  A    between atoms: C_13  and  CA_14
REMARK    5  A    between atoms: CA_14  and  N_15
REMARK    6  A    between atoms: CA_14  and  C_20
REMARK    7  A    between atoms: C_20  and  O_21
REMARK                            x       y       z     vdW  Elec       q    Type
REMARK                         _______ _______ _______ _____ _____    ______ ____
ROOT
ATOM      1  F   UNL     1     -35.960  22.839   1.778  0.00  0.00    -0.201 F 
ATOM      2  F   UNL     1     -35.742  25.390   5.772  0.00  0.00    -0.204 F 
ATOM      3  C   UNL     1     -35.852  24.124   3.767  0.00  0.00    +0.034 C 
ATOM      4  C   UNL     1     -35.808  22.907   3.108  0.00  0.00    +0.175 C 
ATOM      5  C   UNL     1     -35.699  24.208   5.141  0.00  0.00    +0.141 C 
ATOM      6  C   UNL     1     -35.605  21.740   3.845  0.00  0.00    +0.195 C 
ATOM      7  C   UNL     1     -35.496  23.041   5.877  0.00  0.00    +0.069 C 
ATOM      8  C   UNL     1     -35.449  21.807   5.229  0.00  0.00    +0.172 C 
ENDROOT
BRANCH   6   9
ATOM      9  O   UNL     1     -35.561  20.540   3.201  0.00  0.00    -0.501 OA
ATOM     10  H   UNL     1     -36.105  20.387   2.455  0.00  0.00    +0.292 HD
ENDBRANCH   6   9
BRANCH   8  11
ATOM     11  O   UNL     1     -35.251  20.674   5.959  0.00  0.00    -0.503 OA
ATOM     12  H   UNL     1     -34.645  20.024   5.660  0.00  0.00    +0.292 HD
ENDBRANCH   8  11
BRANCH   3  13
ATOM     13  C   UNL     1     -36.072  25.390   2.970  0.00  0.00    +0.020 C 
BRANCH  13  14
ATOM     14  CA  UNL     1     -37.395  25.381   2.189  0.00  0.00    +0.040 C 
BRANCH  14  15
ATOM     15  N   UNL     1     -37.536  26.628   1.440  0.00  0.00    +0.389 N 
ATOM     16  H1  UNL     1     -37.198  27.405   2.008  0.00  0.00    -0.088 HD
ATOM     17  H2  UNL     1     -38.519  26.777   1.211  0.00  0.00    -0.088 HD
ATOM     18  H3  UNL     1     -36.991  26.573   0.580  0.00  0.00    -0.088 HD
ENDBRANCH  14  15
BRANCH  14  20
ATOM     19  OXT UNL     1     -39.136  24.244   3.458  0.00  0.00    -0.253 OA
ATOM     20  C   UNL     1     -38.601  25.288   3.109  0.00  0.00    +0.293 C 
BRANCH  20  21
ATOM     21  O   UNL     1     -39.013  26.508   3.544  0.00  0.00    -0.482 OA
ATOM     22  H   UNL     1     -39.628  27.003   3.040  0.00  0.00    +0.295 HD
ENDBRANCH  20  21
ENDBRANCH  14  20
ENDBRANCH  13  14
ENDBRANCH   3  13
TORSDOF 7
ENDMDL
MODEL 3
REMARK VINA RESULT:      -5.4      2.125      3.038
REMARK  Name = 195588
REMARK  7 active torsions:
REMARK  status: ('A' for Active; 'I' for Inactive)
REMARK    1  A    between atoms: C_3  and  C_13
REMARK    2  A    between atoms: C_6  and  O_9
REMARK    3  A    between atoms: C_8  and  O_11
REMARK    4  A    between atoms: C_13  and  CA_14
REMARK    5  A    between atoms: CA_14  and  N_15
REMARK    6  A    between atoms: CA_14  and  C_20
REMARK    7  A    between atoms: C_20  and  O_21
REMARK                            x       y       z     vdW  Elec       q    Type
REMARK                         _______ _______ _______ _____ _____    ______ ____
ROOT
ATOM      1  F   UNL     1     -37.061  23.108   2.241  0.00  0.00    -0.201 F 
ATOM      2  F   UNL     1     -35.704  25.458   6.133  0.00  0.00    -0.204 F 
ATOM      3  C   UNL     1     -36.387  24.293   4.181  0.00  0.00    +0.034 C 
ATOM      4  C   UNL     1     -36.478  23.121   3.449  0.00  0.00    +0.175 C 
ATOM      5  C   UNL     1     -35.790  24.320   5.430  0.00  0.00    +0.141 C 
ATOM      6  C   UNL     1     -35.956  21.942   3.981  0.00  0.00    +0.195 C 
ATOM      7  C   UNL     1     -35.268  23.141   5.962  0.00  0.00    +0.069 C 
ATOM      8  C   UNL     1     -35.351  21.952   5.238  0.00  0.00    +0.172 C 
ENDROOT
BRANCH   6   9
ATOM      9  O   UNL     1     -36.044  20.786   3.265  0.00  0.00    -0.501 OA
ATOM     10  H   UNL     1     -36.197  20.817   2.341  0.00  0.00    +0.292 HD
ENDBRANCH   6   9
BRANCH   8  11
ATOM     11  O   UNL     1     -34.839  20.807   5.768  0.00  0.00    -0.503 OA
ATOM     12  H   UNL     1     -34.918  19.998   5.300  0.00  0.00    +0.292 HD
ENDBRANCH   8  11
BRANCH   3  13
ATOM     13  C   UNL     1     -36.952  25.571   3.605  0.00  0.00    +0.020 C 
BRANCH  13  14
ATOM     14  CA  UNL     1     -35.900  26.406   2.859  0.00  0.00    +0.040 C 
BRANCH  14  15
ATOM     15  N   UNL     1     -35.476  27.528   3.693  0.00  0.00    +0.389 N 
ATOM     16  H1  UNL     1     -35.496  27.249   4.674  0.00  0.00    -0.088 HD
ATOM     17  H2  UNL     1     -36.110  28.315   3.552  0.00  0.00    -0.088 HD
ATOM     18  H3  UNL     1     -34.529  27.805   3.437  0.00  0.00    -0.088 HD
ENDBRANCH  14  15
BRANCH  14  20
ATOM     19  OXT UNL     1     -36.519  26.416   0.503  0.00  0.00    -0.253 OA
ATOM     20  C   UNL     1     -36.450  27.003   1.574  0.00  0.00    +0.293 C 
BRANCH  20  21
ATOM     21  O   UNL     1     -36.902  28.273   1.748  0.00  0.00    -0.482 OA
ATOM     22  H   UNL     1     -36.738  28.923   1.093  0.00  0.00    +0.295 HD
ENDBRANCH  20  21
ENDBRANCH  14  20
ENDBRANCH  13  14
ENDBRANCH   3  13
TORSDOF 7
ENDMDL
MODEL 4
REMARK VINA RESULT:      -5.3      2.480      5.564
REMARK  Name = 195588
REMARK  7 active torsions:
REMARK  status: ('A' for Active; 'I' for Inactive)
REMARK    1  A    between atoms: C_3  and  C_13
REMARK    2  A    between atoms: C_6  and  O_9
REMARK    3  A    between atoms: C_8  and  O_11
REMARK    4  A    between atoms: C_13  and  CA_14
REMARK    5  A    between atoms: CA_14  and  N_15
REMARK    6  A    between atoms: CA_14  and  C_20
REMARK    7  A    between atoms: C_20  and  O_21
REMARK                            x       y       z     vdW  Elec       q    Type
REMARK                         _______ _______ _______ _____ _____    ______ ____
ROOT
ATOM      1  F   UNL     1     -37.040  25.458   2.548  0.00  0.00    -0.201 F 
ATOM      2  F   UNL     1     -35.408  22.007   5.364  0.00  0.00    -0.204 F 
ATOM      3  C   UNL     1     -36.231  23.725   3.950  0.00  0.00    +0.034 C 
ATOM      4  C   UNL     1     -36.292  25.060   3.587  0.00  0.00    +0.175 C 
ATOM      5  C   UNL     1     -35.461  23.301   5.019  0.00  0.00    +0.141 C 
ATOM      6  C   UNL     1     -35.561  25.999   4.317  0.00  0.00    +0.195 C 
ATOM      7  C   UNL     1     -34.731  24.239   5.748  0.00  0.00    +0.069 C 
ATOM      8  C   UNL     1     -34.780  25.588   5.397  0.00  0.00    +0.172 C 
ENDROOT
BRANCH   6   9
ATOM      9  O   UNL     1     -35.617  27.314   3.965  0.00  0.00    -0.501 OA
ATOM     10  H   UNL     1     -36.406  27.671   3.610  0.00  0.00    +0.292 HD
ENDBRANCH   6   9
BRANCH   8  11
ATOM     11  O   UNL     1     -34.062  26.494   6.116  0.00  0.00    -0.503 OA
ATOM     12  H   UNL     1     -34.499  27.077   6.706  0.00  0.00    +0.292 HD
ENDBRANCH   8  11
BRANCH   3  13
ATOM     13  C   UNL     1     -37.023  22.708   3.160  0.00  0.00    +0.020 C 
BRANCH  13  14
ATOM     14  CA  UNL     1     -36.178  21.985   2.101  0.00  0.00    +0.040 C 
BRANCH  14  15
ATOM     15  N   UNL     1     -36.918  21.911   0.843  0.00  0.00    +0.389 N 
ATOM     16  H1  UNL     1     -37.470  22.760   0.723  0.00  0.00    -0.088 HD
ATOM     17  H2  UNL     1     -37.539  21.102   0.861  0.00  0.00    -0.088 HD
ATOM     18  H3  UNL     1     -36.263  21.818   0.067  0.00  0.00    -0.088 HD
ENDBRANCH  14  15
BRANCH  14  20
ATOM     19  OXT UNL     1     -34.755  20.152   2.844  0.00  0.00    -0.253 OA
ATOM     20  C   UNL     1     -35.860  20.554   2.502  0.00  0.00    +0.293 C 
BRANCH  20  21
ATOM     21  O   UNL     1     -36.959  19.755   2.478  0.00  0.00    -0.482 OA
ATOM     22  H   UNL     1     -37.800  20.106   2.696  0.00  0.00    +0.295 HD
ENDBRANCH  20  21
ENDBRANCH  14  20
ENDBRANCH  13  14
ENDBRANCH   3  13
TORSDOF 7
ENDMDL
MODEL 5
REMARK VINA RESULT:      -5.2      2.649      3.465
REMARK  Name = 195588
REMARK  7 active torsions:
REMARK  status: ('A' for Active; 'I' for Inactive)
REMARK    1  A    between atoms: C_3  and  C_13
REMARK    2  A    between atoms: C_6  and  O_9
REMARK    3  A    between atoms: C_8  and  O_11
REMARK    4  A    between atoms: C_13  and  CA_14
REMARK    5  A    between atoms: CA_14  and  N_15
REMARK    6  A    between atoms: CA_14  and  C_20
REMARK    7  A    between atoms: C_20  and  O_21
REMARK                            x       y       z     vdW  Elec       q    Type
REMARK                         _______ _______ _______ _____ _____    ______ ____
ROOT
ATOM      1  F   UNL     1     -35.723  22.397   2.864  0.00  0.00    -0.201 F 
ATOM      2  F   UNL     1     -39.290  25.524   2.972  0.00  0.00    -0.204 F 
ATOM      3  C   UNL     1     -37.498  23.969   2.922  0.00  0.00    +0.034 C 
ATOM      4  C   UNL     1     -37.023  22.686   2.707  0.00  0.00    +0.175 C 
ATOM      5  C   UNL     1     -38.837  24.280   2.761  0.00  0.00    +0.141 C 
ATOM      6  C   UNL     1     -37.915  21.685   2.320  0.00  0.00    +0.195 C 
ATOM      7  C   UNL     1     -39.728  23.280   2.374  0.00  0.00    +0.069 C 
ATOM      8  C   UNL     1     -39.268  21.982   2.153  0.00  0.00    +0.172 C 
ENDROOT
BRANCH   6   9
ATOM      9  O   UNL     1     -37.453  20.421   2.106  0.00  0.00    -0.501 OA
ATOM     10  H   UNL     1     -36.933  20.232   1.351  0.00  0.00    +0.292 HD
ENDBRANCH   6   9
BRANCH   8  11
ATOM     11  O   UNL     1     -40.147  21.013   1.774  0.00  0.00    -0.503 OA
ATOM     12  H   UNL     1     -40.584  20.497   2.423  0.00  0.00    +0.292 HD
ENDBRANCH   8  11
BRANCH   3  13
ATOM     13  C   UNL     1     -36.532  25.053   3.342  0.00  0.00    +0.020 C 
BRANCH  13  14
ATOM     14  CA  UNL     1     -36.294  25.086   4.859  0.00  0.00    +0.040 C 
BRANCH  14  15
ATOM     15  N   UNL     1     -36.328  26.466   5.336  0.00  0.00    +0.389 N 
ATOM     16  H1  UNL     1     -36.870  26.514   6.199  0.00  0.00    -0.088 HD
ATOM     17  H2  UNL     1     -36.762  27.060   4.629  0.00  0.00    -0.088 HD
ATOM     18  H3  UNL     1     -35.377  26.789   5.514  0.00  0.00    -0.088 HD
ENDBRANCH  14  15
BRANCH  14  20
ATOM     19  OXT UNL     1     -33.864  25.098   5.035  0.00  0.00    -0.253 OA
ATOM     20  C   UNL     1     -34.930  24.530   5.235  0.00  0.00    +0.293 C 
BRANCH  20  21
ATOM     21  O   UNL     1     -35.017  23.328   5.862  0.00  0.00    -0.482 OA
ATOM     22  H   UNL     1     -34.238  22.852   6.076  0.00  0.00    +0.295 HD
ENDBRANCH  20  21
ENDBRANCH  14  20
ENDBRANCH  13  14
ENDBRANCH   3  13
TORSDOF 7
ENDMDL
MODEL 6
REMARK VINA RESULT:      -5.1      0.696      2.383
REMARK  Name = 195588
REMARK  7 active torsions:
REMARK  status: ('A' for Active; 'I' for Inactive)
REMARK    1  A    between atoms: C_3  and  C_13
REMARK    2  A    between atoms: C_6  and  O_9
REMARK    3  A    between atoms: C_8  and  O_11
REMARK    4  A    between atoms: C_13  and  CA_14
REMARK    5  A    between atoms: CA_14  and  N_15
REMARK    6  A    between atoms: CA_14  and  C_20
REMARK    7  A    between atoms: C_20  and  O_21
REMARK                            x       y       z     vdW  Elec       q    Type
REMARK                         _______ _______ _______ _____ _____    ______ ____
ROOT
ATOM      1  F   UNL     1     -36.082  25.012   2.667  0.00  0.00    -0.201 F 
ATOM      2  F   UNL     1     -34.972  22.943   6.791  0.00  0.00    -0.204 F 
ATOM      3  C   UNL     1     -35.525  23.989   4.733  0.00  0.00    +0.034 C 
ATOM      4  C   UNL     1     -35.864  23.905   3.393  0.00  0.00    +0.175 C 
ATOM      5  C   UNL     1     -35.300  22.854   5.494  0.00  0.00    +0.141 C 
ATOM      6  C   UNL     1     -35.980  22.649   2.796  0.00  0.00    +0.195 C 
ATOM      7  C   UNL     1     -35.416  21.599   4.897  0.00  0.00    +0.069 C 
ATOM      8  C   UNL     1     -35.755  21.496   3.548  0.00  0.00    +0.172 C 
ENDROOT
BRANCH   6   9
ATOM      9  O   UNL     1     -36.312  22.561   1.478  0.00  0.00    -0.501 OA
ATOM     10  H   UNL     1     -37.162  22.829   1.189  0.00  0.00    +0.292 HD
ENDBRANCH   6   9
BRANCH   8  11
ATOM     11  O   UNL     1     -35.867  20.265   2.977  0.00  0.00    -0.503 OA
ATOM     12  H   UNL     1     -36.710  19.935   2.735  0.00  0.00    +0.292 HD
ENDBRANCH   8  11
BRANCH   3  13
ATOM     13  C   UNL     1     -35.399  25.349   5.380  0.00  0.00    +0.020 C 
BRANCH  13  14
ATOM     14  CA  UNL     1     -34.009  25.974   5.191  0.00  0.00    +0.040 C 
BRANCH  14  15
ATOM     15  N   UNL     1     -33.581  26.614   6.433  0.00  0.00    +0.389 N 
ATOM     16  H1  UNL     1     -32.983  25.974   6.956  0.00  0.00    -0.088 HD
ATOM     17  H2  UNL     1     -34.400  26.849   6.994  0.00  0.00    -0.088 HD
ATOM     18  H3  UNL     1     -33.062  27.464   6.217  0.00  0.00    -0.088 HD
ENDBRANCH  14  15
BRANCH  14  20
ATOM     19  OXT UNL     1     -33.053  27.330   3.408  0.00  0.00    -0.253 OA
ATOM     20  C   UNL     1     -34.008  27.055   4.123  0.00  0.00    +0.293 C 
BRANCH  20  21
ATOM     21  O   UNL     1     -35.212  27.675   4.015  0.00  0.00    -0.482 OA
ATOM     22  H   UNL     1     -35.477  28.047   3.196  0.00  0.00    +0.295 HD
ENDBRANCH  20  21
ENDBRANCH  14  20
ENDBRANCH  13  14
ENDBRANCH   3  13
TORSDOF 7
ENDMDL
MODEL 7
REMARK VINA RESULT:      -5.1      3.405      5.631
REMARK  Name = 195588
REMARK  7 active torsions:
REMARK  status: ('A' for Active; 'I' for Inactive)
REMARK    1  A    between atoms: C_3  and  C_13
REMARK    2  A    between atoms: C_6  and  O_9
REMARK    3  A    between atoms: C_8  and  O_11
REMARK    4  A    between atoms: C_13  and  CA_14
REMARK    5  A    between atoms: CA_14  and  N_15
REMARK    6  A    between atoms: CA_14  and  C_20
REMARK    7  A    between atoms: C_20  and  O_21
REMARK                            x       y       z     vdW  Elec       q    Type
REMARK                         _______ _______ _______ _____ _____    ______ ____
ROOT
ATOM      1  F   UNL     1     -38.353  25.397   3.628  0.00  0.00    -0.201 F 
ATOM      2  F   UNL     1     -34.724  22.621   2.350  0.00  0.00    -0.204 F 
ATOM      3  C   UNL     1     -36.547  24.004   2.981  0.00  0.00    +0.034 C 
ATOM      4  C   UNL     1     -37.075  25.016   3.765  0.00  0.00    +0.175 C 
ATOM      5  C   UNL     1     -35.228  23.602   3.112  0.00  0.00    +0.141 C 
ATOM      6  C   UNL     1     -36.260  25.644   4.707  0.00  0.00    +0.195 C 
ATOM      7  C   UNL     1     -34.414  24.230   4.054  0.00  0.00    +0.069 C 
ATOM      8  C   UNL     1     -34.929  25.251   4.852  0.00  0.00    +0.172 C 
ENDROOT
BRANCH   6   9
ATOM      9  O   UNL     1     -36.774  26.641   5.481  0.00  0.00    -0.501 OA
ATOM     10  H   UNL     1     -36.318  26.921   6.249  0.00  0.00    +0.292 HD
ENDBRANCH   6   9
BRANCH   8  11
ATOM     11  O   UNL     1     -34.124  25.858   5.767  0.00  0.00    -0.503 OA
ATOM     12  H   UNL     1     -33.585  25.341   6.333  0.00  0.00    +0.292 HD
ENDBRANCH   8  11
BRANCH   3  13
ATOM     13  C   UNL     1     -37.430  23.322   1.961  0.00  0.00    +0.020 C 
BRANCH  13  14
ATOM     14  CA  UNL     1     -38.249  22.168   2.556  0.00  0.00    +0.040 C 
BRANCH  14  15
ATOM     15  N   UNL     1     -37.704  20.890   2.105  0.00  0.00    +0.389 N 
ATOM     16  H1  UNL     1     -36.828  21.050   1.608  0.00  0.00    -0.088 HD
ATOM     17  H2  UNL     1     -38.371  20.437   1.479  0.00  0.00    -0.088 HD
ATOM     18  H3  UNL     1     -37.533  20.288   2.910  0.00  0.00    -0.088 HD
ENDBRANCH  14  15
BRANCH  14  20
ATOM     19  OXT UNL     1     -40.303  23.216   1.771  0.00  0.00    -0.253 OA
ATOM     20  C   UNL     1     -39.700  22.204   2.104  0.00  0.00    +0.293 C 
BRANCH  20  21
ATOM     21  O   UNL     1     -40.262  20.968   2.072  0.00  0.00    -0.482 OA
ATOM     22  H   UNL     1     -41.175  20.862   2.258  0.00  0.00    +0.295 HD
ENDBRANCH  20  21
ENDBRANCH  14  20
ENDBRANCH  13  14
ENDBRANCH   3  13
TORSDOF 7
ENDMDL
MODEL 8
REMARK VINA RESULT:      -5.0      3.141      5.671
REMARK  Name = 195588
REMARK  7 active torsions:
REMARK  status: ('A' for Active; 'I' for Inactive)
REMARK    1  A    between atoms: C_3  and  C_13
REMARK    2  A    between atoms: C_6  and  O_9
REMARK    3  A    between atoms: C_8  and  O_11
REMARK    4  A    between atoms: C_13  and  CA_14
REMARK    5  A    between atoms: CA_14  and  N_15
REMARK    6  A    between atoms: CA_14  and  C_20
REMARK    7  A    between atoms: C_20  and  O_21
REMARK                            x       y       z     vdW  Elec       q    Type
REMARK                         _______ _______ _______ _____ _____    ______ ____
ROOT
ATOM      1  F   UNL     1     -36.487  24.502   1.308  0.00  0.00    -0.201 F 
ATOM      2  F   UNL     1     -34.881  22.110   5.077  0.00  0.00    -0.204 F 
ATOM      3  C   UNL     1     -35.682  23.297   3.185  0.00  0.00    +0.034 C 
ATOM      4  C   UNL     1     -36.239  24.434   2.624  0.00  0.00    +0.175 C 
ATOM      5  C   UNL     1     -35.420  23.215   4.541  0.00  0.00    +0.141 C 
ATOM      6  C   UNL     1     -36.543  25.521   3.445  0.00  0.00    +0.195 C 
ATOM      7  C   UNL     1     -35.723  24.301   5.362  0.00  0.00    +0.069 C 
ATOM      8  C   UNL     1     -36.284  25.454   4.814  0.00  0.00    +0.172 C 
ENDROOT
BRANCH   6   9
ATOM      9  O   UNL     1     -37.090  26.642   2.898  0.00  0.00    -0.501 OA
ATOM     10  H   UNL     1     -36.955  27.476   3.303  0.00  0.00    +0.292 HD
ENDBRANCH   6   9
BRANCH   8  11
ATOM     11  O   UNL     1     -36.575  26.509   5.625  0.00  0.00    -0.503 OA
ATOM     12  H   UNL     1     -35.882  27.018   5.998  0.00  0.00    +0.292 HD
ENDBRANCH   8  11
BRANCH   3  13
ATOM     13  C   UNL     1     -35.354  22.119   2.296  0.00  0.00    +0.020 C 
BRANCH  13  14
ATOM     14  CA  UNL     1     -36.386  20.986   2.400  0.00  0.00    +0.040 C 
BRANCH  14  15
ATOM     15  N   UNL     1     -35.829  19.757   1.841  0.00  0.00    +0.389 N 
ATOM     16  H1  UNL     1     -34.821  19.738   1.996  0.00  0.00    -0.088 HD
ATOM     17  H2  UNL     1     -36.018  19.723   0.839  0.00  0.00    -0.088 HD
ATOM     18  H3  UNL     1     -36.258  18.951   2.295  0.00  0.00    -0.088 HD
ENDBRANCH  14  15
BRANCH  14  20
ATOM     19  OXT UNL     1     -37.672  21.702   0.459  0.00  0.00    -0.253 OA
ATOM     20  C   UNL     1     -37.649  21.289   1.611  0.00  0.00    +0.293 C 
BRANCH  20  21
ATOM     21  O   UNL     1     -38.776  21.014   2.317  0.00  0.00    -0.482 OA
ATOM     22  H   UNL     1     -38.783  21.116   3.249  0.00  0.00    +0.295 HD
ENDBRANCH  20  21
ENDBRANCH  14  20
ENDBRANCH  13  14
ENDBRANCH   3  13
TORSDOF 7
ENDMDL
MODEL 9
REMARK VINA RESULT:      -5.0      2.234      5.592
REMARK  Name = 195588
REMARK  7 active torsions:
REMARK  status: ('A' for Active; 'I' for Inactive)
REMARK    1  A    between atoms: C_3  and  C_13
REMARK    2  A    between atoms: C_6  and  O_9
REMARK    3  A    between atoms: C_8  and  O_11
REMARK    4  A    between atoms: C_13  and  CA_14
REMARK    5  A    between atoms: CA_14  and  N_15
REMARK    6  A    between atoms: CA_14  and  C_20
REMARK    7  A    between atoms: C_20  and  O_21
REMARK                            x       y       z     vdW  Elec       q    Type
REMARK                         _______ _______ _______ _____ _____    ______ ____
ROOT
ATOM      1  F   UNL     1     -34.305  23.947   1.798  0.00  0.00    -0.201 F 
ATOM      2  F   UNL     1     -35.868  22.972   6.170  0.00  0.00    -0.204 F 
ATOM      3  C   UNL     1     -35.090  23.449   3.979  0.00  0.00    +0.034 C 
ATOM      4  C   UNL     1     -34.477  24.304   3.078  0.00  0.00    +0.175 C 
ATOM      5  C   UNL     1     -35.272  23.805   5.304  0.00  0.00    +0.141 C 
ATOM      6  C   UNL     1     -34.033  25.552   3.517  0.00  0.00    +0.195 C 
ATOM      7  C   UNL     1     -34.829  25.052   5.743  0.00  0.00    +0.069 C 
ATOM      8  C   UNL     1     -34.209  25.926   4.850  0.00  0.00    +0.172 C 
ENDROOT
BRANCH   6   9
ATOM      9  O   UNL     1     -33.429  26.397   2.636  0.00  0.00    -0.501 OA
ATOM     10  H   UNL     1     -33.263  27.287   2.878  0.00  0.00    +0.292 HD
ENDBRANCH   6   9
BRANCH   8  11
ATOM     11  O   UNL     1     -33.779  27.141   5.290  0.00  0.00    -0.503 OA
ATOM     12  H   UNL     1     -34.311  27.642   5.876  0.00  0.00    +0.292 HD
ENDBRANCH   8  11
BRANCH   3  13
ATOM     13  C   UNL     1     -35.572  22.097   3.504  0.00  0.00    +0.020 C 
BRANCH  13  14
ATOM     14  CA  UNL     1     -36.715  22.195   2.483  0.00  0.00    +0.040 C 
BRANCH  14  15
ATOM     15  N   UNL     1     -37.933  22.654   3.146  0.00  0.00    +0.389 N 
ATOM     16  H1  UNL     1     -38.698  22.014   2.933  0.00  0.00    -0.088 HD
ATOM     17  H2  UNL     1     -38.170  23.589   2.813  0.00  0.00    -0.088 HD
ATOM     18  H3  UNL     1     -37.783  22.681   4.154  0.00  0.00    -0.088 HD
ENDBRANCH  14  15
BRANCH  14  20
ATOM     19  OXT UNL     1     -37.508  20.691   0.738  0.00  0.00    -0.253 OA
ATOM     20  C   UNL     1     -37.042  20.848   1.860  0.00  0.00    +0.293 C 
BRANCH  20  21
ATOM     21  O   UNL     1     -36.725  19.810   2.677  0.00  0.00    -0.482 OA
ATOM     22  H   UNL     1     -36.232  19.085   2.346  0.00  0.00    +0.295 HD
ENDBRANCH  20  21
ENDBRANCH  14  20
ENDBRANCH  13  14
ENDBRANCH   3  13
TORSDOF 7
ENDMDL
