MODEL 1
REMARK VINA RESULT:      -7.0      0.000      0.000
REMARK  Name = 56962655
REMARK  4 active torsions:
REMARK  status: ('A' for Active; 'I' for Inactive)
REMARK    1  A    between atoms: C_2  and  N_10
REMARK    2  A    between atoms: C_3  and  O_17
REMARK    3  A    between atoms: O_17  and  C_18
REMARK    4  A    between atoms: C_21  and  N_26
REMARK                            x       y       z     vdW  Elec       q    Type
REMARK                         _______ _______ _______ _____ _____    ______ ____
ROOT
ATOM      1  C   UNL     1     -35.577  22.191   4.492  0.00  0.00    +0.014 C 
ATOM      2  C   UNL     1     -35.367  21.101   2.346  0.00  0.00    +0.078 C 
ATOM      3  C   UNL     1     -35.920  23.383   3.853  0.00  0.00    +0.141 C 
ATOM      4  C   UNL     1     -35.300  21.051   3.738  0.00  0.00    +0.016 C 
ATOM      5  C   UNL     1     -35.712  22.293   1.708  0.00  0.00    +0.020 C 
ATOM      6  C   UNL     1     -35.988  23.434   2.460  0.00  0.00    +0.039 C 
ATOM      7  C   UNL     1     -35.500  22.119   5.981  0.00  0.00    +0.034 C 
ENDROOT
BRANCH   2  10
ATOM      8  O   UNL     1     -37.187  19.578   0.574  0.00  0.00    -0.250 OA
ATOM      9  O   UNL     1     -33.747  16.740  -0.475  0.00  0.00    -0.268 OA
ATOM     10  N   UNL     1     -35.081  19.921   1.565  0.00  0.00    -0.142 N 
ATOM     11  N   UNL     1     -33.799  19.461   1.733  0.00  0.00    -0.164 NA
ATOM     12  N   UNL     1     -35.501  18.187   0.014  0.00  0.00    -0.233 N 
ATOM     13  C   UNL     1     -36.001  19.277   0.720  0.00  0.00    +0.333 C 
ATOM     14  C   UNL     1     -33.388  18.435   1.076  0.00  0.00    +0.176 C 
ATOM     15  C   UNL     1     -34.231  17.692   0.115  0.00  0.00    +0.274 C 
ATOM     16  H   UNL     1     -36.114  17.735  -0.609  0.00  0.00    +0.160 HD
ENDBRANCH   2  10
BRANCH   3  17
ATOM     17  O   UNL     1     -36.194  24.507   4.573  0.00  0.00    -0.454 OA
BRANCH  17  18
ATOM     18  C   UNL     1     -35.196  25.460   4.683  0.00  0.00    +0.145 C 
ATOM     19  C   UNL     1     -34.485  25.592   5.875  0.00  0.00    +0.039 C 
ATOM     20  C   UNL     1     -34.901  26.288   3.599  0.00  0.00    +0.039 C 
ATOM     21  C   UNL     1     -33.186  27.381   4.902  0.00  0.00    +0.143 C 
ATOM     22  C   UNL     1     -33.481  26.553   5.985  0.00  0.00    +0.027 C 
ATOM     23  C   UNL     1     -33.897  27.249   3.709  0.00  0.00    +0.027 C 
BRANCH  21  26
ATOM     24  O   UNL     1     -32.485  29.556   5.211  0.00  0.00    -0.126 OA
ATOM     25  O   UNL     1     -30.964  28.001   4.909  0.00  0.00    -0.126 OA
ATOM     26  N   UNL     1     -32.163  28.359   5.013  0.00  0.00    +0.058 N 
ENDBRANCH  21  26
ENDBRANCH  17  18
ENDBRANCH   3  17
TORSDOF 4
ENDMDL
MODEL 2
REMARK VINA RESULT:      -6.8      1.622      8.351
REMARK  Name = 56962655
REMARK  4 active torsions:
REMARK  status: ('A' for Active; 'I' for Inactive)
REMARK    1  A    between atoms: C_2  and  N_10
REMARK    2  A    between atoms: C_3  and  O_17
REMARK    3  A    between atoms: O_17  and  C_18
REMARK    4  A    between atoms: C_21  and  N_26
REMARK                            x       y       z     vdW  Elec       q    Type
REMARK                         _______ _______ _______ _____ _____    ______ ____
ROOT
ATOM      1  C   UNL     1     -35.329  23.743   5.259  0.00  0.00    +0.014 C 
ATOM      2  C   UNL     1     -34.297  25.828   4.607  0.00  0.00    +0.078 C 
ATOM      3  C   UNL     1     -36.126  23.779   4.115  0.00  0.00    +0.141 C 
ATOM      4  C   UNL     1     -34.415  24.767   5.506  0.00  0.00    +0.016 C 
ATOM      5  C   UNL     1     -35.094  25.863   3.462  0.00  0.00    +0.020 C 
ATOM      6  C   UNL     1     -36.007  24.840   3.216  0.00  0.00    +0.039 C 
ATOM      7  C   UNL     1     -35.442  22.616   6.232  0.00  0.00    +0.034 C 
ENDROOT
BRANCH   2  10
ATOM      8  O   UNL     1     -32.998  27.643   2.661  0.00  0.00    -0.250 OA
ATOM      9  O   UNL     1     -30.851  29.762   6.110  0.00  0.00    -0.268 OA
ATOM     10  N   UNL     1     -33.352  26.889   4.862  0.00  0.00    -0.142 N 
ATOM     11  N   UNL     1     -33.011  27.002   6.186  0.00  0.00    -0.164 NA
ATOM     12  N   UNL     1     -31.955  28.725   4.344  0.00  0.00    -0.233 N 
ATOM     13  C   UNL     1     -32.806  27.729   3.876  0.00  0.00    +0.333 C 
ATOM     14  C   UNL     1     -32.202  27.926   6.570  0.00  0.00    +0.176 C 
ATOM     15  C   UNL     1     -31.594  28.910   5.650  0.00  0.00    +0.274 C 
ATOM     16  H   UNL     1     -31.583  29.349   3.680  0.00  0.00    +0.160 HD
ENDBRANCH   2  10
BRANCH   3  17
ATOM     17  O   UNL     1     -37.023  22.787   3.858  0.00  0.00    -0.454 OA
BRANCH  17  18
ATOM     18  C   UNL     1     -36.689  21.851   2.894  0.00  0.00    +0.145 C 
ATOM     19  C   UNL     1     -35.497  21.136   2.999  0.00  0.00    +0.039 C 
ATOM     20  C   UNL     1     -37.546  21.624   1.817  0.00  0.00    +0.039 C 
ATOM     21  C   UNL     1     -36.017  19.968   0.950  0.00  0.00    +0.143 C 
ATOM     22  C   UNL     1     -35.160  20.195   2.027  0.00  0.00    +0.027 C 
ATOM     23  C   UNL     1     -37.210  20.683   0.845  0.00  0.00    +0.027 C 
BRANCH  21  26
ATOM     24  O   UNL     1     -36.461  18.821  -1.001  0.00  0.00    -0.126 OA
ATOM     25  O   UNL     1     -34.598  18.375   0.073  0.00  0.00    -0.126 OA
ATOM     26  N   UNL     1     -35.675  19.009  -0.040  0.00  0.00    +0.058 N 
ENDBRANCH  21  26
ENDBRANCH  17  18
ENDBRANCH   3  17
TORSDOF 4
ENDMDL
MODEL 3
REMARK VINA RESULT:      -6.8      1.617      8.404
REMARK  Name = 56962655
REMARK  4 active torsions:
REMARK  status: ('A' for Active; 'I' for Inactive)
REMARK    1  A    between atoms: C_2  and  N_10
REMARK    2  A    between atoms: C_3  and  O_17
REMARK    3  A    between atoms: O_17  and  C_18
REMARK    4  A    between atoms: C_21  and  N_26
REMARK                            x       y       z     vdW  Elec       q    Type
REMARK                         _______ _______ _______ _____ _____    ______ ____
ROOT
ATOM      1  C   UNL     1     -35.313  23.737   5.247  0.00  0.00    +0.014 C 
ATOM      2  C   UNL     1     -34.293  25.826   4.591  0.00  0.00    +0.078 C 
ATOM      3  C   UNL     1     -36.107  23.764   4.100  0.00  0.00    +0.141 C 
ATOM      4  C   UNL     1     -34.407  24.768   5.492  0.00  0.00    +0.016 C 
ATOM      5  C   UNL     1     -35.086  25.852   3.443  0.00  0.00    +0.020 C 
ATOM      6  C   UNL     1     -35.993  24.822   3.198  0.00  0.00    +0.039 C 
ATOM      7  C   UNL     1     -35.422  22.613   6.223  0.00  0.00    +0.034 C 
ENDROOT
BRANCH   2  10
ATOM      8  O   UNL     1     -33.013  27.654   2.643  0.00  0.00    -0.250 OA
ATOM      9  O   UNL     1     -30.873  29.784   6.089  0.00  0.00    -0.268 OA
ATOM     10  N   UNL     1     -33.355  26.894   4.844  0.00  0.00    -0.142 N 
ATOM     11  N   UNL     1     -33.011  27.008   6.168  0.00  0.00    -0.164 NA
ATOM     12  N   UNL     1     -31.974  28.741   4.325  0.00  0.00    -0.233 N 
ATOM     13  C   UNL     1     -32.818  27.739   3.857  0.00  0.00    +0.333 C 
ATOM     14  C   UNL     1     -32.209  27.937   6.551  0.00  0.00    +0.176 C 
ATOM     15  C   UNL     1     -31.611  28.928   5.630  0.00  0.00    +0.274 C 
ATOM     16  H   UNL     1     -31.608  29.369   3.661  0.00  0.00    +0.160 HD
ENDBRANCH   2  10
BRANCH   3  17
ATOM     17  O   UNL     1     -36.998  22.765   3.844  0.00  0.00    -0.454 OA
BRANCH  17  18
ATOM     18  C   UNL     1     -36.661  21.837   2.874  0.00  0.00    +0.145 C 
ATOM     19  C   UNL     1     -37.513  21.619   1.792  0.00  0.00    +0.039 C 
ATOM     20  C   UNL     1     -35.469  21.119   2.980  0.00  0.00    +0.039 C 
ATOM     21  C   UNL     1     -35.982  19.965   0.921  0.00  0.00    +0.143 C 
ATOM     22  C   UNL     1     -37.174  20.683   0.815  0.00  0.00    +0.027 C 
ATOM     23  C   UNL     1     -35.130  20.183   2.003  0.00  0.00    +0.027 C 
BRANCH  21  26
ATOM     24  O   UNL     1     -34.564  18.369   0.048  0.00  0.00    -0.126 OA
ATOM     25  O   UNL     1     -36.409  18.840  -1.047  0.00  0.00    -0.126 OA
ATOM     26  N   UNL     1     -35.635  19.012  -0.073  0.00  0.00    +0.058 N 
ENDBRANCH  21  26
ENDBRANCH  17  18
ENDBRANCH   3  17
TORSDOF 4
ENDMDL
MODEL 4
REMARK VINA RESULT:      -6.8      1.158      1.872
REMARK  Name = 56962655
REMARK  4 active torsions:
REMARK  status: ('A' for Active; 'I' for Inactive)
REMARK    1  A    between atoms: C_2  and  N_10
REMARK    2  A    between atoms: C_3  and  O_17
REMARK    3  A    between atoms: O_17  and  C_18
REMARK    4  A    between atoms: C_21  and  N_26
REMARK                            x       y       z     vdW  Elec       q    Type
REMARK                         _______ _______ _______ _____ _____    ______ ____
ROOT
ATOM      1  C   UNL     1     -35.656  22.077   4.388  0.00  0.00    +0.014 C 
ATOM      2  C   UNL     1     -35.964  21.068   2.214  0.00  0.00    +0.078 C 
ATOM      3  C   UNL     1     -36.254  23.251   3.928  0.00  0.00    +0.141 C 
ATOM      4  C   UNL     1     -35.510  20.987   3.530  0.00  0.00    +0.016 C 
ATOM      5  C   UNL     1     -36.564  22.242   1.755  0.00  0.00    +0.020 C 
ATOM      6  C   UNL     1     -36.709  23.332   2.611  0.00  0.00    +0.039 C 
ATOM      7  C   UNL     1     -35.164  21.971   5.793  0.00  0.00    +0.034 C 
ENDROOT
BRANCH   2  10
ATOM      8  O   UNL     1     -33.487  19.622   1.478  0.00  0.00    -0.250 OA
ATOM      9  O   UNL     1     -35.955  16.778  -1.133  0.00  0.00    -0.268 OA
ATOM     10  N   UNL     1     -35.813  19.940   1.326  0.00  0.00    -0.142 N 
ATOM     11  N   UNL     1     -36.992  19.554   0.739  0.00  0.00    -0.164 NA
ATOM     12  N   UNL     1     -34.684  18.187   0.213  0.00  0.00    -0.233 N 
ATOM     13  C   UNL     1     -34.597  19.290   1.056  0.00  0.00    +0.333 C 
ATOM     14  C   UNL     1     -37.020  18.540  -0.052  0.00  0.00    +0.176 C 
ATOM     15  C   UNL     1     -35.827  17.733  -0.384  0.00  0.00    +0.274 C 
ATOM     16  H   UNL     1     -33.852  17.692   0.031  0.00  0.00    +0.160 HD
ENDBRANCH   2  10
BRANCH   3  17
ATOM     17  O   UNL     1     -36.405  24.325   4.752  0.00  0.00    -0.454 OA
BRANCH  17  18
ATOM     18  C   UNL     1     -35.393  25.269   4.769  0.00  0.00    +0.145 C 
ATOM     19  C   UNL     1     -35.070  25.966   3.605  0.00  0.00    +0.039 C 
ATOM     20  C   UNL     1     -34.697  25.524   5.951  0.00  0.00    +0.039 C 
ATOM     21  C   UNL     1     -33.353  27.171   4.805  0.00  0.00    +0.143 C 
ATOM     22  C   UNL     1     -34.049  26.917   3.622  0.00  0.00    +0.027 C 
ATOM     23  C   UNL     1     -33.677  26.474   5.968  0.00  0.00    +0.027 C 
BRANCH  21  26
ATOM     24  O   UNL     1     -31.148  27.784   4.527  0.00  0.00    -0.126 OA
ATOM     25  O   UNL     1     -32.591  29.323   5.136  0.00  0.00    -0.126 OA
ATOM     26  N   UNL     1     -32.315  28.139   4.823  0.00  0.00    +0.058 N 
ENDBRANCH  21  26
ENDBRANCH  17  18
ENDBRANCH   3  17
TORSDOF 4
ENDMDL
MODEL 5
REMARK VINA RESULT:      -6.6      1.328      2.094
REMARK  Name = 56962655
REMARK  4 active torsions:
REMARK  status: ('A' for Active; 'I' for Inactive)
REMARK    1  A    between atoms: C_2  and  N_10
REMARK    2  A    between atoms: C_3  and  O_17
REMARK    3  A    between atoms: O_17  and  C_18
REMARK    4  A    between atoms: C_21  and  N_26
REMARK                            x       y       z     vdW  Elec       q    Type
REMARK                         _______ _______ _______ _____ _____    ______ ____
ROOT
ATOM      1  C   UNL     1     -35.781  22.692   1.069  0.00  0.00    +0.014 C 
ATOM      2  C   UNL     1     -35.039  20.441   1.534  0.00  0.00    +0.078 C 
ATOM      3  C   UNL     1     -35.988  22.906   2.432  0.00  0.00    +0.141 C 
ATOM      4  C   UNL     1     -35.307  21.459   0.620  0.00  0.00    +0.016 C 
ATOM      5  C   UNL     1     -35.245  20.655   2.898  0.00  0.00    +0.020 C 
ATOM      6  C   UNL     1     -35.719  21.887   3.346  0.00  0.00    +0.039 C 
ATOM      7  C   UNL     1     -36.063  23.770   0.076  0.00  0.00    +0.034 C 
ENDROOT
BRANCH   2  10
ATOM      8  O   UNL     1     -36.471  18.375  -0.031  0.00  0.00    -0.250 OA
ATOM      9  O   UNL     1     -32.680  15.802  -0.056  0.00  0.00    -0.268 OA
ATOM     10  N   UNL     1     -34.548  19.164   1.071  0.00  0.00    -0.142 N 
ATOM     11  N   UNL     1     -33.261  18.903   1.471  0.00  0.00    -0.164 NA
ATOM     12  N   UNL     1     -34.607  17.104  -0.087  0.00  0.00    -0.233 N 
ATOM     13  C   UNL     1     -35.290  18.253   0.301  0.00  0.00    +0.333 C 
ATOM     14  C   UNL     1     -32.678  17.817   1.106  0.00  0.00    +0.176 C 
ATOM     15  C   UNL     1     -33.320  16.794   0.253  0.00  0.00    +0.274 C 
ATOM     16  H   UNL     1     -35.092  16.462  -0.655  0.00  0.00    +0.160 HD
ENDBRANCH   2  10
BRANCH   3  17
ATOM     17  O   UNL     1     -36.450  24.104   2.887  0.00  0.00    -0.454 OA
BRANCH  17  18
ATOM     18  C   UNL     1     -35.585  24.885   3.632  0.00  0.00    +0.145 C 
ATOM     19  C   UNL     1     -35.841  25.115   4.984  0.00  0.00    +0.039 C 
ATOM     20  C   UNL     1     -34.456  25.443   3.031  0.00  0.00    +0.039 C 
ATOM     21  C   UNL     1     -33.840  26.461   5.133  0.00  0.00    +0.143 C 
ATOM     22  C   UNL     1     -34.969  25.903   5.734  0.00  0.00    +0.027 C 
ATOM     23  C   UNL     1     -33.584  26.232   3.781  0.00  0.00    +0.027 C 
BRANCH  21  26
ATOM     24  O   UNL     1     -32.591  28.375   5.439  0.00  0.00    -0.126 OA
ATOM     25  O   UNL     1     -32.550  26.839   7.007  0.00  0.00    -0.126 OA
ATOM     26  N   UNL     1     -32.951  27.264   5.896  0.00  0.00    +0.058 N 
ENDBRANCH  21  26
ENDBRANCH  17  18
ENDBRANCH   3  17
TORSDOF 4
ENDMDL
MODEL 6
REMARK VINA RESULT:      -6.6      3.354      8.458
REMARK  Name = 56962655
REMARK  4 active torsions:
REMARK  status: ('A' for Active; 'I' for Inactive)
REMARK    1  A    between atoms: C_2  and  N_10
REMARK    2  A    between atoms: C_3  and  O_17
REMARK    3  A    between atoms: O_17  and  C_18
REMARK    4  A    between atoms: C_21  and  N_26
REMARK                            x       y       z     vdW  Elec       q    Type
REMARK                         _______ _______ _______ _____ _____    ______ ____
ROOT
ATOM      1  C   UNL     1     -34.929  23.660   4.926  0.00  0.00    +0.014 C 
ATOM      2  C   UNL     1     -33.913  25.733   4.215  0.00  0.00    +0.078 C 
ATOM      3  C   UNL     1     -35.020  23.248   3.596  0.00  0.00    +0.141 C 
ATOM      4  C   UNL     1     -34.377  24.902   5.235  0.00  0.00    +0.016 C 
ATOM      5  C   UNL     1     -34.002  25.320   2.885  0.00  0.00    +0.020 C 
ATOM      6  C   UNL     1     -34.555  24.079   2.575  0.00  0.00    +0.039 C 
ATOM      7  C   UNL     1     -35.420  22.784   6.030  0.00  0.00    +0.034 C 
ENDROOT
BRANCH   2  10
ATOM      8  O   UNL     1     -34.085  28.258   2.677  0.00  0.00    -0.250 OA
ATOM      9  O   UNL     1     -31.638  30.372   5.923  0.00  0.00    -0.268 OA
ATOM     10  N   UNL     1     -33.341  27.020   4.534  0.00  0.00    -0.142 N 
ATOM     11  N   UNL     1     -32.595  27.008   5.686  0.00  0.00    -0.164 NA
ATOM     12  N   UNL     1     -32.911  29.330   4.278  0.00  0.00    -0.233 N 
ATOM     13  C   UNL     1     -33.500  28.181   3.759  0.00  0.00    +0.333 C 
ATOM     14  C   UNL     1     -32.050  28.091   6.116  0.00  0.00    +0.176 C 
ATOM     15  C   UNL     1     -32.178  29.395   5.430  0.00  0.00    +0.274 C 
ATOM     16  H   UNL     1     -33.033  30.166   3.773  0.00  0.00    +0.160 HD
ENDBRANCH   2  10
BRANCH   3  17
ATOM     17  O   UNL     1     -35.556  22.037   3.275  0.00  0.00    -0.454 OA
BRANCH  17  18
ATOM     18  C   UNL     1     -36.779  22.027   2.628  0.00  0.00    +0.145 C 
ATOM     19  C   UNL     1     -37.053  21.052   1.670  0.00  0.00    +0.039 C 
ATOM     20  C   UNL     1     -37.738  22.994   2.934  0.00  0.00    +0.039 C 
ATOM     21  C   UNL     1     -39.244  22.009   1.323  0.00  0.00    +0.143 C 
ATOM     22  C   UNL     1     -38.286  21.042   1.017  0.00  0.00    +0.027 C 
ATOM     23  C   UNL     1     -38.970  22.985   2.281  0.00  0.00    +0.027 C 
BRANCH  21  26
ATOM     24  O   UNL     1     -41.095  23.089   0.470  0.00  0.00    -0.126 OA
ATOM     25  O   UNL     1     -40.979  20.904   0.279  0.00  0.00    -0.126 OA
ATOM     26  N   UNL     1     -40.499  22.000   0.659  0.00  0.00    +0.058 N 
ENDBRANCH  21  26
ENDBRANCH  17  18
ENDBRANCH   3  17
TORSDOF 4
ENDMDL
MODEL 7
REMARK VINA RESULT:      -6.6      2.898      5.171
REMARK  Name = 56962655
REMARK  4 active torsions:
REMARK  status: ('A' for Active; 'I' for Inactive)
REMARK    1  A    between atoms: C_2  and  N_10
REMARK    2  A    between atoms: C_3  and  O_17
REMARK    3  A    between atoms: O_17  and  C_18
REMARK    4  A    between atoms: C_21  and  N_26
REMARK                            x       y       z     vdW  Elec       q    Type
REMARK                         _______ _______ _______ _____ _____    ______ ____
ROOT
ATOM      1  C   UNL     1     -33.576  27.086   3.135  0.00  0.00    +0.014 C 
ATOM      2  C   UNL     1     -34.340  24.951   3.967  0.00  0.00    +0.078 C 
ATOM      3  C   UNL     1     -33.367  27.521   4.443  0.00  0.00    +0.141 C 
ATOM      4  C   UNL     1     -34.064  25.801   2.897  0.00  0.00    +0.016 C 
ATOM      5  C   UNL     1     -34.129  25.386   5.276  0.00  0.00    +0.020 C 
ATOM      6  C   UNL     1     -33.642  26.670   5.514  0.00  0.00    +0.039 C 
ATOM      7  C   UNL     1     -33.287  27.983   1.977  0.00  0.00    +0.034 C 
ENDROOT
BRANCH   2  10
ATOM      8  O   UNL     1     -35.301  22.953   5.932  0.00  0.00    -0.250 OA
ATOM      9  O   UNL     1     -36.251  20.072   2.499  0.00  0.00    -0.268 OA
ATOM     10  N   UNL     1     -34.845  23.620   3.721  0.00  0.00    -0.142 N 
ATOM     11  N   UNL     1     -34.815  23.267   2.396  0.00  0.00    -0.164 NA
ATOM     12  N   UNL     1     -35.810  21.529   4.257  0.00  0.00    -0.233 N 
ATOM     13  C   UNL     1     -35.313  22.745   4.717  0.00  0.00    +0.333 C 
ATOM     14  C   UNL     1     -35.264  22.122   2.020  0.00  0.00    +0.176 C 
ATOM     15  C   UNL     1     -35.833  21.125   2.951  0.00  0.00    +0.274 C 
ATOM     16  H   UNL     1     -36.174  20.909   4.929  0.00  0.00    +0.160 HD
ENDBRANCH   2  10
BRANCH   3  17
ATOM     17  O   UNL     1     -32.891  28.773   4.694  0.00  0.00    -0.454 OA
BRANCH  17  18
ATOM     18  C   UNL     1     -31.713  28.881   5.413  0.00  0.00    +0.145 C 
ATOM     19  C   UNL     1     -30.523  28.385   4.881  0.00  0.00    +0.039 C 
ATOM     20  C   UNL     1     -31.716  29.486   6.670  0.00  0.00    +0.039 C 
ATOM     21  C   UNL     1     -29.340  29.098   6.863  0.00  0.00    +0.143 C 
ATOM     22  C   UNL     1     -29.336  28.493   5.606  0.00  0.00    +0.027 C 
ATOM     23  C   UNL     1     -30.530  29.594   7.395  0.00  0.00    +0.027 C 
BRANCH  21  26
ATOM     24  O   UNL     1     -27.081  28.714   7.126  0.00  0.00    -0.126 OA
ATOM     25  O   UNL     1     -28.149  29.798   8.710  0.00  0.00    -0.126 OA
ATOM     26  N   UNL     1     -28.133  29.209   7.602  0.00  0.00    +0.058 N 
ENDBRANCH  21  26
ENDBRANCH  17  18
ENDBRANCH   3  17
TORSDOF 4
ENDMDL
MODEL 8
REMARK VINA RESULT:      -6.5      1.459      2.211
REMARK  Name = 56962655
REMARK  4 active torsions:
REMARK  status: ('A' for Active; 'I' for Inactive)
REMARK    1  A    between atoms: C_2  and  N_10
REMARK    2  A    between atoms: C_3  and  O_17
REMARK    3  A    between atoms: O_17  and  C_18
REMARK    4  A    between atoms: C_21  and  N_26
REMARK                            x       y       z     vdW  Elec       q    Type
REMARK                         _______ _______ _______ _____ _____    ______ ____
ROOT
ATOM      1  C   UNL     1     -37.457  22.673   2.476  0.00  0.00    +0.014 C 
ATOM      2  C   UNL     1     -36.178  20.712   1.882  0.00  0.00    +0.078 C 
ATOM      3  C   UNL     1     -36.651  22.860   3.598  0.00  0.00    +0.141 C 
ATOM      4  C   UNL     1     -37.221  21.599   1.618  0.00  0.00    +0.016 C 
ATOM      5  C   UNL     1     -35.370  20.900   3.004  0.00  0.00    +0.020 C 
ATOM      6  C   UNL     1     -35.606  21.974   3.862  0.00  0.00    +0.039 C 
ATOM      7  C   UNL     1     -38.580  23.611   2.178  0.00  0.00    +0.034 C 
ENDROOT
BRANCH   2  10
ATOM      8  O   UNL     1     -33.580  19.551   1.058  0.00  0.00    -0.250 OA
ATOM      9  O   UNL     1     -35.803  16.417  -1.438  0.00  0.00    -0.268 OA
ATOM     10  N   UNL     1     -35.932  19.600   0.995  0.00  0.00    -0.142 N 
ATOM     11  N   UNL     1     -37.080  19.075   0.457  0.00  0.00    -0.164 NA
ATOM     12  N   UNL     1     -34.652  17.976  -0.151  0.00  0.00    -0.233 N 
ATOM     13  C   UNL     1     -34.660  19.090   0.682  0.00  0.00    +0.333 C 
ATOM     14  C   UNL     1     -37.022  18.057  -0.327  0.00  0.00    +0.176 C 
ATOM     15  C   UNL     1     -35.757  17.388  -0.701  0.00  0.00    +0.274 C 
ATOM     16  H   UNL     1     -33.777  17.578  -0.362  0.00  0.00    +0.160 HD
ENDBRANCH   2  10
BRANCH   3  17
ATOM     17  O   UNL     1     -36.867  23.904   4.446  0.00  0.00    -0.454 OA
BRANCH  17  18
ATOM     18  C   UNL     1     -35.875  24.864   4.550  0.00  0.00    +0.145 C 
ATOM     19  C   UNL     1     -35.104  24.948   5.709  0.00  0.00    +0.039 C 
ATOM     20  C   UNL     1     -35.647  25.748   3.495  0.00  0.00    +0.039 C 
ATOM     21  C   UNL     1     -33.877  26.799   4.758  0.00  0.00    +0.143 C 
ATOM     22  C   UNL     1     -34.105  25.916   5.813  0.00  0.00    +0.027 C 
ATOM     23  C   UNL     1     -34.649  26.716   3.599  0.00  0.00    +0.027 C 
BRANCH  21  26
ATOM     24  O   UNL     1     -31.846  27.540   5.561  0.00  0.00    -0.126 OA
ATOM     25  O   UNL     1     -33.004  28.874   4.256  0.00  0.00    -0.126 OA
ATOM     26  N   UNL     1     -32.861  27.785   4.863  0.00  0.00    +0.058 N 
ENDBRANCH  21  26
ENDBRANCH  17  18
ENDBRANCH   3  17
TORSDOF 4
ENDMDL
MODEL 9
REMARK VINA RESULT:      -6.5      2.150      8.909
REMARK  Name = 56962655
REMARK  4 active torsions:
REMARK  status: ('A' for Active; 'I' for Inactive)
REMARK    1  A    between atoms: C_2  and  N_10
REMARK    2  A    between atoms: C_3  and  O_17
REMARK    3  A    between atoms: O_17  and  C_18
REMARK    4  A    between atoms: C_21  and  N_26
REMARK                            x       y       z     vdW  Elec       q    Type
REMARK                         _______ _______ _______ _____ _____    ______ ____
ROOT
ATOM      1  C   UNL     1     -34.628  27.110   3.701  0.00  0.00    +0.014 C 
ATOM      2  C   UNL     1     -32.711  27.729   5.034  0.00  0.00    +0.078 C 
ATOM      3  C   UNL     1     -35.041  26.232   4.703  0.00  0.00    +0.141 C 
ATOM      4  C   UNL     1     -33.462  27.858   3.866  0.00  0.00    +0.016 C 
ATOM      5  C   UNL     1     -33.125  26.852   6.037  0.00  0.00    +0.020 C 
ATOM      6  C   UNL     1     -34.290  26.104   5.871  0.00  0.00    +0.039 C 
ATOM      7  C   UNL     1     -35.419  27.261   2.444  0.00  0.00    +0.034 C 
ENDROOT
BRANCH   2  10
ATOM      8  O   UNL     1     -32.434  30.528   5.964  0.00  0.00    -0.250 OA
ATOM      9  O   UNL     1     -27.880  30.168   5.606  0.00  0.00    -0.268 OA
ATOM     10  N   UNL     1     -31.504  28.503   5.206  0.00  0.00    -0.142 N 
ATOM     11  N   UNL     1     -30.370  27.824   4.837  0.00  0.00    -0.164 NA
ATOM     12  N   UNL     1     -30.187  30.365   5.829  0.00  0.00    -0.233 N 
ATOM     13  C   UNL     1     -31.461  29.823   5.687  0.00  0.00    +0.333 C 
ATOM     14  C   UNL     1     -29.215  28.374   4.966  0.00  0.00    +0.176 C 
ATOM     15  C   UNL     1     -29.017  29.737   5.506  0.00  0.00    +0.274 C 
ATOM     16  H   UNL     1     -30.124  31.278   6.194  0.00  0.00    +0.160 HD
ENDBRANCH   2  10
BRANCH   3  17
ATOM     17  O   UNL     1     -36.177  25.494   4.558  0.00  0.00    -0.454 OA
BRANCH  17  18
ATOM     18  C   UNL     1     -36.055  24.225   4.018  0.00  0.00    +0.145 C 
ATOM     19  C   UNL     1     -35.545  23.184   4.792  0.00  0.00    +0.039 C 
ATOM     20  C   UNL     1     -36.444  23.989   2.699  0.00  0.00    +0.039 C 
ATOM     21  C   UNL     1     -35.810  21.670   2.928  0.00  0.00    +0.143 C 
ATOM     22  C   UNL     1     -35.421  21.906   4.247  0.00  0.00    +0.027 C 
ATOM     23  C   UNL     1     -36.320  22.711   2.154  0.00  0.00    +0.027 C 
BRANCH  21  26
ATOM     24  O   UNL     1     -34.595  19.758   2.494  0.00  0.00    -0.126 OA
ATOM     25  O   UNL     1     -36.667  19.866   1.774  0.00  0.00    -0.126 OA
ATOM     26  N   UNL     1     -35.685  20.369   2.372  0.00  0.00    +0.058 N 
ENDBRANCH  21  26
ENDBRANCH  17  18
ENDBRANCH   3  17
TORSDOF 4
ENDMDL
