MODEL 1
REMARK VINA RESULT:      -7.0      0.000      0.000
REMARK  Name = 54712251
REMARK  5 active torsions:
REMARK  status: ('A' for Active; 'I' for Inactive)
REMARK    1  A    between atoms: C_4  and  O_27
REMARK    2  A    between atoms: C_7  and  C_14
REMARK    3  A    between atoms: C_9  and  C_21
REMARK    4  A    between atoms: C_10  and  O_29
REMARK    5  A    between atoms: C_16  and  O_19
REMARK                            x       y       z     vdW  Elec       q    Type
REMARK                         _______ _______ _______ _____ _____    ______ ____
ROOT
ATOM      1  O   UNL     1     -41.736  23.940   0.422  0.00  0.00    -0.291 OA
ATOM      2  C   UNL     1     -38.845  24.852   3.296  0.00  0.00    +0.056 C 
ATOM      3  C   UNL     1     -38.590  23.854   2.197  0.00  0.00    -0.011 C 
ATOM      4  C   UNL     1     -39.914  25.873   2.922  0.00  0.00    +0.123 C 
ATOM      5  C   UNL     1     -41.167  25.220   2.359  0.00  0.00    +0.099 C 
ATOM      6  C   UNL     1     -39.558  23.551   1.231  0.00  0.00    +0.065 C 
ATOM      7  C   UNL     1     -37.362  23.175   2.163  0.00  0.00    +0.031 C 
ATOM      8  C   UNL     1     -40.880  24.225   1.254  0.00  0.00    +0.178 C 
ATOM      9  C   UNL     1     -37.098  22.231   1.170  0.00  0.00    +0.006 C 
ATOM     10  C   UNL     1     -39.291  22.604   0.233  0.00  0.00    +0.136 C 
ATOM     11  C   UNL     1     -38.061  21.948   0.205  0.00  0.00    +0.037 C 
ENDROOT
BRANCH   7  14
ATOM     12  O   UNL     1     -36.510  22.717   4.401  0.00  0.00    -0.421 OA
ATOM     13  O   UNL     1     -35.774  22.252   6.500  0.00  0.00    -0.244 OA
ATOM     14  C   UNL     1     -36.333  23.432   3.187  0.00  0.00    +0.151 C 
ATOM     15  C   UNL     1     -35.307  24.281   3.026  0.00  0.00    +0.074 C 
ATOM     16  C   UNL     1     -34.372  24.454   4.099  0.00  0.00    +0.143 C 
ATOM     17  C   UNL     1     -35.637  22.862   5.446  0.00  0.00    +0.349 C 
ATOM     18  C   UNL     1     -34.508  23.794   5.255  0.00  0.00    +0.119 C 
BRANCH  16  19
ATOM     19  O   UNL     1     -33.348  25.339   3.847  0.00  0.00    -0.505 OA
ATOM     20  H   UNL     1     -32.601  25.060   3.356  0.00  0.00    +0.292 HD
ENDBRANCH  16  19
ENDBRANCH   7  14
BRANCH   9  21
ATOM     21  C   UNL     1     -35.836  21.515   1.105  0.00  0.00    +0.000 C 
ATOM     22  C   UNL     1     -35.646  20.365   1.871  0.00  0.00    +0.000 C 
ATOM     23  C   UNL     1     -34.815  21.976   0.275  0.00  0.00    +0.000 C 
ATOM     24  C   UNL     1     -34.435  19.676   1.808  0.00  0.00    +0.000 C 
ATOM     25  C   UNL     1     -33.603  21.288   0.212  0.00  0.00    +0.000 C 
ATOM     26  C   UNL     1     -33.413  20.138   0.978  0.00  0.00    +0.000 C 
ENDBRANCH   9  21
BRANCH   4  27
ATOM     27  O   UNL     1     -39.393  26.825   1.995  0.00  0.00    -0.384 OA
ATOM     28  H   UNL     1     -39.666  27.717   2.259  0.00  0.00    +0.210 HD
ENDBRANCH   4  27
BRANCH  10  29
ATOM     29  O   UNL     1     -40.192  22.277  -0.737  0.00  0.00    -0.505 OA
ATOM     30  H   UNL     1     -40.862  21.646  -0.561  0.00  0.00    +0.292 HD
ENDBRANCH  10  29
TORSDOF 5
ENDMDL
MODEL 2
REMARK VINA RESULT:      -6.6      2.812      5.325
REMARK  Name = 54712251
REMARK  5 active torsions:
REMARK  status: ('A' for Active; 'I' for Inactive)
REMARK    1  A    between atoms: C_4  and  O_27
REMARK    2  A    between atoms: C_7  and  C_14
REMARK    3  A    between atoms: C_9  and  C_21
REMARK    4  A    between atoms: C_10  and  O_29
REMARK    5  A    between atoms: C_16  and  O_19
REMARK                            x       y       z     vdW  Elec       q    Type
REMARK                         _______ _______ _______ _____ _____    ______ ____
ROOT
ATOM      1  O   UNL     1     -38.533  24.330   3.496  0.00  0.00    -0.291 OA
ATOM      2  C   UNL     1     -38.859  21.449   0.489  0.00  0.00    +0.056 C 
ATOM      3  C   UNL     1     -37.567  21.690   1.225  0.00  0.00    -0.011 C 
ATOM      4  C   UNL     1     -40.081  21.861   1.301  0.00  0.00    +0.123 C 
ATOM      5  C   UNL     1     -39.941  23.257   1.889  0.00  0.00    +0.099 C 
ATOM      6  C   UNL     1     -37.459  22.654   2.236  0.00  0.00    +0.065 C 
ATOM      7  C   UNL     1     -36.426  20.959   0.859  0.00  0.00    +0.031 C 
ATOM      8  C   UNL     1     -38.636  23.468   2.626  0.00  0.00    +0.178 C 
ATOM      9  C   UNL     1     -35.208  21.169   1.508  0.00  0.00    +0.006 C 
ATOM     10  C   UNL     1     -36.236  22.862   2.888  0.00  0.00    +0.136 C 
ATOM     11  C   UNL     1     -35.115  22.118   2.522  0.00  0.00    +0.037 C 
ENDROOT
BRANCH   7  14
ATOM     12  O   UNL     1     -36.876  18.663   0.176  0.00  0.00    -0.421 OA
ATOM     13  O   UNL     1     -37.303  16.504  -0.392  0.00  0.00    -0.244 OA
ATOM     14  C   UNL     1     -36.486  19.966  -0.230  0.00  0.00    +0.151 C 
ATOM     15  C   UNL     1     -36.186  20.234  -1.508  0.00  0.00    +0.074 C 
ATOM     16  C   UNL     1     -36.274  19.181  -2.479  0.00  0.00    +0.143 C 
ATOM     17  C   UNL     1     -36.967  17.635  -0.725  0.00  0.00    +0.349 C 
ATOM     18  C   UNL     1     -36.641  17.942  -2.131  0.00  0.00    +0.119 C 
BRANCH  16  19
ATOM     19  O   UNL     1     -35.954  19.544  -3.767  0.00  0.00    -0.505 OA
ATOM     20  H   UNL     1     -36.621  19.571  -4.424  0.00  0.00    +0.292 HD
ENDBRANCH  16  19
ENDBRANCH   7  14
BRANCH   9  21
ATOM     21  C   UNL     1     -34.011  20.426   1.157  0.00  0.00    +0.000 C 
ATOM     22  C   UNL     1     -33.074  20.983   0.288  0.00  0.00    +0.000 C 
ATOM     23  C   UNL     1     -33.798  19.155   1.690  0.00  0.00    +0.000 C 
ATOM     24  C   UNL     1     -31.923  20.271  -0.049  0.00  0.00    +0.000 C 
ATOM     25  C   UNL     1     -32.648  18.441   1.353  0.00  0.00    +0.000 C 
ATOM     26  C   UNL     1     -31.710  19.000   0.483  0.00  0.00    +0.000 C 
ENDBRANCH   9  21
BRANCH   4  27
ATOM     27  O   UNL     1     -40.337  20.910   2.335  0.00  0.00    -0.384 OA
ATOM     28  H   UNL     1     -39.514  20.455   2.567  0.00  0.00    +0.210 HD
ENDBRANCH   4  27
BRANCH  10  29
ATOM     29  O   UNL     1     -36.076  23.779   3.884  0.00  0.00    -0.505 OA
ATOM     30  H   UNL     1     -36.738  23.880   4.539  0.00  0.00    +0.292 HD
ENDBRANCH  10  29
TORSDOF 5
ENDMDL
MODEL 3
REMARK VINA RESULT:      -6.3      0.901      1.718
REMARK  Name = 54712251
REMARK  5 active torsions:
REMARK  status: ('A' for Active; 'I' for Inactive)
REMARK    1  A    between atoms: C_4  and  O_27
REMARK    2  A    between atoms: C_7  and  C_14
REMARK    3  A    between atoms: C_9  and  C_21
REMARK    4  A    between atoms: C_10  and  O_29
REMARK    5  A    between atoms: C_16  and  O_19
REMARK                            x       y       z     vdW  Elec       q    Type
REMARK                         _______ _______ _______ _____ _____    ______ ____
ROOT
ATOM      1  O   UNL     1     -41.001  24.426  -0.183  0.00  0.00    -0.291 OA
ATOM      2  C   UNL     1     -38.596  24.463   3.232  0.00  0.00    +0.056 C 
ATOM      3  C   UNL     1     -38.193  23.728   1.981  0.00  0.00    -0.011 C 
ATOM      4  C   UNL     1     -39.559  25.611   2.951  0.00  0.00    +0.123 C 
ATOM      5  C   UNL     1     -40.721  25.189   2.066  0.00  0.00    +0.099 C 
ATOM      6  C   UNL     1     -38.998  23.719   0.834  0.00  0.00    +0.065 C 
ATOM      7  C   UNL     1     -36.996  22.994   1.976  0.00  0.00    +0.031 C 
ATOM      8  C   UNL     1     -40.285  24.456   0.814  0.00  0.00    +0.178 C 
ATOM      9  C   UNL     1     -36.600  22.287   0.840  0.00  0.00    +0.006 C 
ATOM     10  C   UNL     1     -38.598  23.009  -0.306  0.00  0.00    +0.136 C 
ATOM     11  C   UNL     1     -37.399  22.297  -0.300  0.00  0.00    +0.037 C 
ENDROOT
BRANCH   7  14
ATOM     12  O   UNL     1     -35.246  24.035   3.316  0.00  0.00    -0.421 OA
ATOM     13  O   UNL     1     -33.606  25.054   4.515  0.00  0.00    -0.244 OA
ATOM     14  C   UNL     1     -36.141  22.942   3.176  0.00  0.00    +0.151 C 
ATOM     15  C   UNL     1     -36.168  21.948   4.075  0.00  0.00    +0.074 C 
ATOM     16  C   UNL     1     -35.281  22.003   5.201  0.00  0.00    +0.143 C 
ATOM     17  C   UNL     1     -34.385  24.117   4.378  0.00  0.00    +0.349 C 
ATOM     18  C   UNL     1     -34.427  23.020   5.365  0.00  0.00    +0.119 C 
BRANCH  16  19
ATOM     19  O   UNL     1     -35.378  20.946   6.076  0.00  0.00    -0.505 OA
ATOM     20  H   UNL     1     -35.969  20.242   5.895  0.00  0.00    +0.292 HD
ENDBRANCH  16  19
ENDBRANCH   7  14
BRANCH   9  21
ATOM     21  C   UNL     1     -35.366  21.523   0.800  0.00  0.00    +0.000 C 
ATOM     22  C   UNL     1     -35.337  20.218   1.293  0.00  0.00    +0.000 C 
ATOM     23  C   UNL     1     -34.209  22.093   0.270  0.00  0.00    +0.000 C 
ATOM     24  C   UNL     1     -34.153  19.483   1.255  0.00  0.00    +0.000 C 
ATOM     25  C   UNL     1     -33.024  21.358   0.231  0.00  0.00    +0.000 C 
ATOM     26  C   UNL     1     -32.996  20.053   0.724  0.00  0.00    +0.000 C 
ENDBRANCH   9  21
BRANCH   4  27
ATOM     27  O   UNL     1     -38.865  26.713   2.367  0.00  0.00    -0.384 OA
ATOM     28  H   UNL     1     -37.910  26.556   2.413  0.00  0.00    +0.210 HD
ENDBRANCH   4  27
BRANCH  10  29
ATOM     29  O   UNL     1     -39.337  22.973  -1.452  0.00  0.00    -0.505 OA
ATOM     30  H   UNL     1     -39.288  23.681  -2.063  0.00  0.00    +0.292 HD
ENDBRANCH  10  29
TORSDOF 5
ENDMDL
MODEL 4
REMARK VINA RESULT:      -6.3      2.338      5.276
REMARK  Name = 54712251
REMARK  5 active torsions:
REMARK  status: ('A' for Active; 'I' for Inactive)
REMARK    1  A    between atoms: C_4  and  O_27
REMARK    2  A    between atoms: C_7  and  C_14
REMARK    3  A    between atoms: C_9  and  C_21
REMARK    4  A    between atoms: C_10  and  O_29
REMARK    5  A    between atoms: C_16  and  O_19
REMARK                            x       y       z     vdW  Elec       q    Type
REMARK                         _______ _______ _______ _____ _____    ______ ____
ROOT
ATOM      1  O   UNL     1     -36.989  18.078  -0.522  0.00  0.00    -0.291 OA
ATOM      2  C   UNL     1     -38.998  21.694   0.061  0.00  0.00    +0.056 C 
ATOM      3  C   UNL     1     -37.706  21.377   0.768  0.00  0.00    -0.011 C 
ATOM      4  C   UNL     1     -39.155  20.923  -1.245  0.00  0.00    +0.123 C 
ATOM      5  C   UNL     1     -38.876  19.438  -1.078  0.00  0.00    +0.099 C 
ATOM      6  C   UNL     1     -37.031  20.165   0.569  0.00  0.00    +0.065 C 
ATOM      7  C   UNL     1     -37.185  22.302   1.685  0.00  0.00    +0.031 C 
ATOM      8  C   UNL     1     -37.570  19.150  -0.368  0.00  0.00    +0.178 C 
ATOM      9  C   UNL     1     -36.000  22.033   2.371  0.00  0.00    +0.006 C 
ATOM     10  C   UNL     1     -35.840  19.897   1.258  0.00  0.00    +0.136 C 
ATOM     11  C   UNL     1     -35.328  20.833   2.155  0.00  0.00    +0.037 C 
ENDROOT
BRANCH   7  14
ATOM     12  O   UNL     1     -37.563  24.630   1.070  0.00  0.00    -0.421 OA
ATOM     13  O   UNL     1     -37.862  26.796   0.448  0.00  0.00    -0.244 OA
ATOM     14  C   UNL     1     -37.888  23.570   1.956  0.00  0.00    +0.151 C 
ATOM     15  C   UNL     1     -38.757  23.748   2.961  0.00  0.00    +0.074 C 
ATOM     16  C   UNL     1     -39.374  25.032   3.129  0.00  0.00    +0.143 C 
ATOM     17  C   UNL     1     -38.131  25.869   1.204  0.00  0.00    +0.349 C 
ATOM     18  C   UNL     1     -39.091  26.052   2.310  0.00  0.00    +0.119 C 
BRANCH  16  19
ATOM     19  O   UNL     1     -40.256  25.125   4.181  0.00  0.00    -0.505 OA
ATOM     20  H   UNL     1     -41.159  25.311   4.017  0.00  0.00    +0.292 HD
ENDBRANCH  16  19
ENDBRANCH   7  14
BRANCH   9  21
ATOM     21  C   UNL     1     -35.432  22.971   3.323  0.00  0.00    +0.000 C 
ATOM     22  C   UNL     1     -34.693  24.064   2.869  0.00  0.00    +0.000 C 
ATOM     23  C   UNL     1     -35.624  22.781   4.691  0.00  0.00    +0.000 C 
ATOM     24  C   UNL     1     -34.147  24.966   3.782  0.00  0.00    +0.000 C 
ATOM     25  C   UNL     1     -35.079  23.682   5.604  0.00  0.00    +0.000 C 
ATOM     26  C   UNL     1     -34.340  24.775   5.149  0.00  0.00    +0.000 C 
ENDBRANCH   9  21
BRANCH   4  27
ATOM     27  O   UNL     1     -38.311  21.476  -2.255  0.00  0.00    -0.384 OA
ATOM     28  H   UNL     1     -37.559  20.883  -2.408  0.00  0.00    +0.210 HD
ENDBRANCH   4  27
BRANCH  10  29
ATOM     29  O   UNL     1     -35.137  18.741   1.097  0.00  0.00    -0.505 OA
ATOM     30  H   UNL     1     -34.780  18.301   1.843  0.00  0.00    +0.292 HD
ENDBRANCH  10  29
TORSDOF 5
ENDMDL
MODEL 5
REMARK VINA RESULT:      -6.2      2.923      6.057
REMARK  Name = 54712251
REMARK  5 active torsions:
REMARK  status: ('A' for Active; 'I' for Inactive)
REMARK    1  A    between atoms: C_4  and  O_27
REMARK    2  A    between atoms: C_7  and  C_14
REMARK    3  A    between atoms: C_9  and  C_21
REMARK    4  A    between atoms: C_10  and  O_29
REMARK    5  A    between atoms: C_16  and  O_19
REMARK                            x       y       z     vdW  Elec       q    Type
REMARK                         _______ _______ _______ _____ _____    ______ ____
ROOT
ATOM      1  O   UNL     1     -32.389  29.257   1.651  0.00  0.00    -0.291 OA
ATOM      2  C   UNL     1     -36.281  27.784   1.285  0.00  0.00    +0.056 C 
ATOM      3  C   UNL     1     -35.234  27.076   2.104  0.00  0.00    -0.011 C 
ATOM      4  C   UNL     1     -36.001  29.276   1.142  0.00  0.00    +0.123 C 
ATOM      5  C   UNL     1     -34.569  29.559   0.716  0.00  0.00    +0.099 C 
ATOM      6  C   UNL     1     -33.930  27.572   2.230  0.00  0.00    +0.065 C 
ATOM      7  C   UNL     1     -35.560  25.860   2.725  0.00  0.00    +0.031 C 
ATOM      8  C   UNL     1     -33.539  28.837   1.560  0.00  0.00    +0.178 C 
ATOM      9  C   UNL     1     -34.611  25.168   3.478  0.00  0.00    +0.006 C 
ATOM     10  C   UNL     1     -32.977  26.877   2.987  0.00  0.00    +0.136 C 
ATOM     11  C   UNL     1     -33.322  25.678   3.610  0.00  0.00    +0.037 C 
ENDROOT
BRANCH   7  14
ATOM     12  O   UNL     1     -37.118  24.553   1.381  0.00  0.00    -0.421 OA
ATOM     13  O   UNL     1     -38.521  23.333   0.074  0.00  0.00    -0.244 OA
ATOM     14  C   UNL     1     -36.909  25.281   2.582  0.00  0.00    +0.151 C 
ATOM     15  C   UNL     1     -37.889  25.425   3.484  0.00  0.00    +0.074 C 
ATOM     16  C   UNL     1     -39.165  24.821   3.229  0.00  0.00    +0.143 C 
ATOM     17  C   UNL     1     -38.324  23.966   1.105  0.00  0.00    +0.349 C 
ATOM     18  C   UNL     1     -39.394  24.126   2.109  0.00  0.00    +0.119 C 
BRANCH  16  19
ATOM     19  O   UNL     1     -40.111  25.014   4.209  0.00  0.00    -0.505 OA
ATOM     20  H   UNL     1     -40.178  24.407   4.920  0.00  0.00    +0.292 HD
ENDBRANCH  16  19
ENDBRANCH   7  14
BRANCH   9  21
ATOM     21  C   UNL     1     -34.918  23.911   4.137  0.00  0.00    +0.000 C 
ATOM     22  C   UNL     1     -35.123  22.759   3.380  0.00  0.00    +0.000 C 
ATOM     23  C   UNL     1     -35.007  23.857   5.528  0.00  0.00    +0.000 C 
ATOM     24  C   UNL     1     -35.417  21.551   4.012  0.00  0.00    +0.000 C 
ATOM     25  C   UNL     1     -35.302  22.650   6.161  0.00  0.00    +0.000 C 
ATOM     26  C   UNL     1     -35.507  21.496   5.403  0.00  0.00    +0.000 C 
ENDBRANCH   9  21
BRANCH   4  27
ATOM     27  O   UNL     1     -36.301  29.958   2.359  0.00  0.00    -0.384 OA
ATOM     28  H   UNL     1     -35.550  29.880   2.968  0.00  0.00    +0.210 HD
ENDBRANCH   4  27
BRANCH  10  29
ATOM     29  O   UNL     1     -31.698  27.318   3.151  0.00  0.00    -0.505 OA
ATOM     30  H   UNL     1     -31.416  27.639   3.985  0.00  0.00    +0.292 HD
ENDBRANCH  10  29
TORSDOF 5
ENDMDL
MODEL 6
REMARK VINA RESULT:      -6.1      3.236      5.195
REMARK  Name = 54712251
REMARK  5 active torsions:
REMARK  status: ('A' for Active; 'I' for Inactive)
REMARK    1  A    between atoms: C_4  and  O_27
REMARK    2  A    between atoms: C_7  and  C_14
REMARK    3  A    between atoms: C_9  and  C_21
REMARK    4  A    between atoms: C_10  and  O_29
REMARK    5  A    between atoms: C_16  and  O_19
REMARK                            x       y       z     vdW  Elec       q    Type
REMARK                         _______ _______ _______ _____ _____    ______ ____
ROOT
ATOM      1  O   UNL     1     -36.100  24.859   5.593  0.00  0.00    -0.291 OA
ATOM      2  C   UNL     1     -34.562  25.151   1.719  0.00  0.00    +0.056 C 
ATOM      3  C   UNL     1     -34.954  23.828   2.324  0.00  0.00    -0.011 C 
ATOM      4  C   UNL     1     -35.306  26.324   2.347  0.00  0.00    +0.123 C 
ATOM      5  C   UNL     1     -35.265  26.289   3.867  0.00  0.00    +0.099 C 
ATOM      6  C   UNL     1     -35.473  23.731   3.622  0.00  0.00    +0.065 C 
ATOM      7  C   UNL     1     -34.754  22.653   1.584  0.00  0.00    +0.031 C 
ATOM      8  C   UNL     1     -35.668  24.949   4.446  0.00  0.00    +0.178 C 
ATOM      9  C   UNL     1     -35.089  21.408   2.119  0.00  0.00    +0.006 C 
ATOM     10  C   UNL     1     -35.811  22.481   4.158  0.00  0.00    +0.136 C 
ATOM     11  C   UNL     1     -35.619  21.324   3.404  0.00  0.00    +0.037 C 
ENDROOT
BRANCH   7  14
ATOM     12  O   UNL     1     -32.750  22.661   0.195  0.00  0.00    -0.421 OA
ATOM     13  O   UNL     1     -30.843  22.673  -1.040  0.00  0.00    -0.244 OA
ATOM     14  C   UNL     1     -34.169  22.707   0.231  0.00  0.00    +0.151 C 
ATOM     15  C   UNL     1     -34.888  22.809  -0.895  0.00  0.00    +0.074 C 
ATOM     16  C   UNL     1     -34.205  22.862  -2.156  0.00  0.00    +0.143 C 
ATOM     17  C   UNL     1     -32.067  22.712  -0.990  0.00  0.00    +0.349 C 
ATOM     18  C   UNL     1     -32.869  22.818  -2.225  0.00  0.00    +0.119 C 
BRANCH  16  19
ATOM     19  O   UNL     1     -35.019  22.961  -3.260  0.00  0.00    -0.505 OA
ATOM     20  H   UNL     1     -34.915  23.677  -3.855  0.00  0.00    +0.292 HD
ENDBRANCH  16  19
ENDBRANCH   7  14
BRANCH   9  21
ATOM     21  C   UNL     1     -34.899  20.175   1.378  0.00  0.00    +0.000 C 
ATOM     22  C   UNL     1     -33.696  19.478   1.480  0.00  0.00    +0.000 C 
ATOM     23  C   UNL     1     -35.920  19.686   0.564  0.00  0.00    +0.000 C 
ATOM     24  C   UNL     1     -33.512  18.292   0.768  0.00  0.00    +0.000 C 
ATOM     25  C   UNL     1     -35.738  18.500  -0.148  0.00  0.00    +0.000 C 
ATOM     26  C   UNL     1     -34.534  17.803  -0.046  0.00  0.00    +0.000 C 
ENDBRANCH   9  21
BRANCH   4  27
ATOM     27  O   UNL     1     -36.657  26.363   1.888  0.00  0.00    -0.384 OA
ATOM     28  H   UNL     1     -36.924  25.479   1.594  0.00  0.00    +0.210 HD
ENDBRANCH   4  27
BRANCH  10  29
ATOM     29  O   UNL     1     -36.328  22.328   5.410  0.00  0.00    -0.505 OA
ATOM     30  H   UNL     1     -35.858  21.838   6.055  0.00  0.00    +0.292 HD
ENDBRANCH  10  29
TORSDOF 5
ENDMDL
MODEL 7
REMARK VINA RESULT:      -6.0      2.606      4.993
REMARK  Name = 54712251
REMARK  5 active torsions:
REMARK  status: ('A' for Active; 'I' for Inactive)
REMARK    1  A    between atoms: C_4  and  O_27
REMARK    2  A    between atoms: C_7  and  C_14
REMARK    3  A    between atoms: C_9  and  C_21
REMARK    4  A    between atoms: C_10  and  O_29
REMARK    5  A    between atoms: C_16  and  O_19
REMARK                            x       y       z     vdW  Elec       q    Type
REMARK                         _______ _______ _______ _____ _____    ______ ____
ROOT
ATOM      1  O   UNL     1     -35.573  22.860   6.512  0.00  0.00    -0.291 OA
ATOM      2  C   UNL     1     -35.953  24.924   2.901  0.00  0.00    +0.056 C 
ATOM      3  C   UNL     1     -35.683  23.443   2.948  0.00  0.00    -0.011 C 
ATOM      4  C   UNL     1     -36.647  25.432   4.160  0.00  0.00    +0.123 C 
ATOM      5  C   UNL     1     -35.961  24.956   5.431  0.00  0.00    +0.099 C 
ATOM      6  C   UNL     1     -35.559  22.750   4.159  0.00  0.00    +0.065 C 
ATOM      7  C   UNL     1     -35.507  22.742   1.745  0.00  0.00    +0.031 C 
ATOM      8  C   UNL     1     -35.706  23.464   5.451  0.00  0.00    +0.178 C 
ATOM      9  C   UNL     1     -35.237  21.373   1.751  0.00  0.00    +0.006 C 
ATOM     10  C   UNL     1     -35.290  21.375   4.165  0.00  0.00    +0.136 C 
ATOM     11  C   UNL     1     -35.132  20.690   2.960  0.00  0.00    +0.037 C 
ENDROOT
BRANCH   7  14
ATOM     12  O   UNL     1     -36.886  23.500  -0.117  0.00  0.00    -0.421 OA
ATOM     13  O   UNL     1     -38.227  24.170  -1.825  0.00  0.00    -0.244 OA
ATOM     14  C   UNL     1     -35.585  23.442   0.449  0.00  0.00    +0.151 C 
ATOM     15  C   UNL     1     -34.530  23.978  -0.182  0.00  0.00    +0.074 C 
ATOM     16  C   UNL     1     -34.730  24.628  -1.445  0.00  0.00    +0.143 C 
ATOM     17  C   UNL     1     -37.111  24.111  -1.322  0.00  0.00    +0.349 C 
ATOM     18  C   UNL     1     -35.943  24.702  -2.005  0.00  0.00    +0.119 C 
BRANCH  16  19
ATOM     19  O   UNL     1     -33.596  25.154  -2.019  0.00  0.00    -0.505 OA
ATOM     20  H   UNL     1     -33.135  25.848  -1.592  0.00  0.00    +0.292 HD
ENDBRANCH  16  19
ENDBRANCH   7  14
BRANCH   9  21
ATOM     21  C   UNL     1     -35.055  20.619   0.524  0.00  0.00    +0.000 C 
ATOM     22  C   UNL     1     -36.162  20.093  -0.142  0.00  0.00    +0.000 C 
ATOM     23  C   UNL     1     -33.774  20.420   0.011  0.00  0.00    +0.000 C 
ATOM     24  C   UNL     1     -35.988  19.369  -1.322  0.00  0.00    +0.000 C 
ATOM     25  C   UNL     1     -33.599  19.696  -1.168  0.00  0.00    +0.000 C 
ATOM     26  C   UNL     1     -34.706  19.170  -1.835  0.00  0.00    +0.000 C 
ENDBRANCH   9  21
BRANCH   4  27
ATOM     27  O   UNL     1     -38.021  25.046   4.163  0.00  0.00    -0.384 OA
ATOM     28  H   UNL     1     -38.555  25.753   4.555  0.00  0.00    +0.210 HD
ENDBRANCH   4  27
BRANCH  10  29
ATOM     29  O   UNL     1     -35.169  20.649   5.312  0.00  0.00    -0.505 OA
ATOM     30  H   UNL     1     -35.760  20.796   6.024  0.00  0.00    +0.292 HD
ENDBRANCH  10  29
TORSDOF 5
ENDMDL
MODEL 8
REMARK VINA RESULT:      -6.0      1.855      4.546
REMARK  Name = 54712251
REMARK  5 active torsions:
REMARK  status: ('A' for Active; 'I' for Inactive)
REMARK    1  A    between atoms: C_4  and  O_27
REMARK    2  A    between atoms: C_7  and  C_14
REMARK    3  A    between atoms: C_9  and  C_21
REMARK    4  A    between atoms: C_10  and  O_29
REMARK    5  A    between atoms: C_16  and  O_19
REMARK                            x       y       z     vdW  Elec       q    Type
REMARK                         _______ _______ _______ _____ _____    ______ ____
ROOT
ATOM      1  O   UNL     1     -42.283  24.619   1.070  0.00  0.00    -0.291 OA
ATOM      2  C   UNL     1     -38.957  22.272   0.130  0.00  0.00    +0.056 C 
ATOM      3  C   UNL     1     -38.922  23.303   1.228  0.00  0.00    -0.011 C 
ATOM      4  C   UNL     1     -40.367  21.763  -0.148  0.00  0.00    +0.123 C 
ATOM      5  C   UNL     1     -41.370  22.896  -0.313  0.00  0.00    +0.099 C 
ATOM      6  C   UNL     1     -40.038  24.088   1.546  0.00  0.00    +0.065 C 
ATOM      7  C   UNL     1     -37.723  23.516   1.926  0.00  0.00    +0.031 C 
ATOM      8  C   UNL     1     -41.313  23.913   0.807  0.00  0.00    +0.178 C 
ATOM      9  C   UNL     1     -37.648  24.475   2.937  0.00  0.00    +0.006 C 
ATOM     10  C   UNL     1     -39.963  25.049   2.562  0.00  0.00    +0.136 C 
ATOM     11  C   UNL     1     -38.768  25.238   3.256  0.00  0.00    +0.037 C 
ENDROOT
BRANCH   7  14
ATOM     12  O   UNL     1     -35.681  23.334   0.605  0.00  0.00    -0.421 OA
ATOM     13  O   UNL     1     -33.798  23.224  -0.662  0.00  0.00    -0.244 OA
ATOM     14  C   UNL     1     -36.512  22.742   1.593  0.00  0.00    +0.151 C 
ATOM     15  C   UNL     1     -36.198  21.562   2.146  0.00  0.00    +0.074 C 
ATOM     16  C   UNL     1     -34.994  20.899   1.735  0.00  0.00    +0.143 C 
ATOM     17  C   UNL     1     -34.527  22.727   0.188  0.00  0.00    +0.349 C 
ATOM     18  C   UNL     1     -34.188  21.431   0.808  0.00  0.00    +0.119 C 
BRANCH  16  19
ATOM     19  O   UNL     1     -34.746  19.696   2.356  0.00  0.00    -0.505 OA
ATOM     20  H   UNL     1     -33.984  19.596   2.891  0.00  0.00    +0.292 HD
ENDBRANCH  16  19
ENDBRANCH   7  14
BRANCH   9  21
ATOM     21  C   UNL     1     -36.424  24.715   3.681  0.00  0.00    +0.000 C 
ATOM     22  C   UNL     1     -35.506  25.661   3.226  0.00  0.00    +0.000 C 
ATOM     23  C   UNL     1     -36.168  24.002   4.851  0.00  0.00    +0.000 C 
ATOM     24  C   UNL     1     -34.331  25.893   3.940  0.00  0.00    +0.000 C 
ATOM     25  C   UNL     1     -34.993  24.233   5.566  0.00  0.00    +0.000 C 
ATOM     26  C   UNL     1     -34.074  25.180   5.110  0.00  0.00    +0.000 C 
ENDBRANCH   9  21
BRANCH   4  27
ATOM     27  O   UNL     1     -40.790  20.873   0.885  0.00  0.00    -0.384 OA
ATOM     28  H   UNL     1     -41.381  21.341   1.494  0.00  0.00    +0.210 HD
ENDBRANCH   4  27
BRANCH  10  29
ATOM     29  O   UNL     1     -41.019  25.833   2.919  0.00  0.00    -0.505 OA
ATOM     30  H   UNL     1     -41.082  26.166   3.793  0.00  0.00    +0.292 HD
ENDBRANCH  10  29
TORSDOF 5
ENDMDL
MODEL 9
REMARK VINA RESULT:      -5.9      2.100      5.587
REMARK  Name = 54712251
REMARK  5 active torsions:
REMARK  status: ('A' for Active; 'I' for Inactive)
REMARK    1  A    between atoms: C_4  and  O_27
REMARK    2  A    between atoms: C_7  and  C_14
REMARK    3  A    between atoms: C_9  and  C_21
REMARK    4  A    between atoms: C_10  and  O_29
REMARK    5  A    between atoms: C_16  and  O_19
REMARK                            x       y       z     vdW  Elec       q    Type
REMARK                         _______ _______ _______ _____ _____    ______ ____
ROOT
ATOM      1  O   UNL     1     -35.134  19.991  -2.611  0.00  0.00    -0.291 OA
ATOM      2  C   UNL     1     -34.045  20.812   1.338  0.00  0.00    +0.056 C 
ATOM      3  C   UNL     1     -35.238  21.463   0.688  0.00  0.00    -0.011 C 
ATOM      4  C   UNL     1     -33.687  19.475   0.699  0.00  0.00    +0.123 C 
ATOM      5  C   UNL     1     -33.611  19.560  -0.818  0.00  0.00    +0.099 C 
ATOM      6  C   UNL     1     -35.605  21.184  -0.635  0.00  0.00    +0.065 C 
ATOM      7  C   UNL     1     -35.979  22.408   1.413  0.00  0.00    +0.031 C 
ATOM      8  C   UNL     1     -34.825  20.215  -1.443  0.00  0.00    +0.178 C 
ATOM      9  C   UNL     1     -37.079  23.044   0.837  0.00  0.00    +0.006 C 
ATOM     10  C   UNL     1     -36.711  21.822  -1.212  0.00  0.00    +0.136 C 
ATOM     11  C   UNL     1     -37.446  22.749  -0.473  0.00  0.00    +0.037 C 
ENDROOT
BRANCH   7  14
ATOM     12  O   UNL     1     -34.724  23.875   2.902  0.00  0.00    -0.421 OA
ATOM     13  O   UNL     1     -33.524  25.274   4.232  0.00  0.00    -0.244 OA
ATOM     14  C   UNL     1     -35.599  22.763   2.794  0.00  0.00    +0.151 C 
ATOM     15  C   UNL     1     -36.014  22.099   3.882  0.00  0.00    +0.074 C 
ATOM     16  C   UNL     1     -35.570  22.534   5.174  0.00  0.00    +0.143 C 
ATOM     17  C   UNL     1     -34.279  24.315   4.120  0.00  0.00    +0.349 C 
ATOM     18  C   UNL     1     -34.748  23.580   5.312  0.00  0.00    +0.119 C 
BRANCH  16  19
ATOM     19  O   UNL     1     -36.048  21.800   6.236  0.00  0.00    -0.505 OA
ATOM     20  H   UNL     1     -35.871  22.076   7.112  0.00  0.00    +0.292 HD
ENDBRANCH  16  19
ENDBRANCH   7  14
BRANCH   9  21
ATOM     21  C   UNL     1     -37.870  24.023   1.562  0.00  0.00    +0.000 C 
ATOM     22  C   UNL     1     -37.507  25.369   1.536  0.00  0.00    +0.000 C 
ATOM     23  C   UNL     1     -38.992  23.617   2.283  0.00  0.00    +0.000 C 
ATOM     24  C   UNL     1     -38.266  26.310   2.232  0.00  0.00    +0.000 C 
ATOM     25  C   UNL     1     -39.752  24.557   2.979  0.00  0.00    +0.000 C 
ATOM     26  C   UNL     1     -39.389  25.904   2.953  0.00  0.00    +0.000 C 
ENDBRANCH   9  21
BRANCH   4  27
ATOM     27  O   UNL     1     -34.619  18.468   1.092  0.00  0.00    -0.384 OA
ATOM     28  H   UNL     1     -35.514  18.736   0.834  0.00  0.00    +0.210 HD
ENDBRANCH   4  27
BRANCH  10  29
ATOM     29  O   UNL     1     -37.119  21.583  -2.491  0.00  0.00    -0.505 OA
ATOM     30  H   UNL     1     -36.570  21.823  -3.211  0.00  0.00    +0.292 HD
ENDBRANCH  10  29
TORSDOF 5
ENDMDL
