MODEL 1
REMARK VINA RESULT:      -6.8      0.000      0.000
REMARK  Name = 5311123
REMARK  13 active torsions:
REMARK  status: ('A' for Active; 'I' for Inactive)
REMARK    1  A    between atoms: C_1  and  N_3
REMARK    2  A    between atoms: C_1  and  C_16
REMARK    3  A    between atoms: C_1  and  C_33
REMARK    4  A    between atoms: C_4  and  C_8
REMARK    5  A    between atoms: C_16  and  O_17
REMARK    6  A    between atoms: C_16  and  C_19
REMARK    7  A    between atoms: C_19  and  C_20
REMARK    8  A    between atoms: C_20  and  C_23
REMARK    9  A    between atoms: C_20  and  C_26
REMARK   10  A    between atoms: C_26  and  C_27
REMARK   11  A    between atoms: C_27  and  C_28
REMARK   12  A    between atoms: C_28  and  O_31
REMARK   13  A    between atoms: C_33  and  C_35
REMARK                            x       y       z     vdW  Elec       q    Type
REMARK                         _______ _______ _______ _____ _____    ______ ____
ROOT
ATOM      1  C   UNL     1     -34.751  26.603   3.893  0.00  0.00    +0.103 C 
ENDROOT
BRANCH   1   3
ATOM      2  O   UNL     1     -33.153  26.867   6.264  0.00  0.00    -0.268 OA
ATOM      3  N   UNL     1     -33.628  27.494   4.082  0.00  0.00    -0.298 N 
ATOM      4  C   UNL     1     -32.917  27.549   5.270  0.00  0.00    +0.273 C 
ATOM      5  H   UNL     1     -33.360  28.083   3.341  0.00  0.00    +0.150 HD
BRANCH   4   8
ATOM      6  N   UNL     1     -30.808  28.233   6.138  0.00  0.00    -0.402 NA
ATOM      7  N   UNL     1     -30.845  30.542   4.593  0.00  0.00    -0.264 NA
ATOM      8  C   UNL     1     -31.807  28.535   5.314  0.00  0.00    +0.186 C 
ATOM      9  C   UNL     1     -31.851  29.650   4.552  0.00  0.00    +0.188 C 
ATOM     10  C   UNL     1     -29.792  29.112   6.194  0.00  0.00    +0.126 C 
ATOM     11  C   UNL     1     -29.811  30.281   5.412  0.00  0.00    +0.084 C 
ATOM     12  C   UNL     1     -28.704  28.873   7.030  0.00  0.00    +0.086 C 
ATOM     13  C   UNL     1     -28.741  31.169   5.495  0.00  0.00    +0.073 C 
ATOM     14  C   UNL     1     -27.638  29.768   7.107  0.00  0.00    -0.023 C 
ATOM     15  C   UNL     1     -27.656  30.920   6.335  0.00  0.00    -0.024 C 
ENDBRANCH   4   8
ENDBRANCH   1   3
BRANCH   1  16
ATOM     16  C   UNL     1     -34.286  25.150   3.656  0.00  0.00    +0.129 C 
BRANCH  16  17
ATOM     17  O   UNL     1     -32.861  25.116   3.585  0.00  0.00    -0.383 OA
ATOM     18  H   UNL     1     -32.514  26.022   3.612  0.00  0.00    +0.210 HD
ENDBRANCH  16  17
BRANCH  16  19
ATOM     19  C   UNL     1     -34.753  24.185   4.761  0.00  0.00    +0.040 C 
BRANCH  19  20
ATOM     20  C   UNL     1     -35.591  22.991   4.250  0.00  0.00    +0.079 C 
BRANCH  20  23
ATOM     21  O   UNL     1     -34.956  20.739   4.923  0.00  0.00    -0.275 OA
ATOM     22  N   UNL     1     -36.042  22.060   6.453  0.00  0.00    -0.329 N 
ATOM     23  C   UNL     1     -35.483  21.810   5.217  0.00  0.00    +0.219 C 
ATOM     24  H   UNL     1     -36.027  21.366   7.149  0.00  0.00    +0.145 HD
ATOM     25  H   UNL     1     -36.456  22.934   6.637  0.00  0.00    +0.145 HD
ENDBRANCH  20  23
BRANCH  20  26
ATOM     26  C   UNL     1     -35.262  22.544   2.808  0.00  0.00    +0.012 C 
BRANCH  26  27
ATOM     27  C   UNL     1     -36.440  21.906   2.058  0.00  0.00    +0.027 C 
BRANCH  27  28
ATOM     28  C   UNL     1     -36.249  20.422   1.675  0.00  0.00    +0.088 C 
ATOM     29  C   UNL     1     -36.986  20.053   0.388  0.00  0.00    +0.029 C 
ATOM     30  C   UNL     1     -34.773  20.033   1.575  0.00  0.00    +0.029 C 
BRANCH  28  31
ATOM     31  O   UNL     1     -36.833  19.634   2.722  0.00  0.00    -0.387 OA
ATOM     32  H   UNL     1     -37.786  19.548   2.569  0.00  0.00    +0.210 HD
ENDBRANCH  28  31
ENDBRANCH  27  28
ENDBRANCH  26  27
ENDBRANCH  20  26
ENDBRANCH  19  20
ENDBRANCH  16  19
ENDBRANCH   1  16
BRANCH   1  33
ATOM     33  C   UNL     1     -35.698  27.141   2.796  0.00  0.00    +0.048 C 
BRANCH  33  35
ATOM     34  F   UNL     1     -38.051  24.441  -0.500  0.00  0.00    -0.204 F 
ATOM     35  C   UNL     1     -36.831  26.217   2.412  0.00  0.00    -0.018 C 
ATOM     36  C   UNL     1     -36.914  25.753   1.110  0.00  0.00    +0.025 C 
ATOM     37  C   UNL     1     -37.762  25.852   3.370  0.00  0.00    -0.004 C 
ATOM     38  C   UNL     1     -37.957  24.900   0.755  0.00  0.00    +0.140 C 
ATOM     39  C   UNL     1     -38.805  24.997   3.016  0.00  0.00    +0.002 C 
ATOM     40  C   UNL     1     -38.904  24.521   1.708  0.00  0.00    +0.030 C 
ENDBRANCH  33  35
ENDBRANCH   1  33
TORSDOF 13
ENDMDL
MODEL 2
REMARK VINA RESULT:      -6.8      2.552      3.910
REMARK  Name = 5311123
REMARK  13 active torsions:
REMARK  status: ('A' for Active; 'I' for Inactive)
REMARK    1  A    between atoms: C_1  and  N_3
REMARK    2  A    between atoms: C_1  and  C_16
REMARK    3  A    between atoms: C_1  and  C_33
REMARK    4  A    between atoms: C_4  and  C_8
REMARK    5  A    between atoms: C_16  and  O_17
REMARK    6  A    between atoms: C_16  and  C_19
REMARK    7  A    between atoms: C_19  and  C_20
REMARK    8  A    between atoms: C_20  and  C_23
REMARK    9  A    between atoms: C_20  and  C_26
REMARK   10  A    between atoms: C_26  and  C_27
REMARK   11  A    between atoms: C_27  and  C_28
REMARK   12  A    between atoms: C_28  and  O_31
REMARK   13  A    between atoms: C_33  and  C_35
REMARK                            x       y       z     vdW  Elec       q    Type
REMARK                         _______ _______ _______ _____ _____    ______ ____
ROOT
ATOM      1  C   UNL     1     -35.983  25.940   3.425  0.00  0.00    +0.103 C 
ENDROOT
BRANCH   1   3
ATOM      2  O   UNL     1     -33.152  25.605   3.765  0.00  0.00    -0.268 OA
ATOM      3  N   UNL     1     -35.010  26.987   3.640  0.00  0.00    -0.298 N 
ATOM      4  C   UNL     1     -33.659  26.723   3.794  0.00  0.00    +0.273 C 
ATOM      5  H   UNL     1     -35.319  27.920   3.679  0.00  0.00    +0.150 HD
BRANCH   4   8
ATOM      6  N   UNL     1     -31.704  27.677   4.763  0.00  0.00    -0.402 NA
ATOM      7  N   UNL     1     -32.338  30.182   3.743  0.00  0.00    -0.264 NA
ATOM      8  C   UNL     1     -32.792  27.906   4.034  0.00  0.00    +0.186 C 
ATOM      9  C   UNL     1     -33.125  29.113   3.526  0.00  0.00    +0.188 C 
ATOM     10  C   UNL     1     -30.904  28.733   4.993  0.00  0.00    +0.126 C 
ATOM     11  C   UNL     1     -31.226  30.001   4.477  0.00  0.00    +0.084 C 
ATOM     12  C   UNL     1     -29.744  28.582   5.747  0.00  0.00    +0.086 C 
ATOM     13  C   UNL     1     -30.374  31.073   4.734  0.00  0.00    +0.073 C 
ATOM     14  C   UNL     1     -28.897  29.661   5.999  0.00  0.00    -0.023 C 
ATOM     15  C   UNL     1     -29.214  30.911   5.490  0.00  0.00    -0.024 C 
ENDBRANCH   4   8
ENDBRANCH   1   3
BRANCH   1  16
ATOM     16  C   UNL     1     -37.207  26.458   2.638  0.00  0.00    +0.129 C 
BRANCH  16  17
ATOM     17  O   UNL     1     -36.888  27.717   2.045  0.00  0.00    -0.383 OA
ATOM     18  H   UNL     1     -37.356  28.423   2.517  0.00  0.00    +0.210 HD
ENDBRANCH  16  17
BRANCH  16  19
ATOM     19  C   UNL     1     -37.661  25.487   1.533  0.00  0.00    +0.040 C 
BRANCH  19  20
ATOM     20  C   UNL     1     -39.051  24.854   1.774  0.00  0.00    +0.079 C 
BRANCH  20  23
ATOM     21  O   UNL     1     -40.339  26.774   2.538  0.00  0.00    -0.275 OA
ATOM     22  N   UNL     1     -39.941  25.075   4.028  0.00  0.00    -0.329 N 
ATOM     23  C   UNL     1     -39.843  25.678   2.792  0.00  0.00    +0.219 C 
ATOM     24  H   UNL     1     -40.429  25.521   4.756  0.00  0.00    +0.145 HD
ATOM     25  H   UNL     1     -39.522  24.198   4.181  0.00  0.00    +0.145 HD
ENDBRANCH  20  23
BRANCH  20  26
ATOM     26  C   UNL     1     -39.018  23.366   2.188  0.00  0.00    +0.012 C 
BRANCH  26  27
ATOM     27  C   UNL     1     -38.510  22.416   1.095  0.00  0.00    +0.027 C 
BRANCH  27  28
ATOM     28  C   UNL     1     -39.558  21.420   0.551  0.00  0.00    +0.088 C 
ATOM     29  C   UNL     1     -40.595  22.096  -0.347  0.00  0.00    +0.029 C 
ATOM     30  C   UNL     1     -38.914  20.237  -0.175  0.00  0.00    +0.029 C 
BRANCH  28  31
ATOM     31  O   UNL     1     -40.273  20.896   1.679  0.00  0.00    -0.387 OA
ATOM     32  H   UNL     1     -39.651  20.465   2.284  0.00  0.00    +0.210 HD
ENDBRANCH  28  31
ENDBRANCH  27  28
ENDBRANCH  26  27
ENDBRANCH  20  26
ENDBRANCH  19  20
ENDBRANCH  16  19
ENDBRANCH   1  16
BRANCH   1  33
ATOM     33  C   UNL     1     -36.347  25.248   4.758  0.00  0.00    +0.048 C 
BRANCH  33  35
ATOM     34  F   UNL     1     -35.526  20.858   2.821  0.00  0.00    -0.204 F 
ATOM     35  C   UNL     1     -35.889  23.813   4.886  0.00  0.00    -0.018 C 
ATOM     36  C   UNL     1     -35.924  22.990   3.773  0.00  0.00    +0.025 C 
ATOM     37  C   UNL     1     -35.445  23.350   6.113  0.00  0.00    -0.004 C 
ATOM     38  C   UNL     1     -35.500  21.667   3.889  0.00  0.00    +0.140 C 
ATOM     39  C   UNL     1     -35.021  22.027   6.230  0.00  0.00    +0.002 C 
ATOM     40  C   UNL     1     -35.049  21.185   5.118  0.00  0.00    +0.030 C 
ENDBRANCH  33  35
ENDBRANCH   1  33
TORSDOF 13
ENDMDL
MODEL 3
REMARK VINA RESULT:      -6.7      5.268      8.643
REMARK  Name = 5311123
REMARK  13 active torsions:
REMARK  status: ('A' for Active; 'I' for Inactive)
REMARK    1  A    between atoms: C_1  and  N_3
REMARK    2  A    between atoms: C_1  and  C_16
REMARK    3  A    between atoms: C_1  and  C_33
REMARK    4  A    between atoms: C_4  and  C_8
REMARK    5  A    between atoms: C_16  and  O_17
REMARK    6  A    between atoms: C_16  and  C_19
REMARK    7  A    between atoms: C_19  and  C_20
REMARK    8  A    between atoms: C_20  and  C_23
REMARK    9  A    between atoms: C_20  and  C_26
REMARK   10  A    between atoms: C_26  and  C_27
REMARK   11  A    between atoms: C_27  and  C_28
REMARK   12  A    between atoms: C_28  and  O_31
REMARK   13  A    between atoms: C_33  and  C_35
REMARK                            x       y       z     vdW  Elec       q    Type
REMARK                         _______ _______ _______ _____ _____    ______ ____
ROOT
ATOM      1  C   UNL     1     -35.536  20.828   1.863  0.00  0.00    +0.103 C 
ENDROOT
BRANCH   1   3
ATOM      2  O   UNL     1     -33.584  21.031  -0.233  0.00  0.00    -0.268 OA
ATOM      3  N   UNL     1     -34.325  20.049   1.733  0.00  0.00    -0.298 N 
ATOM      4  C   UNL     1     -33.442  20.222   0.680  0.00  0.00    +0.273 C 
ATOM      5  H   UNL     1     -34.121  19.373   2.417  0.00  0.00    +0.150 HD
BRANCH   4   8
ATOM      6  N   UNL     1     -31.176  19.812   0.072  0.00  0.00    -0.402 NA
ATOM      7  N   UNL     1     -31.243  17.300   1.256  0.00  0.00    -0.264 NA
ATOM      8  C   UNL     1     -32.257  19.326   0.676  0.00  0.00    +0.186 C 
ATOM      9  C   UNL     1     -32.317  18.109   1.260  0.00  0.00    +0.188 C 
ATOM     10  C   UNL     1     -30.092  19.018   0.056  0.00  0.00    +0.126 C 
ATOM     11  C   UNL     1     -30.125  17.746   0.656  0.00  0.00    +0.084 C 
ATOM     12  C   UNL     1     -28.917  19.448  -0.555  0.00  0.00    +0.086 C 
ATOM     13  C   UNL     1     -28.982  16.951   0.622  0.00  0.00    +0.073 C 
ATOM     14  C   UNL     1     -27.778  18.645  -0.584  0.00  0.00    -0.023 C 
ATOM     15  C   UNL     1     -27.811  17.391   0.007  0.00  0.00    -0.024 C 
ENDBRANCH   4   8
ENDBRANCH   1   3
BRANCH   1  16
ATOM     16  C   UNL     1     -36.570  20.452   0.779  0.00  0.00    +0.129 C 
BRANCH  16  17
ATOM     17  O   UNL     1     -37.271  19.276   1.184  0.00  0.00    -0.383 OA
ATOM     18  H   UNL     1     -37.704  18.876   0.414  0.00  0.00    +0.210 HD
ENDBRANCH  16  17
BRANCH  16  19
ATOM     19  C   UNL     1     -37.590  21.573   0.511  0.00  0.00    +0.040 C 
BRANCH  19  20
ATOM     20  C   UNL     1     -38.892  21.459   1.335  0.00  0.00    +0.079 C 
BRANCH  20  23
ATOM     21  O   UNL     1     -40.138  20.069  -0.228  0.00  0.00    -0.275 OA
ATOM     22  N   UNL     1     -41.052  22.077   0.401  0.00  0.00    -0.329 N 
ATOM     23  C   UNL     1     -40.071  21.108   0.425  0.00  0.00    +0.219 C 
ATOM     24  H   UNL     1     -41.855  21.951  -0.154  0.00  0.00    +0.145 HD
ATOM     25  H   UNL     1     -40.948  22.894   0.939  0.00  0.00    +0.145 HD
ENDBRANCH  20  23
BRANCH  20  26
ATOM     26  C   UNL     1     -39.221  22.699   2.195  0.00  0.00    +0.012 C 
BRANCH  26  27
ATOM     27  C   UNL     1     -38.451  23.967   1.799  0.00  0.00    +0.027 C 
BRANCH  27  28
ATOM     28  C   UNL     1     -38.622  25.167   2.756  0.00  0.00    +0.088 C 
ATOM     29  C   UNL     1     -37.651  26.306   2.444  0.00  0.00    +0.029 C 
ATOM     30  C   UNL     1     -40.062  25.686   2.785  0.00  0.00    +0.029 C 
BRANCH  28  31
ATOM     31  O   UNL     1     -38.303  24.707   4.076  0.00  0.00    -0.387 OA
ATOM     32  H   UNL     1     -37.472  25.113   4.368  0.00  0.00    +0.210 HD
ENDBRANCH  28  31
ENDBRANCH  27  28
ENDBRANCH  26  27
ENDBRANCH  20  26
ENDBRANCH  19  20
ENDBRANCH  16  19
ENDBRANCH   1  16
BRANCH   1  33
ATOM     33  C   UNL     1     -35.212  22.339   1.917  0.00  0.00    +0.048 C 
BRANCH  33  35
ATOM     34  F   UNL     1     -35.927  21.991   6.719  0.00  0.00    -0.204 F 
ATOM     35  C   UNL     1     -35.199  22.946   3.301  0.00  0.00    -0.018 C 
ATOM     36  C   UNL     1     -35.578  22.170   4.384  0.00  0.00    +0.025 C 
ATOM     37  C   UNL     1     -34.810  24.265   3.459  0.00  0.00    -0.004 C 
ATOM     38  C   UNL     1     -35.565  22.729   5.661  0.00  0.00    +0.140 C 
ATOM     39  C   UNL     1     -34.796  24.825   4.736  0.00  0.00    +0.002 C 
ATOM     40  C   UNL     1     -35.175  24.056   5.838  0.00  0.00    +0.030 C 
ENDBRANCH  33  35
ENDBRANCH   1  33
TORSDOF 13
ENDMDL
MODEL 4
REMARK VINA RESULT:      -6.7      5.164      8.914
REMARK  Name = 5311123
REMARK  13 active torsions:
REMARK  status: ('A' for Active; 'I' for Inactive)
REMARK    1  A    between atoms: C_1  and  N_3
REMARK    2  A    between atoms: C_1  and  C_16
REMARK    3  A    between atoms: C_1  and  C_33
REMARK    4  A    between atoms: C_4  and  C_8
REMARK    5  A    between atoms: C_16  and  O_17
REMARK    6  A    between atoms: C_16  and  C_19
REMARK    7  A    between atoms: C_19  and  C_20
REMARK    8  A    between atoms: C_20  and  C_23
REMARK    9  A    between atoms: C_20  and  C_26
REMARK   10  A    between atoms: C_26  and  C_27
REMARK   11  A    between atoms: C_27  and  C_28
REMARK   12  A    between atoms: C_28  and  O_31
REMARK   13  A    between atoms: C_33  and  C_35
REMARK                            x       y       z     vdW  Elec       q    Type
REMARK                         _______ _______ _______ _____ _____    ______ ____
ROOT
ATOM      1  C   UNL     1     -35.682  22.427   0.921  0.00  0.00    +0.103 C 
ENDROOT
BRANCH   1   3
ATOM      2  O   UNL     1     -35.841  19.866   2.210  0.00  0.00    -0.268 OA
ATOM      3  N   UNL     1     -34.919  21.245   0.589  0.00  0.00    -0.298 N 
ATOM      4  C   UNL     1     -35.068  20.049   1.273  0.00  0.00    +0.273 C 
ATOM      5  H   UNL     1     -34.271  21.290  -0.150  0.00  0.00    +0.150 HD
BRANCH   4   8
ATOM      6  N   UNL     1     -32.902  19.074   1.117  0.00  0.00    -0.402 NA
ATOM      7  N   UNL     1     -33.919  16.864  -0.225  0.00  0.00    -0.264 NA
ATOM      8  C   UNL     1     -34.192  18.935   0.828  0.00  0.00    +0.186 C 
ATOM      9  C   UNL     1     -34.714  17.873   0.176  0.00  0.00    +0.188 C 
ATOM     10  C   UNL     1     -32.090  18.077   0.724  0.00  0.00    +0.126 C 
ATOM     11  C   UNL     1     -32.605  16.958   0.044  0.00  0.00    +0.084 C 
ATOM     12  C   UNL     1     -30.724  18.140   0.987  0.00  0.00    +0.086 C 
ATOM     13  C   UNL     1     -31.735  15.944  -0.348  0.00  0.00    +0.073 C 
ATOM     14  C   UNL     1     -29.861  17.120   0.590  0.00  0.00    -0.023 C 
ATOM     15  C   UNL     1     -30.369  16.017  -0.080  0.00  0.00    -0.024 C 
ENDBRANCH   4   8
ENDBRANCH   1   3
BRANCH   1  16
ATOM     16  C   UNL     1     -36.527  22.909  -0.278  0.00  0.00    +0.129 C 
BRANCH  16  17
ATOM     17  O   UNL     1     -36.460  21.940  -1.323  0.00  0.00    -0.383 OA
ATOM     18  H   UNL     1     -37.301  21.459  -1.372  0.00  0.00    +0.210 HD
ENDBRANCH  16  17
BRANCH  16  19
ATOM     19  C   UNL     1     -38.004  23.146   0.089  0.00  0.00    +0.040 C 
BRANCH  19  20
ATOM     20  C   UNL     1     -38.482  22.368   1.337  0.00  0.00    +0.079 C 
BRANCH  20  23
ATOM     21  O   UNL     1     -40.473  20.998   1.045  0.00  0.00    -0.275 OA
ATOM     22  N   UNL     1     -38.453  20.124   0.397  0.00  0.00    -0.329 N 
ATOM     23  C   UNL     1     -39.256  21.115   0.921  0.00  0.00    +0.219 C 
ATOM     24  H   UNL     1     -38.852  19.275   0.099  0.00  0.00    +0.145 HD
ATOM     25  H   UNL     1     -37.482  20.266   0.322  0.00  0.00    +0.145 HD
ENDBRANCH  20  23
BRANCH  20  26
ATOM     26  C   UNL     1     -39.304  23.205   2.342  0.00  0.00    +0.012 C 
BRANCH  26  27
ATOM     27  C   UNL     1     -38.541  24.388   2.955  0.00  0.00    +0.027 C 
BRANCH  27  28
ATOM     28  C   UNL     1     -38.971  25.781   2.448  0.00  0.00    +0.088 C 
ATOM     29  C   UNL     1     -37.830  26.529   1.757  0.00  0.00    +0.029 C 
ATOM     30  C   UNL     1     -40.196  25.714   1.533  0.00  0.00    +0.029 C 
BRANCH  28  31
ATOM     31  O   UNL     1     -39.333  26.560   3.597  0.00  0.00    -0.387 OA
ATOM     32  H   UNL     1     -39.236  26.020   4.397  0.00  0.00    +0.210 HD
ENDBRANCH  28  31
ENDBRANCH  27  28
ENDBRANCH  26  27
ENDBRANCH  20  26
ENDBRANCH  19  20
ENDBRANCH  16  19
ENDBRANCH   1  16
BRANCH   1  33
ATOM     33  C   UNL     1     -34.766  23.520   1.518  0.00  0.00    +0.048 C 
BRANCH  33  35
ATOM     34  F   UNL     1     -35.924  22.084   6.023  0.00  0.00    -0.204 F 
ATOM     35  C   UNL     1     -34.990  23.819   2.982  0.00  0.00    -0.018 C 
ATOM     36  C   UNL     1     -35.360  22.792   3.834  0.00  0.00    +0.025 C 
ATOM     37  C   UNL     1     -34.821  25.114   3.443  0.00  0.00    -0.004 C 
ATOM     38  C   UNL     1     -35.567  23.067   5.185  0.00  0.00    +0.140 C 
ATOM     39  C   UNL     1     -35.026  25.390   4.794  0.00  0.00    +0.002 C 
ATOM     40  C   UNL     1     -35.400  24.366   5.666  0.00  0.00    +0.030 C 
ENDBRANCH  33  35
ENDBRANCH   1  33
TORSDOF 13
ENDMDL
MODEL 5
REMARK VINA RESULT:      -6.6      3.156      8.378
REMARK  Name = 5311123
REMARK  13 active torsions:
REMARK  status: ('A' for Active; 'I' for Inactive)
REMARK    1  A    between atoms: C_1  and  N_3
REMARK    2  A    between atoms: C_1  and  C_16
REMARK    3  A    between atoms: C_1  and  C_33
REMARK    4  A    between atoms: C_4  and  C_8
REMARK    5  A    between atoms: C_16  and  O_17
REMARK    6  A    between atoms: C_16  and  C_19
REMARK    7  A    between atoms: C_19  and  C_20
REMARK    8  A    between atoms: C_20  and  C_23
REMARK    9  A    between atoms: C_20  and  C_26
REMARK   10  A    between atoms: C_26  and  C_27
REMARK   11  A    between atoms: C_27  and  C_28
REMARK   12  A    between atoms: C_28  and  O_31
REMARK   13  A    between atoms: C_33  and  C_35
REMARK                            x       y       z     vdW  Elec       q    Type
REMARK                         _______ _______ _______ _____ _____    ______ ____
ROOT
ATOM      1  C   UNL     1     -36.556  25.174   1.472  0.00  0.00    +0.103 C 
ENDROOT
BRANCH   1   3
ATOM      2  O   UNL     1     -36.602  22.934  -0.324  0.00  0.00    -0.268 OA
ATOM      3  N   UNL     1     -35.479  24.240   1.230  0.00  0.00    -0.298 N 
ATOM      4  C   UNL     1     -35.599  23.186   0.339  0.00  0.00    +0.273 C 
ATOM      5  H   UNL     1     -34.631  24.357   1.715  0.00  0.00    +0.150 HD
BRANCH   4   8
ATOM      6  N   UNL     1     -34.512  21.127   0.841  0.00  0.00    -0.402 NA
ATOM      7  N   UNL     1     -32.252  21.895  -0.582  0.00  0.00    -0.264 NA
ATOM      8  C   UNL     1     -34.412  22.300   0.222  0.00  0.00    +0.186 C 
ATOM      9  C   UNL     1     -33.326  22.699  -0.476  0.00  0.00    +0.188 C 
ATOM     10  C   UNL     1     -33.449  20.309   0.748  0.00  0.00    +0.126 C 
ATOM     11  C   UNL     1     -32.305  20.698   0.028  0.00  0.00    +0.084 C 
ATOM     12  C   UNL     1     -33.470  19.061   1.366  0.00  0.00    +0.086 C 
ATOM     13  C   UNL     1     -31.223  19.824  -0.048  0.00  0.00    +0.073 C 
ATOM     14  C   UNL     1     -32.381  18.194   1.285  0.00  0.00    -0.023 C 
ATOM     15  C   UNL     1     -31.253  18.577   0.575  0.00  0.00    -0.024 C 
ENDBRANCH   4   8
ENDBRANCH   1   3
BRANCH   1  16
ATOM     16  C   UNL     1     -36.048  26.631   1.486  0.00  0.00    +0.129 C 
BRANCH  16  17
ATOM     17  O   UNL     1     -36.805  27.386   2.432  0.00  0.00    -0.383 OA
ATOM     18  H   UNL     1     -36.280  27.515   3.237  0.00  0.00    +0.210 HD
ENDBRANCH  16  17
BRANCH  16  19
ATOM     19  C   UNL     1     -34.554  26.741   1.842  0.00  0.00    +0.040 C 
BRANCH  19  20
ATOM     20  C   UNL     1     -34.264  27.548   3.128  0.00  0.00    +0.079 C 
BRANCH  20  23
ATOM     21  O   UNL     1     -33.166  29.502   2.177  0.00  0.00    -0.275 OA
ATOM     22  N   UNL     1     -35.152  29.808   3.285  0.00  0.00    -0.329 N 
ATOM     23  C   UNL     1     -34.116  29.036   2.802  0.00  0.00    +0.219 C 
ATOM     24  H   UNL     1     -35.154  30.780   3.131  0.00  0.00    +0.145 HD
ATOM     25  H   UNL     1     -35.888  29.386   3.784  0.00  0.00    +0.145 HD
ENDBRANCH  20  23
BRANCH  20  26
ATOM     26  C   UNL     1     -33.050  27.048   3.942  0.00  0.00    +0.012 C 
BRANCH  26  27
ATOM     27  C   UNL     1     -32.955  27.632   5.359  0.00  0.00    +0.027 C 
BRANCH  27  28
ATOM     28  C   UNL     1     -31.608  28.306   5.703  0.00  0.00    +0.088 C 
ATOM     29  C   UNL     1     -30.694  28.437   4.485  0.00  0.00    +0.029 C 
ATOM     30  C   UNL     1     -31.795  29.666   6.378  0.00  0.00    +0.029 C 
BRANCH  28  31
ATOM     31  O   UNL     1     -30.930  27.452   6.634  0.00  0.00    -0.387 OA
ATOM     32  H   UNL     1     -31.543  26.776   6.960  0.00  0.00    +0.210 HD
ENDBRANCH  28  31
ENDBRANCH  27  28
ENDBRANCH  26  27
ENDBRANCH  20  26
ENDBRANCH  19  20
ENDBRANCH  16  19
ENDBRANCH   1  16
BRANCH   1  33
ATOM     33  C   UNL     1     -37.349  24.778   2.738  0.00  0.00    +0.048 C 
BRANCH  33  35
ATOM     34  F   UNL     1     -35.222  20.952   4.867  0.00  0.00    -0.204 F 
ATOM     35  C   UNL     1     -36.525  24.177   3.854  0.00  0.00    -0.018 C 
ATOM     36  C   UNL     1     -36.255  22.819   3.839  0.00  0.00    +0.025 C 
ATOM     37  C   UNL     1     -36.057  24.996   4.867  0.00  0.00    -0.004 C 
ATOM     38  C   UNL     1     -35.494  22.264   4.867  0.00  0.00    +0.140 C 
ATOM     39  C   UNL     1     -35.295  24.441   5.896  0.00  0.00    +0.002 C 
ATOM     40  C   UNL     1     -35.014  23.074   5.896  0.00  0.00    +0.030 C 
ENDBRANCH  33  35
ENDBRANCH   1  33
TORSDOF 13
ENDMDL
MODEL 6
REMARK VINA RESULT:      -6.6      5.041      8.257
REMARK  Name = 5311123
REMARK  13 active torsions:
REMARK  status: ('A' for Active; 'I' for Inactive)
REMARK    1  A    between atoms: C_1  and  N_3
REMARK    2  A    between atoms: C_1  and  C_16
REMARK    3  A    between atoms: C_1  and  C_33
REMARK    4  A    between atoms: C_4  and  C_8
REMARK    5  A    between atoms: C_16  and  O_17
REMARK    6  A    between atoms: C_16  and  C_19
REMARK    7  A    between atoms: C_19  and  C_20
REMARK    8  A    between atoms: C_20  and  C_23
REMARK    9  A    between atoms: C_20  and  C_26
REMARK   10  A    between atoms: C_26  and  C_27
REMARK   11  A    between atoms: C_27  and  C_28
REMARK   12  A    between atoms: C_28  and  O_31
REMARK   13  A    between atoms: C_33  and  C_35
REMARK                            x       y       z     vdW  Elec       q    Type
REMARK                         _______ _______ _______ _____ _____    ______ ____
ROOT
ATOM      1  C   UNL     1     -35.373  22.870   1.106  0.00  0.00    +0.103 C 
ENDROOT
BRANCH   1   3
ATOM      2  O   UNL     1     -35.342  20.161   2.055  0.00  0.00    -0.268 OA
ATOM      3  N   UNL     1     -34.335  21.889   0.882  0.00  0.00    -0.298 N 
ATOM      4  C   UNL     1     -34.412  20.600   1.384  0.00  0.00    +0.273 C 
ATOM      5  H   UNL     1     -33.546  22.146   0.354  0.00  0.00    +0.150 HD
BRANCH   4   8
ATOM      6  N   UNL     1     -32.272  20.285   0.388  0.00  0.00    -0.402 NA
ATOM      7  N   UNL     1     -32.184  17.646   1.253  0.00  0.00    -0.264 NA
ATOM      8  C   UNL     1     -33.252  19.721   1.088  0.00  0.00    +0.186 C 
ATOM      9  C   UNL     1     -33.236  18.441   1.520  0.00  0.00    +0.188 C 
ATOM     10  C   UNL     1     -31.212  19.507   0.109  0.00  0.00    +0.126 C 
ATOM     11  C   UNL     1     -31.167  18.171   0.546  0.00  0.00    +0.084 C 
ATOM     12  C   UNL     1     -30.140  20.018  -0.619  0.00  0.00    +0.086 C 
ATOM     13  C   UNL     1     -30.052  17.395   0.239  0.00  0.00    +0.073 C 
ATOM     14  C   UNL     1     -29.029  19.233  -0.922  0.00  0.00    -0.023 C 
ATOM     15  C   UNL     1     -28.985  17.916  -0.490  0.00  0.00    -0.024 C 
ENDBRANCH   4   8
ENDBRANCH   1   3
BRANCH   1  16
ATOM     16  C   UNL     1     -36.286  23.021  -0.130  0.00  0.00    +0.129 C 
BRANCH  16  17
ATOM     17  O   UNL     1     -36.143  21.872  -0.965  0.00  0.00    -0.383 OA
ATOM     18  H   UNL     1     -35.525  22.070  -1.685  0.00  0.00    +0.210 HD
ENDBRANCH  16  17
BRANCH  16  19
ATOM     19  C   UNL     1     -37.771  23.188   0.240  0.00  0.00    +0.040 C 
BRANCH  19  20
ATOM     20  C   UNL     1     -38.209  22.384   1.486  0.00  0.00    +0.079 C 
BRANCH  20  23
ATOM     21  O   UNL     1     -40.192  21.016   1.135  0.00  0.00    -0.275 OA
ATOM     22  N   UNL     1     -38.148  20.113   0.614  0.00  0.00    -0.329 N 
ATOM     23  C   UNL     1     -38.970  21.124   1.068  0.00  0.00    +0.219 C 
ATOM     24  H   UNL     1     -38.536  19.258   0.321  0.00  0.00    +0.145 HD
ATOM     25  H   UNL     1     -37.174  20.249   0.584  0.00  0.00    +0.145 HD
ENDBRANCH  20  23
BRANCH  20  26
ATOM     26  C   UNL     1     -39.026  23.193   2.519  0.00  0.00    +0.012 C 
BRANCH  26  27
ATOM     27  C   UNL     1     -38.531  24.631   2.731  0.00  0.00    +0.027 C 
BRANCH  27  28
ATOM     28  C   UNL     1     -39.518  25.736   2.297  0.00  0.00    +0.088 C 
ATOM     29  C   UNL     1     -38.958  26.611   1.176  0.00  0.00    +0.029 C 
ATOM     30  C   UNL     1     -40.885  25.173   1.902  0.00  0.00    +0.029 C 
BRANCH  28  31
ATOM     31  O   UNL     1     -39.717  26.597   3.427  0.00  0.00    -0.387 OA
ATOM     32  H   UNL     1     -39.983  26.068   4.194  0.00  0.00    +0.210 HD
ENDBRANCH  28  31
ENDBRANCH  27  28
ENDBRANCH  26  27
ENDBRANCH  20  26
ENDBRANCH  19  20
ENDBRANCH  16  19
ENDBRANCH   1  16
BRANCH   1  33
ATOM     33  C   UNL     1     -34.768  24.204   1.601  0.00  0.00    +0.048 C 
BRANCH  33  35
ATOM     34  F   UNL     1     -35.684  22.920   6.206  0.00  0.00    -0.204 F 
ATOM     35  C   UNL     1     -35.088  24.565   3.034  0.00  0.00    -0.018 C 
ATOM     36  C   UNL     1     -35.240  23.554   3.967  0.00  0.00    +0.025 C 
ATOM     37  C   UNL     1     -35.221  25.898   3.383  0.00  0.00    -0.004 C 
ATOM     38  C   UNL     1     -35.534  23.886   5.289  0.00  0.00    +0.140 C 
ATOM     39  C   UNL     1     -35.514  26.230   4.705  0.00  0.00    +0.002 C 
ATOM     40  C   UNL     1     -35.671  25.224   5.659  0.00  0.00    +0.030 C 
ENDBRANCH  33  35
ENDBRANCH   1  33
TORSDOF 13
ENDMDL
MODEL 7
REMARK VINA RESULT:      -6.6      2.605      4.242
REMARK  Name = 5311123
REMARK  13 active torsions:
REMARK  status: ('A' for Active; 'I' for Inactive)
REMARK    1  A    between atoms: C_1  and  N_3
REMARK    2  A    between atoms: C_1  and  C_16
REMARK    3  A    between atoms: C_1  and  C_33
REMARK    4  A    between atoms: C_4  and  C_8
REMARK    5  A    between atoms: C_16  and  O_17
REMARK    6  A    between atoms: C_16  and  C_19
REMARK    7  A    between atoms: C_19  and  C_20
REMARK    8  A    between atoms: C_20  and  C_23
REMARK    9  A    between atoms: C_20  and  C_26
REMARK   10  A    between atoms: C_26  and  C_27
REMARK   11  A    between atoms: C_27  and  C_28
REMARK   12  A    between atoms: C_28  and  O_31
REMARK   13  A    between atoms: C_33  and  C_35
REMARK                            x       y       z     vdW  Elec       q    Type
REMARK                         _______ _______ _______ _____ _____    ______ ____
ROOT
ATOM      1  C   UNL     1     -35.954  26.145   3.459  0.00  0.00    +0.103 C 
ENDROOT
BRANCH   1   3
ATOM      2  O   UNL     1     -33.109  25.962   3.798  0.00  0.00    -0.268 OA
ATOM      3  N   UNL     1     -35.038  27.243   3.667  0.00  0.00    -0.298 N 
ATOM      4  C   UNL     1     -33.675  27.052   3.821  0.00  0.00    +0.273 C 
ATOM      5  H   UNL     1     -35.396  28.159   3.701  0.00  0.00    +0.150 HD
BRANCH   4   8
ATOM      6  N   UNL     1     -33.158  29.308   3.259  0.00  0.00    -0.402 NA
ATOM      7  N   UNL     1     -31.202  29.422   5.228  0.00  0.00    -0.264 NA
ATOM      8  C   UNL     1     -32.872  28.281   4.053  0.00  0.00    +0.186 C 
ATOM      9  C   UNL     1     -31.926  28.308   5.018  0.00  0.00    +0.188 C 
ATOM     10  C   UNL     1     -32.444  30.431   3.451  0.00  0.00    +0.126 C 
ATOM     11  C   UNL     1     -31.454  30.488   4.448  0.00  0.00    +0.084 C 
ATOM     12  C   UNL     1     -32.679  31.554   2.663  0.00  0.00    +0.086 C 
ATOM     13  C   UNL     1     -30.734  31.668   4.620  0.00  0.00    +0.073 C 
ATOM     14  C   UNL     1     -31.953  32.731   2.843  0.00  0.00    -0.023 C 
ATOM     15  C   UNL     1     -30.976  32.788   3.826  0.00  0.00    -0.024 C 
ENDBRANCH   4   8
ENDBRANCH   1   3
BRANCH   1  16
ATOM     16  C   UNL     1     -37.188  26.584   2.641  0.00  0.00    +0.129 C 
BRANCH  16  17
ATOM     17  O   UNL     1     -36.902  27.817   1.981  0.00  0.00    -0.383 OA
ATOM     18  H   UNL     1     -35.985  27.809   1.665  0.00  0.00    +0.210 HD
ENDBRANCH  16  17
BRANCH  16  19
ATOM     19  C   UNL     1     -37.611  25.542   1.589  0.00  0.00    +0.040 C 
BRANCH  19  20
ATOM     20  C   UNL     1     -39.138  25.326   1.487  0.00  0.00    +0.079 C 
BRANCH  20  23
ATOM     21  O   UNL     1     -40.433  26.760   2.967  0.00  0.00    -0.275 OA
ATOM     22  N   UNL     1     -39.676  24.757   3.791  0.00  0.00    -0.329 N 
ATOM     23  C   UNL     1     -39.821  25.707   2.802  0.00  0.00    +0.219 C 
ATOM     24  H   UNL     1     -40.077  24.904   4.677  0.00  0.00    +0.145 HD
ATOM     25  H   UNL     1     -39.172  23.932   3.609  0.00  0.00    +0.145 HD
ENDBRANCH  20  23
BRANCH  20  26
ATOM     26  C   UNL     1     -39.559  23.905   1.050  0.00  0.00    +0.012 C 
BRANCH  26  27
ATOM     27  C   UNL     1     -38.400  22.902   0.956  0.00  0.00    +0.027 C 
BRANCH  27  28
ATOM     28  C   UNL     1     -38.816  21.415   0.960  0.00  0.00    +0.088 C 
ATOM     29  C   UNL     1     -40.210  21.197   0.369  0.00  0.00    +0.029 C 
ATOM     30  C   UNL     1     -37.792  20.523   0.253  0.00  0.00    +0.029 C 
BRANCH  28  31
ATOM     31  O   UNL     1     -38.882  20.994   2.329  0.00  0.00    -0.387 OA
ATOM     32  H   UNL     1     -39.210  21.724   2.877  0.00  0.00    +0.210 HD
ENDBRANCH  28  31
ENDBRANCH  27  28
ENDBRANCH  26  27
ENDBRANCH  20  26
ENDBRANCH  19  20
ENDBRANCH  16  19
ENDBRANCH   1  16
BRANCH   1  33
ATOM     33  C   UNL     1     -36.307  25.463   4.801  0.00  0.00    +0.048 C 
BRANCH  33  35
ATOM     34  F   UNL     1     -35.714  21.044   2.849  0.00  0.00    -0.204 F 
ATOM     35  C   UNL     1     -35.894  24.013   4.916  0.00  0.00    -0.018 C 
ATOM     36  C   UNL     1     -36.000  23.190   3.807  0.00  0.00    +0.025 C 
ATOM     37  C   UNL     1     -35.418  23.539   6.126  0.00  0.00    -0.004 C 
ATOM     38  C   UNL     1     -35.619  21.853   3.912  0.00  0.00    +0.140 C 
ATOM     39  C   UNL     1     -35.036  22.202   6.231  0.00  0.00    +0.002 C 
ATOM     40  C   UNL     1     -35.137  21.358   5.124  0.00  0.00    +0.030 C 
ENDBRANCH  33  35
ENDBRANCH   1  33
TORSDOF 13
ENDMDL
MODEL 8
REMARK VINA RESULT:      -6.6      1.711      2.004
REMARK  Name = 5311123
REMARK  13 active torsions:
REMARK  status: ('A' for Active; 'I' for Inactive)
REMARK    1  A    between atoms: C_1  and  N_3
REMARK    2  A    between atoms: C_1  and  C_16
REMARK    3  A    between atoms: C_1  and  C_33
REMARK    4  A    between atoms: C_4  and  C_8
REMARK    5  A    between atoms: C_16  and  O_17
REMARK    6  A    between atoms: C_16  and  C_19
REMARK    7  A    between atoms: C_19  and  C_20
REMARK    8  A    between atoms: C_20  and  C_23
REMARK    9  A    between atoms: C_20  and  C_26
REMARK   10  A    between atoms: C_26  and  C_27
REMARK   11  A    between atoms: C_27  and  C_28
REMARK   12  A    between atoms: C_28  and  O_31
REMARK   13  A    between atoms: C_33  and  C_35
REMARK                            x       y       z     vdW  Elec       q    Type
REMARK                         _______ _______ _______ _____ _____    ______ ____
ROOT
ATOM      1  C   UNL     1     -34.394  26.664   4.394  0.00  0.00    +0.103 C 
ENDROOT
BRANCH   1   3
ATOM      2  O   UNL     1     -33.436  29.340   3.987  0.00  0.00    -0.268 OA
ATOM      3  N   UNL     1     -33.155  27.222   4.888  0.00  0.00    -0.298 N 
ATOM      4  C   UNL     1     -32.779  28.531   4.637  0.00  0.00    +0.273 C 
ATOM      5  H   UNL     1     -32.557  26.651   5.422  0.00  0.00    +0.150 HD
BRANCH   4   8
ATOM      6  N   UNL     1     -30.753  27.973   5.757  0.00  0.00    -0.402 NA
ATOM      7  N   UNL     1     -29.867  30.602   5.609  0.00  0.00    -0.264 NA
ATOM      8  C   UNL     1     -31.465  28.944   5.192  0.00  0.00    +0.186 C 
ATOM      9  C   UNL     1     -31.059  30.230   5.107  0.00  0.00    +0.188 C 
ATOM     10  C   UNL     1     -29.559  28.324   6.266  0.00  0.00    +0.126 C 
ATOM     11  C   UNL     1     -29.111  29.655   6.191  0.00  0.00    +0.084 C 
ATOM     12  C   UNL     1     -28.749  27.369   6.875  0.00  0.00    +0.086 C 
ATOM     13  C   UNL     1     -27.869  29.983   6.729  0.00  0.00    +0.073 C 
ATOM     14  C   UNL     1     -27.507  27.707   7.410  0.00  0.00    -0.023 C 
ATOM     15  C   UNL     1     -27.065  29.019   7.336  0.00  0.00    -0.024 C 
ENDBRANCH   4   8
ENDBRANCH   1   3
BRANCH   1  16
ATOM     16  C   UNL     1     -34.907  25.530   5.307  0.00  0.00    +0.129 C 
BRANCH  16  17
ATOM     17  O   UNL     1     -36.333  25.488   5.250  0.00  0.00    -0.383 OA
ATOM     18  H   UNL     1     -36.635  24.576   5.377  0.00  0.00    +0.210 HD
ENDBRANCH  16  17
BRANCH  16  19
ATOM     19  C   UNL     1     -34.352  24.148   4.914  0.00  0.00    +0.040 C 
BRANCH  19  20
ATOM     20  C   UNL     1     -35.429  23.136   4.460  0.00  0.00    +0.079 C 
BRANCH  20  23
ATOM     21  O   UNL     1     -34.905  20.844   5.091  0.00  0.00    -0.275 OA
ATOM     22  N   UNL     1     -36.100  22.128   6.570  0.00  0.00    -0.329 N 
ATOM     23  C   UNL     1     -35.435  21.914   5.382  0.00  0.00    +0.219 C 
ATOM     24  H   UNL     1     -36.164  21.405   7.235  0.00  0.00    +0.145 HD
ATOM     25  H   UNL     1     -36.511  23.003   6.753  0.00  0.00    +0.145 HD
ENDBRANCH  20  23
BRANCH  20  26
ATOM     26  C   UNL     1     -35.321  22.700   2.982  0.00  0.00    +0.012 C 
BRANCH  26  27
ATOM     27  C   UNL     1     -36.568  21.990   2.438  0.00  0.00    +0.027 C 
BRANCH  27  28
ATOM     28  C   UNL     1     -36.310  20.612   1.791  0.00  0.00    +0.088 C 
ATOM     29  C   UNL     1     -36.961  20.483   0.413  0.00  0.00    +0.029 C 
ATOM     30  C   UNL     1     -34.819  20.278   1.710  0.00  0.00    +0.029 C 
BRANCH  28  31
ATOM     31  O   UNL     1     -36.928  19.625   2.629  0.00  0.00    -0.387 OA
ATOM     32  H   UNL     1     -37.164  20.025   3.480  0.00  0.00    +0.210 HD
ENDBRANCH  28  31
ENDBRANCH  27  28
ENDBRANCH  26  27
ENDBRANCH  20  26
ENDBRANCH  19  20
ENDBRANCH  16  19
ENDBRANCH   1  16
BRANCH   1  33
ATOM     33  C   UNL     1     -34.257  26.256   2.909  0.00  0.00    +0.048 C 
BRANCH  33  35
ATOM     34  F   UNL     1     -37.010  29.715   0.873  0.00  0.00    -0.204 F 
ATOM     35  C   UNL     1     -35.401  26.677   2.016  0.00  0.00    -0.018 C 
ATOM     36  C   UNL     1     -35.676  28.025   1.860  0.00  0.00    +0.025 C 
ATOM     37  C   UNL     1     -36.151  25.707   1.373  0.00  0.00    -0.004 C 
ATOM     38  C   UNL     1     -36.731  28.415   1.036  0.00  0.00    +0.140 C 
ATOM     39  C   UNL     1     -37.206  26.097   0.548  0.00  0.00    +0.002 C 
ATOM     40  C   UNL     1     -37.497  27.451   0.380  0.00  0.00    +0.030 C 
ENDBRANCH  33  35
ENDBRANCH   1  33
TORSDOF 13
ENDMDL
MODEL 9
REMARK VINA RESULT:      -6.6      3.632      8.033
REMARK  Name = 5311123
REMARK  13 active torsions:
REMARK  status: ('A' for Active; 'I' for Inactive)
REMARK    1  A    between atoms: C_1  and  N_3
REMARK    2  A    between atoms: C_1  and  C_16
REMARK    3  A    between atoms: C_1  and  C_33
REMARK    4  A    between atoms: C_4  and  C_8
REMARK    5  A    between atoms: C_16  and  O_17
REMARK    6  A    between atoms: C_16  and  C_19
REMARK    7  A    between atoms: C_19  and  C_20
REMARK    8  A    between atoms: C_20  and  C_23
REMARK    9  A    between atoms: C_20  and  C_26
REMARK   10  A    between atoms: C_26  and  C_27
REMARK   11  A    between atoms: C_27  and  C_28
REMARK   12  A    between atoms: C_28  and  O_31
REMARK   13  A    between atoms: C_33  and  C_35
REMARK                            x       y       z     vdW  Elec       q    Type
REMARK                         _______ _______ _______ _____ _____    ______ ____
ROOT
ATOM      1  C   UNL     1     -36.075  26.076   3.190  0.00  0.00    +0.103 C 
ENDROOT
BRANCH   1   3
ATOM      2  O   UNL     1     -37.631  24.910   1.077  0.00  0.00    -0.268 OA
ATOM      3  N   UNL     1     -37.501  26.210   2.994  0.00  0.00    -0.298 N 
ATOM      4  C   UNL     1     -38.164  25.605   1.938  0.00  0.00    +0.273 C 
ATOM      5  H   UNL     1     -38.019  26.749   3.633  0.00  0.00    +0.150 HD
BRANCH   4   8
ATOM      6  N   UNL     1     -40.173  26.374   2.959  0.00  0.00    -0.402 NA
ATOM      7  N   UNL     1     -41.634  25.812   0.663  0.00  0.00    -0.264 NA
ATOM      8  C   UNL     1     -39.625  25.861   1.861  0.00  0.00    +0.186 C 
ATOM      9  C   UNL     1     -40.311  25.578   0.732  0.00  0.00    +0.188 C 
ATOM     10  C   UNL     1     -41.495  26.614   2.912  0.00  0.00    +0.126 C 
ATOM     11  C   UNL     1     -42.235  26.330   1.750  0.00  0.00    +0.084 C 
ATOM     12  C   UNL     1     -42.150  27.151   4.017  0.00  0.00    +0.086 C 
ATOM     13  C   UNL     1     -43.603  26.592   1.736  0.00  0.00    +0.073 C 
ATOM     14  C   UNL     1     -43.519  27.410   3.994  0.00  0.00    -0.023 C 
ATOM     15  C   UNL     1     -44.249  27.130   2.848  0.00  0.00    -0.024 C 
ENDBRANCH   4   8
ENDBRANCH   1   3
BRANCH   1  16
ATOM     16  C   UNL     1     -35.747  25.498   4.584  0.00  0.00    +0.129 C 
BRANCH  16  17
ATOM     17  O   UNL     1     -36.963  25.163   5.253  0.00  0.00    -0.383 OA
ATOM     18  H   UNL     1     -37.380  24.409   4.808  0.00  0.00    +0.210 HD
ENDBRANCH  16  17
BRANCH  16  19
ATOM     19  C   UNL     1     -34.853  24.247   4.518  0.00  0.00    +0.040 C 
BRANCH  19  20
ATOM     20  C   UNL     1     -35.577  22.973   4.025  0.00  0.00    +0.079 C 
BRANCH  20  23
ATOM     21  O   UNL     1     -35.004  20.764   4.874  0.00  0.00    -0.275 OA
ATOM     22  N   UNL     1     -36.040  22.236   6.298  0.00  0.00    -0.329 N 
ATOM     23  C   UNL     1     -35.497  21.871   5.084  0.00  0.00    +0.219 C 
ATOM     24  H   UNL     1     -36.041  21.599   7.048  0.00  0.00    +0.145 HD
ATOM     25  H   UNL     1     -36.427  23.133   6.412  0.00  0.00    +0.145 HD
ENDBRANCH  20  23
BRANCH  20  26
ATOM     26  C   UNL     1     -35.093  22.446   2.656  0.00  0.00    +0.012 C 
BRANCH  26  27
ATOM     27  C   UNL     1     -36.197  21.817   1.794  0.00  0.00    +0.027 C 
BRANCH  27  28
ATOM     28  C   UNL     1     -36.063  20.295   1.565  0.00  0.00    +0.088 C 
ATOM     29  C   UNL     1     -36.717  19.843   0.258  0.00  0.00    +0.029 C 
ATOM     30  C   UNL     1     -34.609  19.823   1.625  0.00  0.00    +0.029 C 
BRANCH  28  31
ATOM     31  O   UNL     1     -36.773  19.641   2.625  0.00  0.00    -0.387 OA
ATOM     32  H   UNL     1     -36.574  20.079   3.467  0.00  0.00    +0.210 HD
ENDBRANCH  28  31
ENDBRANCH  27  28
ENDBRANCH  26  27
ENDBRANCH  20  26
ENDBRANCH  19  20
ENDBRANCH  16  19
ENDBRANCH   1  16
BRANCH   1  33
ATOM     33  C   UNL     1     -35.352  27.407   2.881  0.00  0.00    +0.048 C 
BRANCH  33  35
ATOM     34  F   UNL     1     -30.876  28.831   4.158  0.00  0.00    -0.204 F 
ATOM     35  C   UNL     1     -33.849  27.309   2.754  0.00  0.00    -0.018 C 
ATOM     36  C   UNL     1     -33.050  28.133   3.530  0.00  0.00    +0.025 C 
ATOM     37  C   UNL     1     -33.301  26.400   1.865  0.00  0.00    -0.004 C 
ATOM     38  C   UNL     1     -31.663  28.043   3.414  0.00  0.00    +0.140 C 
ATOM     39  C   UNL     1     -31.915  26.309   1.750  0.00  0.00    +0.002 C 
ATOM     40  C   UNL     1     -31.095  27.131   2.524  0.00  0.00    +0.030 C 
ENDBRANCH  33  35
ENDBRANCH   1  33
TORSDOF 13
ENDMDL
