MODEL 1
REMARK VINA RESULT:      -6.0      0.000      0.000
REMARK  Name = 54687
REMARK  15 active torsions:
REMARK  status: ('A' for Active; 'I' for Inactive)
REMARK    1  A    between atoms: C_2  and  C_21
REMARK    2  A    between atoms: C_3  and  O_14
REMARK    3  A    between atoms: C_7  and  O_12
REMARK    4  A    between atoms: O_14  and  C_16
REMARK    5  A    between atoms: C_16  and  C_17
REMARK    6  A    between atoms: C_17  and  C_19
REMARK    7  A    between atoms: C_21  and  C_22
REMARK    8  A    between atoms: C_22  and  C_23
REMARK    9  A    between atoms: C_23  and  O_24
REMARK   10  A    between atoms: C_23  and  C_26
REMARK   11  A    between atoms: C_26  and  C_27
REMARK   12  A    between atoms: C_27  and  O_28
REMARK   13  A    between atoms: C_27  and  C_30
REMARK   14  A    between atoms: C_30  and  C_32
REMARK   15  A    between atoms: C_32  and  O_33
REMARK                            x       y       z     vdW  Elec       q    Type
REMARK                         _______ _______ _______ _____ _____    ______ ____
ROOT
ATOM      1  C   UNL     1     -33.813  28.972   2.659  0.00  0.00    +0.063 C 
ATOM      2  C   UNL     1     -33.513  30.100   3.689  0.00  0.00    +0.012 C 
ATOM      3  C   UNL     1     -33.631  27.541   3.226  0.00  0.00    +0.175 C 
ATOM      4  C   UNL     1     -33.707  31.510   3.057  0.00  0.00    +0.022 C 
ATOM      5  C   UNL     1     -35.198  29.155   2.038  0.00  0.00    -0.021 C 
ATOM      6  C   UNL     1     -34.086  26.503   2.200  0.00  0.00    +0.078 C 
ATOM      7  C   UNL     1     -35.562  26.676   1.834  0.00  0.00    +0.136 C 
ATOM      8  C   UNL     1     -35.004  31.588   2.293  0.00  0.00    -0.027 C 
ATOM      9  C   UNL     1     -35.966  28.113   1.672  0.00  0.00    -0.002 C 
ATOM     10  C   UNL     1     -35.672  30.515   1.854  0.00  0.00    -0.009 C 
ATOM     11  C   UNL     1     -32.563  31.962   2.144  0.00  0.00    +0.005 C 
ENDROOT
BRANCH   7  12
ATOM     12  O   UNL     1     -35.801  25.967   0.620  0.00  0.00    -0.380 OA
ATOM     13  H   UNL     1     -35.994  26.598  -0.091  0.00  0.00    +0.211 HD
ENDBRANCH   7  12
BRANCH   3  14
ATOM     14  O   UNL     1     -34.381  27.349   4.423  0.00  0.00    -0.452 OA
BRANCH  14  16
ATOM     15  O   UNL     1     -32.670  26.635   5.797  0.00  0.00    -0.250 OA
ATOM     16  C   UNL     1     -33.807  26.529   5.357  0.00  0.00    +0.316 C 
BRANCH  16  17
ATOM     17  C   UNL     1     -34.786  25.437   5.753  0.00  0.00    +0.099 C 
ATOM     18  C   UNL     1     -36.199  25.923   5.443  0.00  0.00    +0.012 C 
BRANCH  17  19
ATOM     19  C   UNL     1     -34.485  24.121   5.022  0.00  0.00    +0.011 C 
ATOM     20  C   UNL     1     -35.016  22.903   5.767  0.00  0.00    +0.001 C 
ENDBRANCH  17  19
ENDBRANCH  16  17
ENDBRANCH  14  16
ENDBRANCH   3  14
BRANCH   2  21
ATOM     21  C   UNL     1     -32.129  29.960   4.336  0.00  0.00    +0.003 C 
BRANCH  21  22
ATOM     22  C   UNL     1     -32.136  30.508   5.762  0.00  0.00    +0.029 C 
BRANCH  22  23
ATOM     23  C   UNL     1     -31.141  29.810   6.698  0.00  0.00    +0.113 C 
BRANCH  23  24
ATOM     24  O   UNL     1     -31.831  28.756   7.375  0.00  0.00    -0.384 OA
ATOM     25  H   UNL     1     -31.644  28.804   8.326  0.00  0.00    +0.210 HD
ENDBRANCH  23  24
BRANCH  23  26
ATOM     26  C   UNL     1     -29.896  29.219   6.019  0.00  0.00    +0.059 C 
BRANCH  26  27
ATOM     27  C   UNL     1     -28.596  29.341   6.823  0.00  0.00    +0.124 C 
BRANCH  27  28
ATOM     28  O   UNL     1     -28.815  28.888   8.157  0.00  0.00    -0.384 OA
ATOM     29  H   UNL     1     -29.655  28.404   8.200  0.00  0.00    +0.210 HD
ENDBRANCH  27  28
BRANCH  27  30
ATOM     30  C   UNL     1     -27.498  28.477   6.203  0.00  0.00    +0.139 C 
BRANCH  30  32
ATOM     31  O   UNL     1     -28.214  26.359   7.122  0.00  0.00    -0.250 OA
ATOM     32  C   UNL     1     -27.919  27.028   6.140  0.00  0.00    +0.316 C 
BRANCH  32  33
ATOM     33  O   UNL     1     -27.952  26.548   4.872  0.00  0.00    -0.480 OA
ATOM     34  H   UNL     1     -27.152  26.352   4.424  0.00  0.00    +0.295 HD
ENDBRANCH  32  33
ENDBRANCH  30  32
ENDBRANCH  27  30
ENDBRANCH  26  27
ENDBRANCH  23  26
ENDBRANCH  22  23
ENDBRANCH  21  22
ENDBRANCH   2  21
TORSDOF 15
ENDMDL
MODEL 2
REMARK VINA RESULT:      -5.9      5.434      9.316
REMARK  Name = 54687
REMARK  15 active torsions:
REMARK  status: ('A' for Active; 'I' for Inactive)
REMARK    1  A    between atoms: C_2  and  C_21
REMARK    2  A    between atoms: C_3  and  O_14
REMARK    3  A    between atoms: C_7  and  O_12
REMARK    4  A    between atoms: O_14  and  C_16
REMARK    5  A    between atoms: C_16  and  C_17
REMARK    6  A    between atoms: C_17  and  C_19
REMARK    7  A    between atoms: C_21  and  C_22
REMARK    8  A    between atoms: C_22  and  C_23
REMARK    9  A    between atoms: C_23  and  O_24
REMARK   10  A    between atoms: C_23  and  C_26
REMARK   11  A    between atoms: C_26  and  C_27
REMARK   12  A    between atoms: C_27  and  O_28
REMARK   13  A    between atoms: C_27  and  C_30
REMARK   14  A    between atoms: C_30  and  C_32
REMARK   15  A    between atoms: C_32  and  O_33
REMARK                            x       y       z     vdW  Elec       q    Type
REMARK                         _______ _______ _______ _____ _____    ______ ____
ROOT
ATOM      1  C   UNL     1     -34.489  21.909   0.686  0.00  0.00    +0.063 C 
ATOM      2  C   UNL     1     -34.526  20.835   1.813  0.00  0.00    +0.012 C 
ATOM      3  C   UNL     1     -35.019  23.297   1.125  0.00  0.00    +0.175 C 
ATOM      4  C   UNL     1     -33.988  19.464   1.307  0.00  0.00    +0.022 C 
ATOM      5  C   UNL     1     -33.092  22.011   0.075  0.00  0.00    -0.021 C 
ATOM      6  C   UNL     1     -34.812  24.321   0.010  0.00  0.00    +0.078 C 
ATOM      7  C   UNL     1     -33.332  24.478  -0.349  0.00  0.00    +0.136 C 
ATOM      8  C   UNL     1     -32.699  19.635   0.545  0.00  0.00    -0.027 C 
ATOM      9  C   UNL     1     -32.591  23.172  -0.386  0.00  0.00    -0.002 C 
ATOM     10  C   UNL     1     -32.302  20.795   0.009  0.00  0.00    -0.009 C 
ATOM     11  C   UNL     1     -34.975  18.672   0.443  0.00  0.00    +0.005 C 
ENDROOT
BRANCH   7  12
ATOM     12  O   UNL     1     -33.252  25.115  -1.622  0.00  0.00    -0.380 OA
ATOM     13  H   UNL     1     -32.967  24.471  -2.289  0.00  0.00    +0.211 HD
ENDBRANCH   7  12
BRANCH   3  14
ATOM     14  O   UNL     1     -34.357  23.768   2.296  0.00  0.00    -0.452 OA
BRANCH  14  16
ATOM     15  O   UNL     1     -36.231  24.849   3.099  0.00  0.00    -0.250 OA
ATOM     16  C   UNL     1     -35.170  24.266   3.278  0.00  0.00    +0.316 C 
BRANCH  16  17
ATOM     17  C   UNL     1     -34.545  24.014   4.640  0.00  0.00    +0.099 C 
ATOM     18  C   UNL     1     -34.163  25.359   5.250  0.00  0.00    +0.012 C 
BRANCH  17  19
ATOM     19  C   UNL     1     -35.500  23.244   5.563  0.00  0.00    +0.011 C 
ATOM     20  C   UNL     1     -34.971  21.864   5.932  0.00  0.00    +0.001 C 
ENDBRANCH  17  19
ENDBRANCH  16  17
ENDBRANCH  14  16
ENDBRANCH   3  14
BRANCH   2  21
ATOM     21  C   UNL     1     -35.912  20.694   2.453  0.00  0.00    +0.003 C 
BRANCH  21  22
ATOM     22  C   UNL     1     -37.012  20.799   1.397  0.00  0.00    +0.029 C 
BRANCH  22  23
ATOM     23  C   UNL     1     -38.172  21.719   1.801  0.00  0.00    +0.113 C 
BRANCH  23  24
ATOM     24  O   UNL     1     -37.860  22.298   3.070  0.00  0.00    -0.384 OA
ATOM     25  H   UNL     1     -36.907  22.230   3.232  0.00  0.00    +0.210 HD
ENDBRANCH  23  24
BRANCH  23  26
ATOM     26  C   UNL     1     -38.492  22.851   0.813  0.00  0.00    +0.059 C 
BRANCH  26  27
ATOM     27  C   UNL     1     -39.748  23.668   1.143  0.00  0.00    +0.124 C 
BRANCH  27  28
ATOM     28  O   UNL     1     -40.464  23.036   2.201  0.00  0.00    -0.384 OA
ATOM     29  H   UNL     1     -41.153  22.463   1.828  0.00  0.00    +0.210 HD
ENDBRANCH  27  28
BRANCH  27  30
ATOM     30  C   UNL     1     -39.368  25.075   1.602  0.00  0.00    +0.139 C 
BRANCH  30  32
ATOM     31  O   UNL     1     -40.897  25.887   3.289  0.00  0.00    -0.250 OA
ATOM     32  C   UNL     1     -39.841  25.332   3.013  0.00  0.00    +0.316 C 
BRANCH  32  33
ATOM     33  O   UNL     1     -38.977  24.864   3.947  0.00  0.00    -0.480 OA
ATOM     34  H   UNL     1     -38.955  23.950   4.150  0.00  0.00    +0.295 HD
ENDBRANCH  32  33
ENDBRANCH  30  32
ENDBRANCH  27  30
ENDBRANCH  26  27
ENDBRANCH  23  26
ENDBRANCH  22  23
ENDBRANCH  21  22
ENDBRANCH   2  21
TORSDOF 15
ENDMDL
MODEL 3
REMARK VINA RESULT:      -5.8      3.241      6.033
REMARK  Name = 54687
REMARK  15 active torsions:
REMARK  status: ('A' for Active; 'I' for Inactive)
REMARK    1  A    between atoms: C_2  and  C_21
REMARK    2  A    between atoms: C_3  and  O_14
REMARK    3  A    between atoms: C_7  and  O_12
REMARK    4  A    between atoms: O_14  and  C_16
REMARK    5  A    between atoms: C_16  and  C_17
REMARK    6  A    between atoms: C_17  and  C_19
REMARK    7  A    between atoms: C_21  and  C_22
REMARK    8  A    between atoms: C_22  and  C_23
REMARK    9  A    between atoms: C_23  and  O_24
REMARK   10  A    between atoms: C_23  and  C_26
REMARK   11  A    between atoms: C_26  and  C_27
REMARK   12  A    between atoms: C_27  and  O_28
REMARK   13  A    between atoms: C_27  and  C_30
REMARK   14  A    between atoms: C_30  and  C_32
REMARK   15  A    between atoms: C_32  and  O_33
REMARK                            x       y       z     vdW  Elec       q    Type
REMARK                         _______ _______ _______ _____ _____    ______ ____
ROOT
ATOM      1  C   UNL     1     -35.734  23.485   3.187  0.00  0.00    +0.063 C 
ATOM      2  C   UNL     1     -34.828  24.711   3.506  0.00  0.00    +0.012 C 
ATOM      3  C   UNL     1     -35.698  23.048   1.700  0.00  0.00    +0.175 C 
ATOM      4  C   UNL     1     -34.914  25.102   5.010  0.00  0.00    +0.022 C 
ATOM      5  C   UNL     1     -35.419  22.317   4.121  0.00  0.00    -0.021 C 
ATOM      6  C   UNL     1     -36.495  21.758   1.508  0.00  0.00    +0.078 C 
ATOM      7  C   UNL     1     -35.928  20.610   2.346  0.00  0.00    +0.136 C 
ATOM      8  C   UNL     1     -34.786  23.889   5.895  0.00  0.00    -0.027 C 
ATOM      9  C   UNL     1     -35.514  21.034   3.726  0.00  0.00    -0.002 C 
ATOM     10  C   UNL     1     -35.002  22.637   5.473  0.00  0.00    -0.009 C 
ATOM     11  C   UNL     1     -36.183  25.869   5.398  0.00  0.00    +0.005 C 
ENDROOT
BRANCH   7  12
ATOM     12  O   UNL     1     -36.922  19.592   2.430  0.00  0.00    -0.380 OA
ATOM     13  H   UNL     1     -36.595  18.784   2.004  0.00  0.00    +0.211 HD
ENDBRANCH   7  12
BRANCH   3  14
ATOM     14  O   UNL     1     -34.365  22.826   1.249  0.00  0.00    -0.452 OA
BRANCH  14  16
ATOM     15  O   UNL     1     -34.624  24.069  -0.678  0.00  0.00    -0.250 OA
ATOM     16  C   UNL     1     -34.123  23.138  -0.062  0.00  0.00    +0.316 C 
BRANCH  16  17
ATOM     17  C   UNL     1     -33.152  22.133  -0.658  0.00  0.00    +0.099 C 
ATOM     18  C   UNL     1     -31.804  22.821  -0.848  0.00  0.00    +0.012 C 
BRANCH  17  19
ATOM     19  C   UNL     1     -33.013  20.890   0.232  0.00  0.00    +0.011 C 
ATOM     20  C   UNL     1     -31.718  20.129  -0.022  0.00  0.00    +0.001 C 
ENDBRANCH  17  19
ENDBRANCH  16  17
ENDBRANCH  14  16
ENDBRANCH   3  14
BRANCH   2  21
ATOM     21  C   UNL     1     -35.113  25.911   2.595  0.00  0.00    +0.003 C 
BRANCH  21  22
ATOM     22  C   UNL     1     -33.815  26.495   2.040  0.00  0.00    +0.029 C 
BRANCH  22  23
ATOM     23  C   UNL     1     -33.341  27.757   2.772  0.00  0.00    +0.113 C 
BRANCH  23  24
ATOM     24  O   UNL     1     -34.454  28.304   3.483  0.00  0.00    -0.384 OA
ATOM     25  H   UNL     1     -35.261  28.194   2.957  0.00  0.00    +0.210 HD
ENDBRANCH  23  24
BRANCH  23  26
ATOM     26  C   UNL     1     -32.183  27.553   3.760  0.00  0.00    +0.059 C 
BRANCH  26  27
ATOM     27  C   UNL     1     -31.715  28.820   4.486  0.00  0.00    +0.124 C 
BRANCH  27  28
ATOM     28  O   UNL     1     -32.431  28.960   5.712  0.00  0.00    -0.384 OA
ATOM     29  H   UNL     1     -32.777  29.864   5.782  0.00  0.00    +0.210 HD
ENDBRANCH  27  28
BRANCH  27  30
ATOM     30  C   UNL     1     -30.225  28.730   4.817  0.00  0.00    +0.139 C 
BRANCH  30  32
ATOM     31  O   UNL     1     -29.809  29.600   7.032  0.00  0.00    -0.250 OA
ATOM     32  C   UNL     1     -30.004  28.634   6.307  0.00  0.00    +0.316 C 
BRANCH  32  33
ATOM     33  O   UNL     1     -30.061  27.358   6.763  0.00  0.00    -0.480 OA
ATOM     34  H   UNL     1     -30.625  27.142   7.480  0.00  0.00    +0.295 HD
ENDBRANCH  32  33
ENDBRANCH  30  32
ENDBRANCH  27  30
ENDBRANCH  26  27
ENDBRANCH  23  26
ENDBRANCH  22  23
ENDBRANCH  21  22
ENDBRANCH   2  21
TORSDOF 15
ENDMDL
MODEL 4
REMARK VINA RESULT:      -5.7      3.679      8.227
REMARK  Name = 54687
REMARK  15 active torsions:
REMARK  status: ('A' for Active; 'I' for Inactive)
REMARK    1  A    between atoms: C_2  and  C_21
REMARK    2  A    between atoms: C_3  and  O_14
REMARK    3  A    between atoms: C_7  and  O_12
REMARK    4  A    between atoms: O_14  and  C_16
REMARK    5  A    between atoms: C_16  and  C_17
REMARK    6  A    between atoms: C_17  and  C_19
REMARK    7  A    between atoms: C_21  and  C_22
REMARK    8  A    between atoms: C_22  and  C_23
REMARK    9  A    between atoms: C_23  and  O_24
REMARK   10  A    between atoms: C_23  and  C_26
REMARK   11  A    between atoms: C_26  and  C_27
REMARK   12  A    between atoms: C_27  and  O_28
REMARK   13  A    between atoms: C_27  and  C_30
REMARK   14  A    between atoms: C_30  and  C_32
REMARK   15  A    between atoms: C_32  and  O_33
REMARK                            x       y       z     vdW  Elec       q    Type
REMARK                         _______ _______ _______ _____ _____    ______ ____
ROOT
ATOM      1  C   UNL     1     -35.484  27.233   3.049  0.00  0.00    +0.063 C 
ATOM      2  C   UNL     1     -35.905  27.071   1.558  0.00  0.00    +0.012 C 
ATOM      3  C   UNL     1     -36.072  26.148   3.987  0.00  0.00    +0.175 C 
ATOM      4  C   UNL     1     -35.288  28.193   0.672  0.00  0.00    +0.022 C 
ATOM      5  C   UNL     1     -33.964  27.322   3.180  0.00  0.00    -0.021 C 
ATOM      6  C   UNL     1     -35.494  26.295   5.394  0.00  0.00    +0.078 C 
ATOM      7  C   UNL     1     -33.971  26.144   5.401  0.00  0.00    +0.136 C 
ATOM      8  C   UNL     1     -33.823  28.376   0.969  0.00  0.00    -0.027 C 
ATOM      9  C   UNL     1     -33.303  26.830   4.244  0.00  0.00    -0.002 C 
ATOM     10  C   UNL     1     -33.237  27.963   2.099  0.00  0.00    -0.009 C 
ATOM     11  C   UNL     1     -35.992  29.550   0.781  0.00  0.00    +0.005 C 
ENDROOT
BRANCH   7  12
ATOM     12  O   UNL     1     -33.480  26.679   6.629  0.00  0.00    -0.380 OA
ATOM     13  H   UNL     1     -32.663  26.219   6.878  0.00  0.00    +0.211 HD
ENDBRANCH   7  12
BRANCH   3  14
ATOM     14  O   UNL     1     -35.784  24.833   3.518  0.00  0.00    -0.452 OA
BRANCH  14  16
ATOM     15  O   UNL     1     -37.965  24.118   3.755  0.00  0.00    -0.250 OA
ATOM     16  C   UNL     1     -36.761  23.900   3.734  0.00  0.00    +0.316 C 
BRANCH  16  17
ATOM     17  C   UNL     1     -36.127  22.540   3.976  0.00  0.00    +0.099 C 
ATOM     18  C   UNL     1     -35.548  22.037   2.657  0.00  0.00    +0.012 C 
BRANCH  17  19
ATOM     19  C   UNL     1     -35.042  22.611   5.060  0.00  0.00    +0.011 C 
ATOM     20  C   UNL     1     -35.521  22.078   6.404  0.00  0.00    +0.001 C 
ENDBRANCH  17  19
ENDBRANCH  16  17
ENDBRANCH  14  16
ENDBRANCH   3  14
BRANCH   2  21
ATOM     21  C   UNL     1     -37.425  26.982   1.378  0.00  0.00    +0.003 C 
BRANCH  21  22
ATOM     22  C   UNL     1     -37.808  25.727   0.595  0.00  0.00    +0.029 C 
BRANCH  22  23
ATOM     23  C   UNL     1     -39.318  25.460   0.553  0.00  0.00    +0.113 C 
BRANCH  23  24
ATOM     24  O   UNL     1     -39.596  24.336   1.392  0.00  0.00    -0.384 OA
ATOM     25  H   UNL     1     -40.347  23.840   1.031  0.00  0.00    +0.210 HD
ENDBRANCH  23  24
BRANCH  23  26
ATOM     26  C   UNL     1     -40.209  26.631   0.997  0.00  0.00    +0.059 C 
BRANCH  26  27
ATOM     27  C   UNL     1     -41.059  26.366   2.246  0.00  0.00    +0.124 C 
BRANCH  27  28
ATOM     28  O   UNL     1     -40.232  26.421   3.407  0.00  0.00    -0.384 OA
ATOM     29  H   UNL     1     -40.223  27.327   3.755  0.00  0.00    +0.210 HD
ENDBRANCH  27  28
BRANCH  27  30
ATOM     30  C   UNL     1     -42.148  27.428   2.390  0.00  0.00    +0.139 C 
BRANCH  30  32
ATOM     31  O   UNL     1     -41.938  28.610   4.488  0.00  0.00    -0.250 OA
ATOM     32  C   UNL     1     -42.449  27.704   3.844  0.00  0.00    +0.316 C 
BRANCH  32  33
ATOM     33  O   UNL     1     -43.365  26.847   4.359  0.00  0.00    -0.480 OA
ATOM     34  H   UNL     1     -43.084  26.089   4.834  0.00  0.00    +0.295 HD
ENDBRANCH  32  33
ENDBRANCH  30  32
ENDBRANCH  27  30
ENDBRANCH  26  27
ENDBRANCH  23  26
ENDBRANCH  22  23
ENDBRANCH  21  22
ENDBRANCH   2  21
TORSDOF 15
ENDMDL
MODEL 5
REMARK VINA RESULT:      -5.7      5.202     10.154
REMARK  Name = 54687
REMARK  15 active torsions:
REMARK  status: ('A' for Active; 'I' for Inactive)
REMARK    1  A    between atoms: C_2  and  C_21
REMARK    2  A    between atoms: C_3  and  O_14
REMARK    3  A    between atoms: C_7  and  O_12
REMARK    4  A    between atoms: O_14  and  C_16
REMARK    5  A    between atoms: C_16  and  C_17
REMARK    6  A    between atoms: C_17  and  C_19
REMARK    7  A    between atoms: C_21  and  C_22
REMARK    8  A    between atoms: C_22  and  C_23
REMARK    9  A    between atoms: C_23  and  O_24
REMARK   10  A    between atoms: C_23  and  C_26
REMARK   11  A    between atoms: C_26  and  C_27
REMARK   12  A    between atoms: C_27  and  O_28
REMARK   13  A    between atoms: C_27  and  C_30
REMARK   14  A    between atoms: C_30  and  C_32
REMARK   15  A    between atoms: C_32  and  O_33
REMARK                            x       y       z     vdW  Elec       q    Type
REMARK                         _______ _______ _______ _____ _____    ______ ____
ROOT
ATOM      1  C   UNL     1     -35.313  23.902   3.308  0.00  0.00    +0.063 C 
ATOM      2  C   UNL     1     -36.311  22.781   2.896  0.00  0.00    +0.012 C 
ATOM      3  C   UNL     1     -35.729  25.318   2.834  0.00  0.00    +0.175 C 
ATOM      4  C   UNL     1     -35.833  21.386   3.396  0.00  0.00    +0.022 C 
ATOM      5  C   UNL     1     -35.050  23.872   4.813  0.00  0.00    -0.021 C 
ATOM      6  C   UNL     1     -34.777  26.369   3.403  0.00  0.00    +0.078 C 
ATOM      7  C   UNL     1     -34.781  26.369   4.934  0.00  0.00    +0.136 C 
ATOM      8  C   UNL     1     -35.404  21.444   4.839  0.00  0.00    -0.027 C 
ATOM      9  C   UNL     1     -34.811  24.989   5.525  0.00  0.00    -0.002 C 
ATOM     10  C   UNL     1     -35.069  22.577   5.468  0.00  0.00    -0.009 C 
ATOM     11  C   UNL     1     -34.705  20.764   2.566  0.00  0.00    +0.005 C 
ENDROOT
BRANCH   7  12
ATOM     12  O   UNL     1     -33.617  27.061   5.378  0.00  0.00    -0.380 OA
ATOM     13  H   UNL     1     -33.443  27.813   4.790  0.00  0.00    +0.211 HD
ENDBRANCH   7  12
BRANCH   3  14
ATOM     14  O   UNL     1     -37.055  25.642   3.244  0.00  0.00    -0.452 OA
BRANCH  14  16
ATOM     15  O   UNL     1     -37.556  27.333   1.756  0.00  0.00    -0.250 OA
ATOM     16  C   UNL     1     -37.827  26.275   2.307  0.00  0.00    +0.316 C 
BRANCH  16  17
ATOM     17  C   UNL     1     -39.099  25.479   2.068  0.00  0.00    +0.099 C 
ATOM     18  C   UNL     1     -39.505  24.816   3.381  0.00  0.00    +0.012 C 
BRANCH  17  19
ATOM     19  C   UNL     1     -40.227  26.372   1.532  0.00  0.00    +0.011 C 
ATOM     20  C   UNL     1     -41.599  25.954   2.046  0.00  0.00    +0.001 C 
ENDBRANCH  17  19
ENDBRANCH  16  17
ENDBRANCH  14  16
ENDBRANCH   3  14
BRANCH   2  21
ATOM     21  C   UNL     1     -36.601  22.770   1.390  0.00  0.00    +0.003 C 
BRANCH  21  22
ATOM     22  C   UNL     1     -37.999  22.221   1.109  0.00  0.00    +0.029 C 
BRANCH  22  23
ATOM     23  C   UNL     1     -38.022  20.722   0.783  0.00  0.00    +0.113 C 
BRANCH  23  24
ATOM     24  O   UNL     1     -39.370  20.350   0.488  0.00  0.00    -0.384 OA
ATOM     25  H   UNL     1     -39.583  19.516   0.936  0.00  0.00    +0.210 HD
ENDBRANCH  23  24
BRANCH  23  26
ATOM     26  C   UNL     1     -37.129  20.286  -0.389  0.00  0.00    +0.059 C 
BRANCH  26  27
ATOM     27  C   UNL     1     -36.699  18.814  -0.369  0.00  0.00    +0.124 C 
BRANCH  27  28
ATOM     28  O   UNL     1     -37.102  18.216   0.861  0.00  0.00    -0.384 OA
ATOM     29  H   UNL     1     -36.391  17.643   1.190  0.00  0.00    +0.210 HD
ENDBRANCH  27  28
BRANCH  27  30
ATOM     30  C   UNL     1     -37.364  18.045  -1.510  0.00  0.00    +0.139 C 
BRANCH  30  32
ATOM     31  O   UNL     1     -38.408  16.059  -0.613  0.00  0.00    -0.250 OA
ATOM     32  C   UNL     1     -38.518  17.213  -1.004  0.00  0.00    +0.316 C 
BRANCH  32  33
ATOM     33  O   UNL     1     -39.693  17.890  -1.012  0.00  0.00    -0.480 OA
ATOM     34  H   UNL     1     -39.992  18.301  -1.799  0.00  0.00    +0.295 HD
ENDBRANCH  32  33
ENDBRANCH  30  32
ENDBRANCH  27  30
ENDBRANCH  26  27
ENDBRANCH  23  26
ENDBRANCH  22  23
ENDBRANCH  21  22
ENDBRANCH   2  21
TORSDOF 15
ENDMDL
MODEL 6
REMARK VINA RESULT:      -5.6      2.921      8.402
REMARK  Name = 54687
REMARK  15 active torsions:
REMARK  status: ('A' for Active; 'I' for Inactive)
REMARK    1  A    between atoms: C_2  and  C_21
REMARK    2  A    between atoms: C_3  and  O_14
REMARK    3  A    between atoms: C_7  and  O_12
REMARK    4  A    between atoms: O_14  and  C_16
REMARK    5  A    between atoms: C_16  and  C_17
REMARK    6  A    between atoms: C_17  and  C_19
REMARK    7  A    between atoms: C_21  and  C_22
REMARK    8  A    between atoms: C_22  and  C_23
REMARK    9  A    between atoms: C_23  and  O_24
REMARK   10  A    between atoms: C_23  and  C_26
REMARK   11  A    between atoms: C_26  and  C_27
REMARK   12  A    between atoms: C_27  and  O_28
REMARK   13  A    between atoms: C_27  and  C_30
REMARK   14  A    between atoms: C_30  and  C_32
REMARK   15  A    between atoms: C_32  and  O_33
REMARK                            x       y       z     vdW  Elec       q    Type
REMARK                         _______ _______ _______ _____ _____    ______ ____
ROOT
ATOM      1  C   UNL     1     -34.078  25.725   3.805  0.00  0.00    +0.063 C 
ATOM      2  C   UNL     1     -35.393  25.285   3.097  0.00  0.00    +0.012 C 
ATOM      3  C   UNL     1     -33.560  27.116   3.358  0.00  0.00    +0.175 C 
ATOM      4  C   UNL     1     -35.855  23.880   3.584  0.00  0.00    +0.022 C 
ATOM      5  C   UNL     1     -34.223  25.644   5.324  0.00  0.00    -0.021 C 
ATOM      6  C   UNL     1     -32.356  27.530   4.204  0.00  0.00    +0.078 C 
ATOM      7  C   UNL     1     -32.710  27.618   5.690  0.00  0.00    +0.136 C 
ATOM      8  C   UNL     1     -35.803  23.782   5.086  0.00  0.00    -0.027 C 
ATOM      9  C   UNL     1     -33.600  26.500   6.154  0.00  0.00    -0.002 C 
ATOM     10  C   UNL     1     -35.074  24.596   5.859  0.00  0.00    -0.009 C 
ATOM     11  C   UNL     1     -35.073  22.708   2.981  0.00  0.00    +0.005 C 
ENDROOT
BRANCH   7  12
ATOM     12  O   UNL     1     -31.494  27.609   6.435  0.00  0.00    -0.380 OA
ATOM     13  H   UNL     1     -31.042  28.461   6.328  0.00  0.00    +0.211 HD
ENDBRANCH   7  12
BRANCH   3  14
ATOM     14  O   UNL     1     -34.565  28.118   3.486  0.00  0.00    -0.452 OA
BRANCH  14  16
ATOM     15  O   UNL     1     -34.527  28.577   1.225  0.00  0.00    -0.250 OA
ATOM     16  C   UNL     1     -34.767  28.900   2.381  0.00  0.00    +0.316 C 
BRANCH  16  17
ATOM     17  C   UNL     1     -35.311  30.254   2.803  0.00  0.00    +0.099 C 
ATOM     18  C   UNL     1     -34.156  31.088   3.348  0.00  0.00    +0.012 C 
BRANCH  17  19
ATOM     19  C   UNL     1     -36.002  30.971   1.633  0.00  0.00    +0.011 C 
ATOM     20  C   UNL     1     -36.975  32.047   2.098  0.00  0.00    +0.001 C 
ENDBRANCH  17  19
ENDBRANCH  16  17
ENDBRANCH  14  16
ENDBRANCH   3  14
BRANCH   2  21
ATOM     21  C   UNL     1     -35.291  25.346   1.568  0.00  0.00    +0.003 C 
BRANCH  21  22
ATOM     22  C   UNL     1     -36.655  25.635   0.943  0.00  0.00    +0.029 C 
BRANCH  22  23
ATOM     23  C   UNL     1     -37.576  26.484   1.829  0.00  0.00    +0.113 C 
BRANCH  23  24
ATOM     24  O   UNL     1     -37.640  27.800   1.272  0.00  0.00    -0.384 OA
ATOM     25  H   UNL     1     -38.568  28.067   1.180  0.00  0.00    +0.210 HD
ENDBRANCH  23  24
BRANCH  23  26
ATOM     26  C   UNL     1     -39.008  25.954   1.994  0.00  0.00    +0.059 C 
BRANCH  26  27
ATOM     27  C   UNL     1     -39.118  24.560   2.624  0.00  0.00    +0.124 C 
BRANCH  27  28
ATOM     28  O   UNL     1     -39.715  24.664   3.914  0.00  0.00    -0.384 OA
ATOM     29  H   UNL     1     -39.627  23.818   4.381  0.00  0.00    +0.210 HD
ENDBRANCH  27  28
BRANCH  27  30
ATOM     30  C   UNL     1     -39.999  23.651   1.767  0.00  0.00    +0.139 C 
BRANCH  30  32
ATOM     31  O   UNL     1     -40.393  21.270   1.654  0.00  0.00    -0.250 OA
ATOM     32  C   UNL     1     -39.676  22.196   2.009  0.00  0.00    +0.316 C 
BRANCH  32  33
ATOM     33  O   UNL     1     -38.493  22.022   2.649  0.00  0.00    -0.480 OA
ATOM     34  H   UNL     1     -38.143  21.160   2.760  0.00  0.00    +0.295 HD
ENDBRANCH  32  33
ENDBRANCH  30  32
ENDBRANCH  27  30
ENDBRANCH  26  27
ENDBRANCH  23  26
ENDBRANCH  22  23
ENDBRANCH  21  22
ENDBRANCH   2  21
TORSDOF 15
ENDMDL
MODEL 7
REMARK VINA RESULT:      -5.6      3.064      6.806
REMARK  Name = 54687
REMARK  15 active torsions:
REMARK  status: ('A' for Active; 'I' for Inactive)
REMARK    1  A    between atoms: C_2  and  C_21
REMARK    2  A    between atoms: C_3  and  O_14
REMARK    3  A    between atoms: C_7  and  O_12
REMARK    4  A    between atoms: O_14  and  C_16
REMARK    5  A    between atoms: C_16  and  C_17
REMARK    6  A    between atoms: C_17  and  C_19
REMARK    7  A    between atoms: C_21  and  C_22
REMARK    8  A    between atoms: C_22  and  C_23
REMARK    9  A    between atoms: C_23  and  O_24
REMARK   10  A    between atoms: C_23  and  C_26
REMARK   11  A    between atoms: C_26  and  C_27
REMARK   12  A    between atoms: C_27  and  O_28
REMARK   13  A    between atoms: C_27  and  C_30
REMARK   14  A    between atoms: C_30  and  C_32
REMARK   15  A    between atoms: C_32  and  O_33
REMARK                            x       y       z     vdW  Elec       q    Type
REMARK                         _______ _______ _______ _____ _____    ______ ____
ROOT
ATOM      1  C   UNL     1     -37.465  22.868   3.303  0.00  0.00    +0.063 C 
ATOM      2  C   UNL     1     -36.065  23.387   3.747  0.00  0.00    +0.012 C 
ATOM      3  C   UNL     1     -38.430  23.987   2.837  0.00  0.00    +0.175 C 
ATOM      4  C   UNL     1     -35.148  22.216   4.209  0.00  0.00    +0.022 C 
ATOM      5  C   UNL     1     -37.329  21.771   2.246  0.00  0.00    -0.021 C 
ATOM      6  C   UNL     1     -39.718  23.380   2.283  0.00  0.00    +0.078 C 
ATOM      7  C   UNL     1     -39.446  22.469   1.084  0.00  0.00    +0.136 C 
ATOM      8  C   UNL     1     -35.190  21.074   3.226  0.00  0.00    -0.027 C 
ATOM      9  C   UNL     1     -38.229  21.607   1.260  0.00  0.00    -0.002 C 
ATOM     10  C   UNL     1     -36.174  20.897   2.336  0.00  0.00    -0.009 C 
ATOM     11  C   UNL     1     -35.457  21.679   5.610  0.00  0.00    +0.005 C 
ENDROOT
BRANCH   7  12
ATOM     12  O   UNL     1     -40.595  21.649   0.883  0.00  0.00    -0.380 OA
ATOM     13  H   UNL     1     -41.336  21.996   1.405  0.00  0.00    +0.211 HD
ENDBRANCH   7  12
BRANCH   3  14
ATOM     14  O   UNL     1     -37.844  24.801   1.824  0.00  0.00    -0.452 OA
BRANCH  14  16
ATOM     15  O   UNL     1     -38.979  26.761   2.265  0.00  0.00    -0.250 OA
ATOM     16  C   UNL     1     -37.947  26.152   2.015  0.00  0.00    +0.316 C 
BRANCH  16  17
ATOM     17  C   UNL     1     -36.584  26.801   1.840  0.00  0.00    +0.099 C 
ATOM     18  C   UNL     1     -35.690  25.840   1.062  0.00  0.00    +0.012 C 
BRANCH  17  19
ATOM     19  C   UNL     1     -36.694  28.153   1.122  0.00  0.00    +0.011 C 
ATOM     20  C   UNL     1     -37.087  28.008  -0.343  0.00  0.00    +0.001 C 
ENDBRANCH  17  19
ENDBRANCH  16  17
ENDBRANCH  14  16
ENDBRANCH   3  14
BRANCH   2  21
ATOM     21  C   UNL     1     -36.153  24.486   4.813  0.00  0.00    +0.003 C 
BRANCH  21  22
ATOM     22  C   UNL     1     -34.767  24.824   5.361  0.00  0.00    +0.029 C 
BRANCH  22  23
ATOM     23  C   UNL     1     -34.313  26.258   5.057  0.00  0.00    +0.113 C 
BRANCH  23  24
ATOM     24  O   UNL     1     -33.644  26.768   6.212  0.00  0.00    -0.384 OA
ATOM     25  H   UNL     1     -33.959  26.302   7.002  0.00  0.00    +0.210 HD
ENDBRANCH  23  24
BRANCH  23  26
ATOM     26  C   UNL     1     -33.382  26.413   3.845  0.00  0.00    +0.059 C 
BRANCH  26  27
ATOM     27  C   UNL     1     -33.293  27.831   3.269  0.00  0.00    +0.124 C 
BRANCH  27  28
ATOM     28  O   UNL     1     -34.361  28.624   3.784  0.00  0.00    -0.384 OA
ATOM     29  H   UNL     1     -35.138  28.531   3.210  0.00  0.00    +0.210 HD
ENDBRANCH  27  28
BRANCH  27  30
ATOM     30  C   UNL     1     -31.976  28.494   3.672  0.00  0.00    +0.139 C 
BRANCH  30  32
ATOM     31  O   UNL     1     -32.372  30.803   4.262  0.00  0.00    -0.250 OA
ATOM     32  C   UNL     1     -32.214  29.644   4.621  0.00  0.00    +0.316 C 
BRANCH  32  33
ATOM     33  O   UNL     1     -32.251  29.252   5.919  0.00  0.00    -0.480 OA
ATOM     34  H   UNL     1     -31.994  29.848   6.595  0.00  0.00    +0.295 HD
ENDBRANCH  32  33
ENDBRANCH  30  32
ENDBRANCH  27  30
ENDBRANCH  26  27
ENDBRANCH  23  26
ENDBRANCH  22  23
ENDBRANCH  21  22
ENDBRANCH   2  21
TORSDOF 15
ENDMDL
MODEL 8
REMARK VINA RESULT:      -5.5      2.946      6.114
REMARK  Name = 54687
REMARK  15 active torsions:
REMARK  status: ('A' for Active; 'I' for Inactive)
REMARK    1  A    between atoms: C_2  and  C_21
REMARK    2  A    between atoms: C_3  and  O_14
REMARK    3  A    between atoms: C_7  and  O_12
REMARK    4  A    between atoms: O_14  and  C_16
REMARK    5  A    between atoms: C_16  and  C_17
REMARK    6  A    between atoms: C_17  and  C_19
REMARK    7  A    between atoms: C_21  and  C_22
REMARK    8  A    between atoms: C_22  and  C_23
REMARK    9  A    between atoms: C_23  and  O_24
REMARK   10  A    between atoms: C_23  and  C_26
REMARK   11  A    between atoms: C_26  and  C_27
REMARK   12  A    between atoms: C_27  and  O_28
REMARK   13  A    between atoms: C_27  and  C_30
REMARK   14  A    between atoms: C_30  and  C_32
REMARK   15  A    between atoms: C_32  and  O_33
REMARK                            x       y       z     vdW  Elec       q    Type
REMARK                         _______ _______ _______ _____ _____    ______ ____
ROOT
ATOM      1  C   UNL     1     -35.752  23.561   3.216  0.00  0.00    +0.063 C 
ATOM      2  C   UNL     1     -34.855  24.799   3.513  0.00  0.00    +0.012 C 
ATOM      3  C   UNL     1     -35.762  23.137   1.726  0.00  0.00    +0.175 C 
ATOM      4  C   UNL     1     -34.894  25.176   5.024  0.00  0.00    +0.022 C 
ATOM      5  C   UNL     1     -35.385  22.390   4.128  0.00  0.00    -0.021 C 
ATOM      6  C   UNL     1     -36.544  21.836   1.550  0.00  0.00    +0.078 C 
ATOM      7  C   UNL     1     -35.929  20.690   2.357  0.00  0.00    +0.136 C 
ATOM      8  C   UNL     1     -34.715  23.958   5.892  0.00  0.00    -0.027 C 
ATOM      9  C   UNL     1     -35.474  21.110   3.726  0.00  0.00    -0.002 C 
ATOM     10  C   UNL     1     -34.925  22.707   5.468  0.00  0.00    -0.009 C 
ATOM     11  C   UNL     1     -36.161  25.919   5.462  0.00  0.00    +0.005 C 
ENDROOT
BRANCH   7  12
ATOM     12  O   UNL     1     -36.903  19.656   2.467  0.00  0.00    -0.380 OA
ATOM     13  H   UNL     1     -36.840  19.068   1.698  0.00  0.00    +0.211 HD
ENDBRANCH   7  12
BRANCH   3  14
ATOM     14  O   UNL     1     -34.442  22.940   1.225  0.00  0.00    -0.452 OA
BRANCH  14  16
ATOM     15  O   UNL     1     -33.839  22.134  -0.851  0.00  0.00    -0.250 OA
ATOM     16  C   UNL     1     -34.307  23.009  -0.135  0.00  0.00    +0.316 C 
BRANCH  16  17
ATOM     17  C   UNL     1     -34.802  24.357  -0.633  0.00  0.00    +0.099 C 
ATOM     18  C   UNL     1     -33.594  25.182  -1.065  0.00  0.00    +0.012 C 
BRANCH  17  19
ATOM     19  C   UNL     1     -35.799  24.196  -1.789  0.00  0.00    +0.011 C 
ATOM     20  C   UNL     1     -37.215  24.605  -1.402  0.00  0.00    +0.001 C 
ENDBRANCH  17  19
ENDBRANCH  16  17
ENDBRANCH  14  16
ENDBRANCH   3  14
BRANCH   2  21
ATOM     21  C   UNL     1     -35.192  26.002   2.624  0.00  0.00    +0.003 C 
BRANCH  21  22
ATOM     22  C   UNL     1     -33.937  26.815   2.310  0.00  0.00    +0.029 C 
BRANCH  22  23
ATOM     23  C   UNL     1     -34.058  28.303   2.665  0.00  0.00    +0.113 C 
BRANCH  23  24
ATOM     24  O   UNL     1     -35.330  28.511   3.284  0.00  0.00    -0.384 OA
ATOM     25  H   UNL     1     -35.344  28.078   4.152  0.00  0.00    +0.210 HD
ENDBRANCH  23  24
BRANCH  23  26
ATOM     26  C   UNL     1     -32.967  28.851   3.598  0.00  0.00    +0.059 C 
BRANCH  26  27
ATOM     27  C   UNL     1     -32.205  27.790   4.403  0.00  0.00    +0.124 C 
BRANCH  27  28
ATOM     28  O   UNL     1     -30.859  27.715   3.938  0.00  0.00    -0.384 OA
ATOM     29  H   UNL     1     -30.255  27.951   4.660  0.00  0.00    +0.210 HD
ENDBRANCH  27  28
BRANCH  27  30
ATOM     30  C   UNL     1     -32.174  28.161   5.885  0.00  0.00    +0.139 C 
BRANCH  30  32
ATOM     31  O   UNL     1     -30.344  29.682   6.304  0.00  0.00    -0.250 OA
ATOM     32  C   UNL     1     -30.779  28.538   6.322  0.00  0.00    +0.316 C 
BRANCH  32  33
ATOM     33  O   UNL     1     -30.060  27.473   6.755  0.00  0.00    -0.480 OA
ATOM     34  H   UNL     1     -29.551  26.973   6.148  0.00  0.00    +0.295 HD
ENDBRANCH  32  33
ENDBRANCH  30  32
ENDBRANCH  27  30
ENDBRANCH  26  27
ENDBRANCH  23  26
ENDBRANCH  22  23
ENDBRANCH  21  22
ENDBRANCH   2  21
TORSDOF 15
ENDMDL
MODEL 9
REMARK VINA RESULT:      -5.4      5.915     10.742
REMARK  Name = 54687
REMARK  15 active torsions:
REMARK  status: ('A' for Active; 'I' for Inactive)
REMARK    1  A    between atoms: C_2  and  C_21
REMARK    2  A    between atoms: C_3  and  O_14
REMARK    3  A    between atoms: C_7  and  O_12
REMARK    4  A    between atoms: O_14  and  C_16
REMARK    5  A    between atoms: C_16  and  C_17
REMARK    6  A    between atoms: C_17  and  C_19
REMARK    7  A    between atoms: C_21  and  C_22
REMARK    8  A    between atoms: C_22  and  C_23
REMARK    9  A    between atoms: C_23  and  O_24
REMARK   10  A    between atoms: C_23  and  C_26
REMARK   11  A    between atoms: C_26  and  C_27
REMARK   12  A    between atoms: C_27  and  O_28
REMARK   13  A    between atoms: C_27  and  C_30
REMARK   14  A    between atoms: C_30  and  C_32
REMARK   15  A    between atoms: C_32  and  O_33
REMARK                            x       y       z     vdW  Elec       q    Type
REMARK                         _______ _______ _______ _____ _____    ______ ____
ROOT
ATOM      1  C   UNL     1     -37.052  24.532   3.432  0.00  0.00    +0.063 C 
ATOM      2  C   UNL     1     -37.696  24.049   2.099  0.00  0.00    +0.012 C 
ATOM      3  C   UNL     1     -36.203  23.450   4.146  0.00  0.00    +0.175 C 
ATOM      4  C   UNL     1     -38.539  25.178   1.436  0.00  0.00    +0.022 C 
ATOM      5  C   UNL     1     -36.254  25.818   3.218  0.00  0.00    -0.021 C 
ATOM      6  C   UNL     1     -35.494  24.049   5.361  0.00  0.00    +0.078 C 
ATOM      7  C   UNL     1     -34.557  25.192   4.964  0.00  0.00    +0.136 C 
ATOM      8  C   UNL     1     -37.782  26.480   1.415  0.00  0.00    -0.027 C 
ATOM      9  C   UNL     1     -35.139  26.098   3.916  0.00  0.00    -0.002 C 
ATOM     10  C   UNL     1     -36.743  26.747   2.215  0.00  0.00    -0.009 C 
ATOM     11  C   UNL     1     -39.911  25.410   2.079  0.00  0.00    +0.005 C 
ENDROOT
BRANCH   7  12
ATOM     12  O   UNL     1     -34.254  25.942   6.138  0.00  0.00    -0.380 OA
ATOM     13  H   UNL     1     -34.784  26.756   6.148  0.00  0.00    +0.211 HD
ENDBRANCH   7  12
BRANCH   3  14
ATOM     14  O   UNL     1     -35.218  22.896   3.278  0.00  0.00    -0.452 OA
BRANCH  14  16
ATOM     15  O   UNL     1     -35.313  20.737   4.089  0.00  0.00    -0.250 OA
ATOM     16  C   UNL     1     -35.230  21.532   3.162  0.00  0.00    +0.316 C 
BRANCH  16  17
ATOM     17  C   UNL     1     -35.096  21.140   1.700  0.00  0.00    +0.099 C 
ATOM     18  C   UNL     1     -34.541  22.336   0.931  0.00  0.00    +0.012 C 
BRANCH  17  19
ATOM     19  C   UNL     1     -34.192  19.911   1.529  0.00  0.00    +0.011 C 
ATOM     20  C   UNL     1     -34.708  18.948   0.467  0.00  0.00    +0.001 C 
ENDBRANCH  17  19
ENDBRANCH  16  17
ENDBRANCH  14  16
ENDBRANCH   3  14
BRANCH   2  21
ATOM     21  C   UNL     1     -38.512  22.762   2.267  0.00  0.00    +0.003 C 
BRANCH  21  22
ATOM     22  C   UNL     1     -38.495  21.935   0.983  0.00  0.00    +0.029 C 
BRANCH  22  23
ATOM     23  C   UNL     1     -39.790  21.151   0.733  0.00  0.00    +0.113 C 
BRANCH  23  24
ATOM     24  O   UNL     1     -40.432  20.938   1.993  0.00  0.00    -0.384 OA
ATOM     25  H   UNL     1     -39.817  21.157   2.711  0.00  0.00    +0.210 HD
ENDBRANCH  23  24
BRANCH  23  26
ATOM     26  C   UNL     1     -40.794  21.819  -0.218  0.00  0.00    +0.059 C 
BRANCH  26  27
ATOM     27  C   UNL     1     -41.514  20.865  -1.180  0.00  0.00    +0.124 C 
BRANCH  27  28
ATOM     28  O   UNL     1     -41.162  19.518  -0.869  0.00  0.00    -0.384 OA
ATOM     29  H   UNL     1     -40.628  19.502  -0.059  0.00  0.00    +0.210 HD
ENDBRANCH  27  28
BRANCH  27  30
ATOM     30  C   UNL     1     -43.030  21.003  -1.039  0.00  0.00    +0.139 C 
BRANCH  30  32
ATOM     31  O   UNL     1     -44.112  18.860  -1.319  0.00  0.00    -0.250 OA
ATOM     32  C   UNL     1     -43.651  19.710  -0.568  0.00  0.00    +0.316 C 
BRANCH  32  33
ATOM     33  O   UNL     1     -43.629  19.580   0.782  0.00  0.00    -0.480 OA
ATOM     34  H   UNL     1     -44.404  19.319   1.240  0.00  0.00    +0.295 HD
ENDBRANCH  32  33
ENDBRANCH  30  32
ENDBRANCH  27  30
ENDBRANCH  26  27
ENDBRANCH  23  26
ENDBRANCH  22  23
ENDBRANCH  21  22
ENDBRANCH   2  21
TORSDOF 15
ENDMDL
