MODEL 1
REMARK VINA RESULT:      -7.0      0.000      0.000
REMARK  Name = 196744
REMARK  5 active torsions:
REMARK  status: ('A' for Active; 'I' for Inactive)
REMARK    1  A    between atoms: C_7  and  C_33
REMARK    2  A    between atoms: C_28  and  O_37
REMARK    3  A    between atoms: C_30  and  O_39
REMARK    4  A    between atoms: C_33  and  O_34
REMARK    5  A    between atoms: O_34  and  O_35
REMARK                            x       y       z     vdW  Elec       q    Type
REMARK                         _______ _______ _______ _____ _____    ______ ____
ROOT
ATOM      1  O   UNL     1     -36.589  25.264   1.904  0.00  0.00    -0.321 OA
ATOM      2  O   UNL     1     -42.617  22.140  -0.717  0.00  0.00    -0.270 OA
ATOM      3  N   UNL     1     -36.504  22.922   1.717  0.00  0.00    -0.307 N 
ATOM      4  N   UNL     1     -38.784  24.759   2.191  0.00  0.00    -0.304 N 
ATOM      5  N   UNL     1     -41.158  20.367  -1.182  0.00  0.00    -0.297 N 
ATOM      6  C   UNL     1     -35.819  24.104   2.250  0.00  0.00    +0.175 C 
ATOM      7  C   UNL     1     -35.830  24.090   3.782  0.00  0.00    +0.152 C 
ATOM      8  C   UNL     1     -37.649  25.344   2.849  0.00  0.00    +0.207 C 
ATOM      9  C   UNL     1     -37.222  24.603   4.114  0.00  0.00    +0.070 C 
ATOM     10  C   UNL     1     -37.779  22.736   1.231  0.00  0.00    +0.077 A 
ATOM     11  C   UNL     1     -38.867  23.631   1.429  0.00  0.00    +0.078 A 
ATOM     12  C   UNL     1     -38.119  21.537   0.506  0.00  0.00    +0.017 A 
ATOM     13  C   UNL     1     -40.117  23.252   0.808  0.00  0.00    +0.023 A 
ATOM     14  C   UNL     1     -35.947  21.657   1.484  0.00  0.00    +0.062 A 
ATOM     15  C   UNL     1     -34.453  24.346   1.592  0.00  0.00    +0.055 C 
ATOM     16  C   UNL     1     -40.078  25.259   2.117  0.00  0.00    +0.062 A 
ATOM     17  C   UNL     1     -36.840  20.860   0.704  0.00  0.00    +0.020 A 
ATOM     18  C   UNL     1     -39.319  21.197  -0.115  0.00  0.00    +0.003 A 
ATOM     19  C   UNL     1     -40.352  22.114   0.040  0.00  0.00    +0.053 A 
ATOM     20  C   UNL     1     -40.888  24.406   1.299  0.00  0.00    +0.020 A 
ATOM     21  C   UNL     1     -39.782  20.015  -0.897  0.00  0.00    +0.117 C 
ATOM     22  C   UNL     1     -34.708  21.125   1.898  0.00  0.00    +0.020 C 
ATOM     23  C   UNL     1     -41.533  21.594  -0.642  0.00  0.00    +0.246 C 
ATOM     24  C   UNL     1     -40.614  26.415   2.715  0.00  0.00    +0.020 C 
ATOM     25  C   UNL     1     -36.413  19.569   0.301  0.00  0.00    +0.038 C 
ATOM     26  C   UNL     1     -42.243  24.780   1.120  0.00  0.00    +0.038 C 
ATOM     27  C   UNL     1     -34.330  19.844   1.488  0.00  0.00    +0.038 C 
ATOM     28  C   UNL     1     -35.165  19.079   0.689  0.00  0.00    +0.134 C 
ATOM     29  C   UNL     1     -41.955  26.740   2.505  0.00  0.00    +0.038 C 
ATOM     30  C   UNL     1     -42.760  25.934   1.716  0.00  0.00    +0.134 C 
ATOM     31  H   UNL     1     -41.767  19.796  -1.703  0.00  0.00    +0.150 HD
ENDROOT
BRANCH   7  33
ATOM     32  O   UNL     1     -33.635  24.710   4.563  0.00  0.00    -0.247 OA
ATOM     33  C   UNL     1     -34.806  25.013   4.380  0.00  0.00    +0.356 C 
BRANCH  33  34
ATOM     34  O   UNL     1     -35.393  26.209   4.676  0.00  0.00    -0.295 OA
BRANCH  34  35
ATOM     35  O   UNL     1     -34.378  27.236   4.466  0.00  0.00    -0.167 OA
ATOM     36  C   UNL     1     -34.655  27.782   3.185  0.00  0.00    +0.232 C 
ENDBRANCH  34  35
ENDBRANCH  33  34
ENDBRANCH   7  33
BRANCH  28  37
ATOM     37  O   UNL     1     -34.778  17.833   0.299  0.00  0.00    -0.506 OA
ATOM     38  H   UNL     1     -34.324  17.715  -0.512  0.00  0.00    +0.292 HD
ENDBRANCH  28  37
BRANCH  30  39
ATOM     39  O   UNL     1     -44.066  26.266   1.522  0.00  0.00    -0.506 OA
ATOM     40  H   UNL     1     -44.440  26.989   1.987  0.00  0.00    +0.292 HD
ENDBRANCH  30  39
TORSDOF 5
ENDMDL
MODEL 2
REMARK VINA RESULT:      -6.9      2.104      5.724
REMARK  Name = 196744
REMARK  5 active torsions:
REMARK  status: ('A' for Active; 'I' for Inactive)
REMARK    1  A    between atoms: C_7  and  C_33
REMARK    2  A    between atoms: C_28  and  O_37
REMARK    3  A    between atoms: C_30  and  O_39
REMARK    4  A    between atoms: C_33  and  O_34
REMARK    5  A    between atoms: O_34  and  O_35
REMARK                            x       y       z     vdW  Elec       q    Type
REMARK                         _______ _______ _______ _____ _____    ______ ____
ROOT
ATOM      1  O   UNL     1     -34.606  21.570   0.394  0.00  0.00    -0.321 OA
ATOM      2  O   UNL     1     -40.361  25.405   2.662  0.00  0.00    -0.270 OA
ATOM      3  N   UNL     1     -36.697  20.576  -0.014  0.00  0.00    -0.307 N 
ATOM      4  N   UNL     1     -35.799  22.420   2.129  0.00  0.00    -0.304 N 
ATOM      5  N   UNL     1     -41.509  24.060   1.124  0.00  0.00    -0.297 N 
ATOM      6  C   UNL     1     -35.246  20.360  -0.034  0.00  0.00    +0.175 C 
ATOM      7  C   UNL     1     -34.840  19.327   1.023  0.00  0.00    +0.152 C 
ATOM      8  C   UNL     1     -34.673  21.585   1.815  0.00  0.00    +0.207 C 
ATOM      9  C   UNL     1     -34.818  20.146   2.304  0.00  0.00    +0.070 C 
ATOM     10  C   UNL     1     -37.475  21.558   0.557  0.00  0.00    +0.077 A 
ATOM     11  C   UNL     1     -37.038  22.465   1.562  0.00  0.00    +0.078 A 
ATOM     12  C   UNL     1     -38.864  21.695   0.194  0.00  0.00    +0.017 A 
ATOM     13  C   UNL     1     -38.015  23.436   2.004  0.00  0.00    +0.023 A 
ATOM     14  C   UNL     1     -37.671  19.831  -0.693  0.00  0.00    +0.062 A 
ATOM     15  C   UNL     1     -34.701  20.122  -1.448  0.00  0.00    +0.055 C 
ATOM     16  C   UNL     1     -35.864  23.449   3.060  0.00  0.00    +0.062 A 
ATOM     17  C   UNL     1     -38.927  20.510  -0.657  0.00  0.00    +0.020 A 
ATOM     18  C   UNL     1     -39.787  22.654   0.604  0.00  0.00    +0.003 A 
ATOM     19  C   UNL     1     -39.322  23.569   1.542  0.00  0.00    +0.053 A 
ATOM     20  C   UNL     1     -37.149  24.080   3.005  0.00  0.00    +0.020 A 
ATOM     21  C   UNL     1     -41.224  22.909   0.293  0.00  0.00    +0.117 C 
ATOM     22  C   UNL     1     -37.560  18.590  -1.354  0.00  0.00    +0.020 C 
ATOM     23  C   UNL     1     -40.415  24.476   1.879  0.00  0.00    +0.246 C 
ATOM     24  C   UNL     1     -34.877  23.886   3.965  0.00  0.00    +0.020 C 
ATOM     25  C   UNL     1     -40.019  19.943  -1.361  0.00  0.00    +0.038 C 
ATOM     26  C   UNL     1     -37.378  25.158   3.895  0.00  0.00    +0.038 C 
ATOM     27  C   UNL     1     -38.665  18.060  -2.027  0.00  0.00    +0.038 C 
ATOM     28  C   UNL     1     -39.876  18.734  -2.043  0.00  0.00    +0.134 C 
ATOM     29  C   UNL     1     -35.153  24.954   4.819  0.00  0.00    +0.038 C 
ATOM     30  C   UNL     1     -36.386  25.584   4.785  0.00  0.00    +0.134 C 
ATOM     31  H   UNL     1     -42.387  24.504   1.154  0.00  0.00    +0.150 HD
ENDROOT
BRANCH   7  33
ATOM     32  O   UNL     1     -32.432  19.384   0.902  0.00  0.00    -0.247 OA
ATOM     33  C   UNL     1     -33.473  18.753   0.779  0.00  0.00    +0.356 C 
BRANCH  33  34
ATOM     34  O   UNL     1     -33.592  17.444   0.407  0.00  0.00    -0.295 OA
BRANCH  34  35
ATOM     35  O   UNL     1     -32.330  16.797   0.751  0.00  0.00    -0.167 OA
ATOM     36  C   UNL     1     -32.172  15.753  -0.199  0.00  0.00    +0.232 C 
ENDBRANCH  34  35
ENDBRANCH  33  34
ENDBRANCH   7  33
BRANCH  28  37
ATOM     37  O   UNL     1     -40.940  18.202  -2.706  0.00  0.00    -0.506 OA
ATOM     38  H   UNL     1     -40.816  17.786  -3.536  0.00  0.00    +0.292 HD
ENDBRANCH  28  37
BRANCH  30  39
ATOM     39  O   UNL     1     -36.638  26.625   5.627  0.00  0.00    -0.506 OA
ATOM     40  H   UNL     1     -36.904  26.459   6.510  0.00  0.00    +0.292 HD
ENDBRANCH  30  39
TORSDOF 5
ENDMDL
MODEL 3
REMARK VINA RESULT:      -6.8      3.228      4.584
REMARK  Name = 196744
REMARK  5 active torsions:
REMARK  status: ('A' for Active; 'I' for Inactive)
REMARK    1  A    between atoms: C_7  and  C_33
REMARK    2  A    between atoms: C_28  and  O_37
REMARK    3  A    between atoms: C_30  and  O_39
REMARK    4  A    between atoms: C_33  and  O_34
REMARK    5  A    between atoms: O_34  and  O_35
REMARK                            x       y       z     vdW  Elec       q    Type
REMARK                         _______ _______ _______ _____ _____    ______ ____
ROOT
ATOM      1  O   UNL     1     -34.244  27.421   1.118  0.00  0.00    -0.321 OA
ATOM      2  O   UNL     1     -41.173  25.519  -0.041  0.00  0.00    -0.270 OA
ATOM      3  N   UNL     1     -35.186  26.017   2.752  0.00  0.00    -0.307 N 
ATOM      4  N   UNL     1     -36.422  28.048   0.979  0.00  0.00    -0.304 N 
ATOM      5  N   UNL     1     -40.648  23.778   1.435  0.00  0.00    -0.297 N 
ATOM      6  C   UNL     1     -34.028  26.854   2.417  0.00  0.00    +0.175 C 
ATOM      7  C   UNL     1     -33.954  28.069   3.348  0.00  0.00    +0.152 C 
ATOM      8  C   UNL     1     -35.109  28.535   1.299  0.00  0.00    +0.207 C 
ATOM      9  C   UNL     1     -34.968  29.024   2.739  0.00  0.00    +0.070 C 
ATOM     10  C   UNL     1     -36.442  25.919   2.199  0.00  0.00    +0.077 A 
ATOM     11  C   UNL     1     -37.026  26.874   1.322  0.00  0.00    +0.078 A 
ATOM     12  C   UNL     1     -37.307  24.815   2.538  0.00  0.00    +0.017 A 
ATOM     13  C   UNL     1     -38.352  26.560   0.838  0.00  0.00    +0.023 A 
ATOM     14  C   UNL     1     -35.241  25.000   3.715  0.00  0.00    +0.062 A 
ATOM     15  C   UNL     1     -32.733  26.044   2.268  0.00  0.00    +0.055 C 
ATOM     16  C   UNL     1     -37.378  28.643   0.165  0.00  0.00    +0.062 A 
ATOM     17  C   UNL     1     -36.434  24.231   3.552  0.00  0.00    +0.020 A 
ATOM     18  C   UNL     1     -38.571  24.506   2.040  0.00  0.00    +0.003 A 
ATOM     19  C   UNL     1     -39.098  25.423   1.138  0.00  0.00    +0.053 A 
ATOM     20  C   UNL     1     -38.522  27.790   0.046  0.00  0.00    +0.020 A 
ATOM     21  C   UNL     1     -39.543  23.403   2.293  0.00  0.00    +0.117 C 
ATOM     22  C   UNL     1     -34.329  24.675   4.740  0.00  0.00    +0.020 C 
ATOM     23  C   UNL     1     -40.427  24.964   0.742  0.00  0.00    +0.246 C 
ATOM     24  C   UNL     1     -37.328  29.888  -0.492  0.00  0.00    +0.020 C 
ATOM     25  C   UNL     1     -36.627  23.104   4.391  0.00  0.00    +0.038 C 
ATOM     26  C   UNL     1     -39.593  28.253  -0.758  0.00  0.00    +0.038 C 
ATOM     27  C   UNL     1     -34.563  23.563   5.552  0.00  0.00    +0.038 C 
ATOM     28  C   UNL     1     -35.691  22.777   5.372  0.00  0.00    +0.134 C 
ATOM     29  C   UNL     1     -38.409  30.296  -1.273  0.00  0.00    +0.038 C 
ATOM     30  C   UNL     1     -39.527  29.489  -1.408  0.00  0.00    +0.134 C 
ATOM     31  H   UNL     1     -41.473  23.247   1.351  0.00  0.00    +0.150 HD
ENDROOT
BRANCH   7  33
ATOM     32  O   UNL     1     -32.192  29.455   2.460  0.00  0.00    -0.247 OA
ATOM     33  C   UNL     1     -32.599  28.720   3.349  0.00  0.00    +0.356 C 
BRANCH  33  34
ATOM     34  O   UNL     1     -31.924  28.358   4.479  0.00  0.00    -0.295 OA
BRANCH  34  35
ATOM     35  O   UNL     1     -32.931  28.064   5.492  0.00  0.00    -0.167 OA
ATOM     36  C   UNL     1     -32.201  27.722   6.661  0.00  0.00    +0.232 C 
ENDBRANCH  34  35
ENDBRANCH  33  34
ENDBRANCH   7  33
BRANCH  28  37
ATOM     37  O   UNL     1     -35.901  21.696   6.174  0.00  0.00    -0.506 OA
ATOM     38  H   UNL     1     -35.758  20.832   5.842  0.00  0.00    +0.292 HD
ENDBRANCH  28  37
BRANCH  30  39
ATOM     39  O   UNL     1     -40.573  29.904  -2.174  0.00  0.00    -0.506 OA
ATOM     40  H   UNL     1     -40.478  30.653  -2.731  0.00  0.00    +0.292 HD
ENDBRANCH  30  39
TORSDOF 5
ENDMDL
MODEL 4
REMARK VINA RESULT:      -6.7      1.802      6.235
REMARK  Name = 196744
REMARK  5 active torsions:
REMARK  status: ('A' for Active; 'I' for Inactive)
REMARK    1  A    between atoms: C_7  and  C_33
REMARK    2  A    between atoms: C_28  and  O_37
REMARK    3  A    between atoms: C_30  and  O_39
REMARK    4  A    between atoms: C_33  and  O_34
REMARK    5  A    between atoms: O_34  and  O_35
REMARK                            x       y       z     vdW  Elec       q    Type
REMARK                         _______ _______ _______ _____ _____    ______ ____
ROOT
ATOM      1  O   UNL     1     -36.110  21.613  -0.006  0.00  0.00    -0.321 OA
ATOM      2  O   UNL     1     -40.431  26.553   3.138  0.00  0.00    -0.270 OA
ATOM      3  N   UNL     1     -38.416  21.205  -0.213  0.00  0.00    -0.307 N 
ATOM      4  N   UNL     1     -36.862  22.586   1.902  0.00  0.00    -0.304 N 
ATOM      5  N   UNL     1     -42.035  25.666   1.680  0.00  0.00    -0.297 N 
ATOM      6  C   UNL     1     -37.078  20.638  -0.418  0.00  0.00    +0.175 C 
ATOM      7  C   UNL     1     -36.842  19.454   0.525  0.00  0.00    +0.152 C 
ATOM      8  C   UNL     1     -36.024  21.527   1.411  0.00  0.00    +0.207 C 
ATOM      9  C   UNL     1     -36.481  20.133   1.837  0.00  0.00    +0.070 C 
ATOM     10  C   UNL     1     -38.854  22.298   0.499  0.00  0.00    +0.077 A 
ATOM     11  C   UNL     1     -38.100  22.983   1.491  0.00  0.00    +0.078 A 
ATOM     12  C   UNL     1     -40.192  22.805   0.314  0.00  0.00    +0.017 A 
ATOM     13  C   UNL     1     -38.746  24.126   2.099  0.00  0.00    +0.023 A 
ATOM     14  C   UNL     1     -39.612  20.782  -0.809  0.00  0.00    +0.062 A 
ATOM     15  C   UNL     1     -36.760  20.390  -1.899  0.00  0.00    +0.055 C 
ATOM     16  C   UNL     1     -36.566  23.519   2.888  0.00  0.00    +0.062 A 
ATOM     17  C   UNL     1     -40.642  21.746  -0.586  0.00  0.00    +0.020 A 
ATOM     18  C   UNL     1     -40.793  23.925   0.882  0.00  0.00    +0.003 A 
ATOM     19  C   UNL     1     -40.016  24.616   1.805  0.00  0.00    +0.053 A 
ATOM     20  C   UNL     1     -37.646  24.451   3.022  0.00  0.00    +0.020 A 
ATOM     21  C   UNL     1     -42.141  24.553   0.759  0.00  0.00    +0.117 C 
ATOM     22  C   UNL     1     -39.890  19.611  -1.545  0.00  0.00    +0.020 C 
ATOM     23  C   UNL     1     -40.800  25.735   2.319  0.00  0.00    +0.246 C 
ATOM     24  C   UNL     1     -35.413  23.622   3.690  0.00  0.00    +0.020 C 
ATOM     25  C   UNL     1     -41.909  21.526  -1.184  0.00  0.00    +0.038 C 
ATOM     26  C   UNL     1     -37.499  25.475   3.990  0.00  0.00    +0.038 C 
ATOM     27  C   UNL     1     -41.156  19.429  -2.107  0.00  0.00    +0.038 C 
ATOM     28  C   UNL     1     -42.150  20.380  -1.942  0.00  0.00    +0.134 C 
ATOM     29  C   UNL     1     -35.318  24.651   4.627  0.00  0.00    +0.038 C 
ATOM     30  C   UNL     1     -36.346  25.568   4.776  0.00  0.00    +0.134 C 
ATOM     31  H   UNL     1     -42.763  26.309   1.838  0.00  0.00    +0.150 HD
ENDROOT
BRANCH   7  33
ATOM     32  O   UNL     1     -34.521  18.881   0.216  0.00  0.00    -0.247 OA
ATOM     33  C   UNL     1     -35.700  18.581   0.089  0.00  0.00    +0.356 C 
BRANCH  33  34
ATOM     34  O   UNL     1     -36.193  17.431  -0.459  0.00  0.00    -0.295 OA
BRANCH  34  35
ATOM     35  O   UNL     1     -37.582  17.325  -0.028  0.00  0.00    -0.167 OA
ATOM     36  C   UNL     1     -37.913  15.950  -0.159  0.00  0.00    +0.232 C 
ENDBRANCH  34  35
ENDBRANCH  33  34
ENDBRANCH   7  33
BRANCH  28  37
ATOM     37  O   UNL     1     -43.377  20.184  -2.499  0.00  0.00    -0.506 OA
ATOM     38  H   UNL     1     -43.468  20.144  -3.431  0.00  0.00    +0.292 HD
ENDBRANCH  28  37
BRANCH  30  39
ATOM     39  O   UNL     1     -36.236  26.566   5.696  0.00  0.00    -0.506 OA
ATOM     40  H   UNL     1     -36.340  26.375   6.608  0.00  0.00    +0.292 HD
ENDBRANCH  30  39
TORSDOF 5
ENDMDL
MODEL 5
REMARK VINA RESULT:      -6.7      4.108      6.498
REMARK  Name = 196744
REMARK  5 active torsions:
REMARK  status: ('A' for Active; 'I' for Inactive)
REMARK    1  A    between atoms: C_7  and  C_33
REMARK    2  A    between atoms: C_28  and  O_37
REMARK    3  A    between atoms: C_30  and  O_39
REMARK    4  A    between atoms: C_33  and  O_34
REMARK    5  A    between atoms: O_34  and  O_35
REMARK                            x       y       z     vdW  Elec       q    Type
REMARK                         _______ _______ _______ _____ _____    ______ ____
ROOT
ATOM      1  O   UNL     1     -35.089  27.807   3.537  0.00  0.00    -0.321 OA
ATOM      2  O   UNL     1     -36.456  21.155   0.920  0.00  0.00    -0.270 OA
ATOM      3  N   UNL     1     -34.523  27.482   1.278  0.00  0.00    -0.307 N 
ATOM      4  N   UNL     1     -34.612  25.587   3.558  0.00  0.00    -0.304 N 
ATOM      5  N   UNL     1     -36.362  22.255  -1.147  0.00  0.00    -0.297 N 
ATOM      6  C   UNL     1     -34.408  28.396   2.420  0.00  0.00    +0.175 C 
ATOM      7  C   UNL     1     -32.950  28.501   2.883  0.00  0.00    +0.152 C 
ATOM      8  C   UNL     1     -34.197  26.852   4.099  0.00  0.00    +0.207 C 
ATOM      9  C   UNL     1     -32.771  27.245   3.721  0.00  0.00    +0.070 C 
ATOM     10  C   UNL     1     -34.898  26.161   1.189  0.00  0.00    +0.077 A 
ATOM     11  C   UNL     1     -34.973  25.257   2.285  0.00  0.00    +0.078 A 
ATOM     12  C   UNL     1     -35.197  25.568  -0.092  0.00  0.00    +0.017 A 
ATOM     13  C   UNL     1     -35.416  23.917   1.970  0.00  0.00    +0.023 A 
ATOM     14  C   UNL     1     -34.351  27.799  -0.077  0.00  0.00    +0.062 A 
ATOM     15  C   UNL     1     -35.136  29.727   2.191  0.00  0.00    +0.055 C 
ATOM     16  C   UNL     1     -34.815  24.393   4.239  0.00  0.00    +0.062 A 
ATOM     17  C   UNL     1     -34.819  26.727  -0.897  0.00  0.00    +0.020 A 
ATOM     18  C   UNL     1     -35.652  24.284  -0.380  0.00  0.00    +0.003 A 
ATOM     19  C   UNL     1     -35.776  23.435   0.714  0.00  0.00    +0.053 A 
ATOM     20  C   UNL     1     -35.302  23.391   3.340  0.00  0.00    +0.020 A 
ATOM     21  C   UNL     1     -36.008  23.570  -1.640  0.00  0.00    +0.117 C 
ATOM     22  C   UNL     1     -33.815  28.959  -0.673  0.00  0.00    +0.020 C 
ATOM     23  C   UNL     1     -36.234  22.134   0.234  0.00  0.00    +0.246 C 
ATOM     24  C   UNL     1     -34.605  24.107   5.603  0.00  0.00    +0.020 C 
ATOM     25  C   UNL     1     -34.798  26.899  -2.304  0.00  0.00    +0.038 C 
ATOM     26  C   UNL     1     -35.564  22.109   3.882  0.00  0.00    +0.038 C 
ATOM     27  C   UNL     1     -33.803  29.083  -2.064  0.00  0.00    +0.038 C 
ATOM     28  C   UNL     1     -34.301  28.073  -2.871  0.00  0.00    +0.134 C 
ATOM     29  C   UNL     1     -34.881  22.829   6.086  0.00  0.00    +0.038 C 
ATOM     30  C   UNL     1     -35.355  21.841   5.239  0.00  0.00    +0.134 C 
ATOM     31  H   UNL     1     -36.662  21.520  -1.728  0.00  0.00    +0.150 HD
ENDROOT
BRANCH   7  33
ATOM     32  O   UNL     1     -32.376  30.804   3.303  0.00  0.00    -0.247 OA
ATOM     33  C   UNL     1     -32.698  29.709   3.741  0.00  0.00    +0.356 C 
BRANCH  33  34
ATOM     34  O   UNL     1     -32.885  29.379   5.052  0.00  0.00    -0.295 OA
BRANCH  34  35
ATOM     35  O   UNL     1     -32.258  30.434   5.841  0.00  0.00    -0.167 OA
ATOM     36  C   UNL     1     -31.510  29.760   6.843  0.00  0.00    +0.232 C 
ENDBRANCH  34  35
ENDBRANCH  33  34
ENDBRANCH   7  33
BRANCH  28  37
ATOM     37  O   UNL     1     -34.281  28.213  -4.226  0.00  0.00    -0.506 OA
ATOM     38  H   UNL     1     -34.173  29.062  -4.608  0.00  0.00    +0.292 HD
ENDBRANCH  28  37
BRANCH  30  39
ATOM     39  O   UNL     1     -35.618  20.598   5.729  0.00  0.00    -0.506 OA
ATOM     40  H   UNL     1     -35.402  19.839   5.222  0.00  0.00    +0.292 HD
ENDBRANCH  30  39
TORSDOF 5
ENDMDL
MODEL 6
REMARK VINA RESULT:      -6.7      2.614      6.185
REMARK  Name = 196744
REMARK  5 active torsions:
REMARK  status: ('A' for Active; 'I' for Inactive)
REMARK    1  A    between atoms: C_7  and  C_33
REMARK    2  A    between atoms: C_28  and  O_37
REMARK    3  A    between atoms: C_30  and  O_39
REMARK    4  A    between atoms: C_33  and  O_34
REMARK    5  A    between atoms: O_34  and  O_35
REMARK                            x       y       z     vdW  Elec       q    Type
REMARK                         _______ _______ _______ _____ _____    ______ ____
ROOT
ATOM      1  O   UNL     1     -39.385  20.240  -0.028  0.00  0.00    -0.321 OA
ATOM      2  O   UNL     1     -36.794  24.488   5.283  0.00  0.00    -0.270 OA
ATOM      3  N   UNL     1     -37.073  20.061   0.361  0.00  0.00    -0.307 N 
ATOM      4  N   UNL     1     -38.943  22.334   0.728  0.00  0.00    -0.304 N 
ATOM      5  N   UNL     1     -35.020  22.958   5.258  0.00  0.00    -0.297 N 
ATOM      6  C   UNL     1     -38.166  19.688  -0.544  0.00  0.00    +0.175 C 
ATOM      7  C   UNL     1     -37.994  20.368  -1.907  0.00  0.00    +0.152 C 
ATOM      8  C   UNL     1     -39.411  21.607  -0.419  0.00  0.00    +0.207 C 
ATOM      9  C   UNL     1     -38.527  21.770  -1.654  0.00  0.00    +0.070 C 
ATOM     10  C   UNL     1     -36.991  20.994   1.370  0.00  0.00    +0.077 A 
ATOM     11  C   UNL     1     -37.904  22.066   1.569  0.00  0.00    +0.078 A 
ATOM     12  C   UNL     1     -35.887  20.973   2.299  0.00  0.00    +0.017 A 
ATOM     13  C   UNL     1     -37.641  22.916   2.710  0.00  0.00    +0.023 A 
ATOM     14  C   UNL     1     -35.817  19.448   0.466  0.00  0.00    +0.062 A 
ATOM     15  C   UNL     1     -38.419  18.174  -0.577  0.00  0.00    +0.055 C 
ATOM     16  C   UNL     1     -39.499  23.471   1.302  0.00  0.00    +0.062 A 
ATOM     17  C   UNL     1     -35.142  19.903   1.640  0.00  0.00    +0.020 A 
ATOM     18  C   UNL     1     -35.662  21.778   3.413  0.00  0.00    +0.003 A 
ATOM     19  C   UNL     1     -36.599  22.782   3.623  0.00  0.00    +0.053 A 
ATOM     20  C   UNL     1     -38.769  23.834   2.479  0.00  0.00    +0.020 A 
ATOM     21  C   UNL     1     -34.585  21.842   4.444  0.00  0.00    +0.117 C 
ATOM     22  C   UNL     1     -35.196  18.510  -0.385  0.00  0.00    +0.020 C 
ATOM     23  C   UNL     1     -36.200  23.542   4.805  0.00  0.00    +0.246 C 
ATOM     24  C   UNL     1     -40.610  24.224   0.873  0.00  0.00    +0.020 C 
ATOM     25  C   UNL     1     -33.883  19.332   1.955  0.00  0.00    +0.038 C 
ATOM     26  C   UNL     1     -39.214  24.977   3.188  0.00  0.00    +0.038 C 
ATOM     27  C   UNL     1     -33.950  17.980  -0.042  0.00  0.00    +0.038 C 
ATOM     28  C   UNL     1     -33.306  18.374   1.120  0.00  0.00    +0.134 C 
ATOM     29  C   UNL     1     -41.008  25.340   1.609  0.00  0.00    +0.038 C 
ATOM     30  C   UNL     1     -40.321  25.713   2.753  0.00  0.00    +0.134 C 
ATOM     31  H   UNL     1     -34.532  23.273   6.052  0.00  0.00    +0.150 HD
ENDROOT
BRANCH   7  33
ATOM     32  O   UNL     1     -40.016  19.863  -3.119  0.00  0.00    -0.247 OA
ATOM     33  C   UNL     1     -38.809  19.716  -2.988  0.00  0.00    +0.356 C 
BRANCH  33  34
ATOM     34  O   UNL     1     -37.992  18.956  -3.775  0.00  0.00    -0.295 OA
BRANCH  34  35
ATOM     35  O   UNL     1     -38.373  19.225  -5.157  0.00  0.00    -0.167 OA
ATOM     36  C   UNL     1     -37.193  19.704  -5.786  0.00  0.00    +0.232 C 
ENDBRANCH  34  35
ENDBRANCH  33  34
ENDBRANCH   7  33
BRANCH  28  37
ATOM     37  O   UNL     1     -32.091  17.846   1.437  0.00  0.00    -0.506 OA
ATOM     38  H   UNL     1     -32.040  17.068   1.957  0.00  0.00    +0.292 HD
ENDBRANCH  28  37
BRANCH  30  39
ATOM     39  O   UNL     1     -40.724  26.806   3.459  0.00  0.00    -0.506 OA
ATOM     40  H   UNL     1     -41.256  26.700   4.222  0.00  0.00    +0.292 HD
ENDBRANCH  30  39
TORSDOF 5
ENDMDL
MODEL 7
REMARK VINA RESULT:      -6.7      5.915     10.077
REMARK  Name = 196744
REMARK  5 active torsions:
REMARK  status: ('A' for Active; 'I' for Inactive)
REMARK    1  A    between atoms: C_7  and  C_33
REMARK    2  A    between atoms: C_28  and  O_37
REMARK    3  A    between atoms: C_30  and  O_39
REMARK    4  A    between atoms: C_33  and  O_34
REMARK    5  A    between atoms: O_34  and  O_35
REMARK                            x       y       z     vdW  Elec       q    Type
REMARK                         _______ _______ _______ _____ _____    ______ ____
ROOT
ATOM      1  O   UNL     1     -45.165  27.658   2.115  0.00  0.00    -0.321 OA
ATOM      2  O   UNL     1     -47.526  27.455   8.996  0.00  0.00    -0.270 OA
ATOM      3  N   UNL     1     -45.916  25.557   2.856  0.00  0.00    -0.307 N 
ATOM      4  N   UNL     1     -44.683  27.818   4.327  0.00  0.00    -0.304 N 
ATOM      5  N   UNL     1     -48.612  25.511   8.270  0.00  0.00    -0.297 N 
ATOM      6  C   UNL     1     -45.225  26.267   1.773  0.00  0.00    +0.175 C 
ATOM      7  C   UNL     1     -43.756  25.836   1.697  0.00  0.00    +0.152 C 
ATOM      8  C   UNL     1     -44.081  27.808   3.023  0.00  0.00    +0.207 C 
ATOM      9  C   UNL     1     -43.107  26.653   2.804  0.00  0.00    +0.070 C 
ATOM     10  C   UNL     1     -46.236  25.927   4.142  0.00  0.00    +0.077 A 
ATOM     11  C   UNL     1     -45.671  27.030   4.840  0.00  0.00    +0.078 A 
ATOM     12  C   UNL     1     -47.167  25.145   4.919  0.00  0.00    +0.017 A 
ATOM     13  C   UNL     1     -46.171  27.253   6.179  0.00  0.00    +0.023 A 
ATOM     14  C   UNL     1     -46.523  24.296   2.785  0.00  0.00    +0.062 A 
ATOM     15  C   UNL     1     -46.003  26.233   0.450  0.00  0.00    +0.055 C 
ATOM     16  C   UNL     1     -44.442  28.703   5.371  0.00  0.00    +0.062 A 
ATOM     17  C   UNL     1     -47.329  24.070   3.943  0.00  0.00    +0.020 A 
ATOM     18  C   UNL     1     -47.664  25.388   6.197  0.00  0.00    +0.003 A 
ATOM     19  C   UNL     1     -47.143  26.506   6.838  0.00  0.00    +0.053 A 
ATOM     20  C   UNL     1     -45.309  28.410   6.473  0.00  0.00    +0.020 A 
ATOM     21  C   UNL     1     -48.628  24.676   7.086  0.00  0.00    +0.117 C 
ATOM     22  C   UNL     1     -46.438  23.306   1.783  0.00  0.00    +0.020 C 
ATOM     23  C   UNL     1     -47.746  26.596   8.165  0.00  0.00    +0.246 C 
ATOM     24  C   UNL     1     -43.512  29.759   5.438  0.00  0.00    +0.020 C 
ATOM     25  C   UNL     1     -48.086  22.874   4.013  0.00  0.00    +0.038 C 
ATOM     26  C   UNL     1     -45.190  29.229   7.623  0.00  0.00    +0.038 C 
ATOM     27  C   UNL     1     -47.192  22.136   1.897  0.00  0.00    +0.038 C 
ATOM     28  C   UNL     1     -48.017  21.926   2.990  0.00  0.00    +0.134 C 
ATOM     29  C   UNL     1     -43.438  30.536   6.593  0.00  0.00    +0.038 C 
ATOM     30  C   UNL     1     -44.266  30.277   7.673  0.00  0.00    +0.134 C 
ATOM     31  H   UNL     1     -49.157  25.329   9.069  0.00  0.00    +0.150 HD
ENDROOT
BRANCH   7  33
ATOM     32  O   UNL     1     -42.753  27.312   0.076  0.00  0.00    -0.247 OA
ATOM     33  C   UNL     1     -43.115  26.185   0.383  0.00  0.00    +0.356 C 
BRANCH  33  34
ATOM     34  O   UNL     1     -43.011  25.059  -0.383  0.00  0.00    -0.295 OA
BRANCH  34  35
ATOM     35  O   UNL     1     -42.522  24.001   0.494  0.00  0.00    -0.167 OA
ATOM     36  C   UNL     1     -41.179  23.771   0.092  0.00  0.00    +0.232 C 
ENDBRANCH  34  35
ENDBRANCH  33  34
ENDBRANCH   7  33
BRANCH  28  37
ATOM     37  O   UNL     1     -48.746  20.780   3.082  0.00  0.00    -0.506 OA
ATOM     38  H   UNL     1     -49.569  20.782   3.530  0.00  0.00    +0.292 HD
ENDBRANCH  28  37
BRANCH  30  39
ATOM     39  O   UNL     1     -44.178  31.046   8.793  0.00  0.00    -0.506 OA
ATOM     40  H   UNL     1     -44.634  30.792   9.572  0.00  0.00    +0.292 HD
ENDBRANCH  30  39
TORSDOF 5
ENDMDL
MODEL 8
REMARK VINA RESULT:      -6.7      3.220      6.613
REMARK  Name = 196744
REMARK  5 active torsions:
REMARK  status: ('A' for Active; 'I' for Inactive)
REMARK    1  A    between atoms: C_7  and  C_33
REMARK    2  A    between atoms: C_28  and  O_37
REMARK    3  A    between atoms: C_30  and  O_39
REMARK    4  A    between atoms: C_33  and  O_34
REMARK    5  A    between atoms: O_34  and  O_35
REMARK                            x       y       z     vdW  Elec       q    Type
REMARK                         _______ _______ _______ _____ _____    ______ ____
ROOT
ATOM      1  O   UNL     1     -34.606  25.687   2.754  0.00  0.00    -0.321 OA
ATOM      2  O   UNL     1     -37.561  31.278  -0.848  0.00  0.00    -0.270 OA
ATOM      3  N   UNL     1     -36.903  25.484   2.297  0.00  0.00    -0.307 N 
ATOM      4  N   UNL     1     -35.207  27.876   2.743  0.00  0.00    -0.304 N 
ATOM      5  N   UNL     1     -39.219  29.705  -1.364  0.00  0.00    -0.297 N 
ATOM      6  C   UNL     1     -35.776  24.908   3.038  0.00  0.00    +0.175 C 
ATOM      7  C   UNL     1     -35.980  25.074   4.548  0.00  0.00    +0.152 C 
ATOM      8  C   UNL     1     -34.675  26.841   3.584  0.00  0.00    +0.207 C 
ATOM      9  C   UNL     1     -35.553  26.514   4.789  0.00  0.00    +0.070 C 
ATOM     10  C   UNL     1     -37.065  26.694   1.661  0.00  0.00    +0.077 A 
ATOM     11  C   UNL     1     -36.235  27.833   1.847  0.00  0.00    +0.078 A 
ATOM     12  C   UNL     1     -38.176  26.907   0.765  0.00  0.00    +0.017 A 
ATOM     13  C   UNL     1     -36.571  28.996   1.056  0.00  0.00    +0.023 A 
ATOM     14  C   UNL     1     -38.113  24.853   1.976  0.00  0.00    +0.062 A 
ATOM     15  C   UNL     1     -35.414  23.494   2.563  0.00  0.00    +0.055 C 
ATOM     16  C   UNL     1     -34.742  29.177   2.592  0.00  0.00    +0.062 A 
ATOM     17  C   UNL     1     -38.834  25.627   1.015  0.00  0.00    +0.020 A 
ATOM     18  C   UNL     1     -38.472  28.022  -0.016  0.00  0.00    +0.003 A 
ATOM     19  C   UNL     1     -37.612  29.103   0.137  0.00  0.00    +0.053 A 
ATOM     20  C   UNL     1     -35.510  29.861   1.597  0.00  0.00    +0.020 A 
ATOM     21  C   UNL     1     -39.562  28.352  -0.979  0.00  0.00    +0.117 C 
ATOM     22  C   UNL     1     -38.655  23.641   2.452  0.00  0.00    +0.020 C 
ATOM     23  C   UNL     1     -38.079  30.185  -0.725  0.00  0.00    +0.246 C 
ATOM     24  C   UNL     1     -33.684  29.820   3.264  0.00  0.00    +0.020 C 
ATOM     25  C   UNL     1     -40.051  25.106   0.509  0.00  0.00    +0.038 C 
ATOM     26  C   UNL     1     -35.158  31.206   1.320  0.00  0.00    +0.038 C 
ATOM     27  C   UNL     1     -39.863  23.169   1.935  0.00  0.00    +0.038 C 
ATOM     28  C   UNL     1     -40.548  23.884   0.965  0.00  0.00    +0.134 C 
ATOM     29  C   UNL     1     -33.376  31.144   2.952  0.00  0.00    +0.038 C 
ATOM     30  C   UNL     1     -34.102  31.830   1.992  0.00  0.00    +0.134 C 
ATOM     31  H   UNL     1     -39.738  30.233  -2.012  0.00  0.00    +0.150 HD
ENDROOT
BRANCH   7  33
ATOM     32  O   UNL     1     -33.891  24.256   5.430  0.00  0.00    -0.247 OA
ATOM     33  C   UNL     1     -35.108  24.157   5.357  0.00  0.00    +0.356 C 
BRANCH  33  34
ATOM     34  O   UNL     1     -35.886  23.222   5.978  0.00  0.00    -0.295 OA
BRANCH  34  35
ATOM     35  O   UNL     1     -34.989  22.164   6.428  0.00  0.00    -0.167 OA
ATOM     36  C   UNL     1     -35.109  21.131   5.461  0.00  0.00    +0.232 C 
ENDBRANCH  34  35
ENDBRANCH  33  34
ENDBRANCH   7  33
BRANCH  28  37
ATOM     37  O   UNL     1     -41.725  23.407   0.472  0.00  0.00    -0.506 OA
ATOM     38  H   UNL     1     -41.824  23.264  -0.448  0.00  0.00    +0.292 HD
ENDBRANCH  28  37
BRANCH  30  39
ATOM     39  O   UNL     1     -33.788  33.122   1.701  0.00  0.00    -0.506 OA
ATOM     40  H   UNL     1     -33.602  33.372   0.817  0.00  0.00    +0.292 HD
ENDBRANCH  30  39
TORSDOF 5
ENDMDL
MODEL 9
REMARK VINA RESULT:      -6.6      4.208      8.989
REMARK  Name = 196744
REMARK  5 active torsions:
REMARK  status: ('A' for Active; 'I' for Inactive)
REMARK    1  A    between atoms: C_7  and  C_33
REMARK    2  A    between atoms: C_28  and  O_37
REMARK    3  A    between atoms: C_30  and  O_39
REMARK    4  A    between atoms: C_33  and  O_34
REMARK    5  A    between atoms: O_34  and  O_35
REMARK                            x       y       z     vdW  Elec       q    Type
REMARK                         _______ _______ _______ _____ _____    ______ ____
ROOT
ATOM      1  O   UNL     1     -34.201  25.593   3.101  0.00  0.00    -0.321 OA
ATOM      2  O   UNL     1     -32.259  32.538   2.127  0.00  0.00    -0.270 OA
ATOM      3  N   UNL     1     -35.866  26.982   2.192  0.00  0.00    -0.307 N 
ATOM      4  N   UNL     1     -33.613  27.581   4.024  0.00  0.00    -0.304 N 
ATOM      5  N   UNL     1     -34.062  32.540   0.631  0.00  0.00    -0.297 N 
ATOM      6  C   UNL     1     -35.593  25.657   2.760  0.00  0.00    +0.175 C 
ATOM      7  C   UNL     1     -36.316  25.485   4.101  0.00  0.00    +0.152 C 
ATOM      8  C   UNL     1     -34.058  26.255   4.351  0.00  0.00    +0.207 C 
ATOM      9  C   UNL     1     -35.404  26.218   5.072  0.00  0.00    +0.070 C 
ATOM     10  C   UNL     1     -35.141  28.151   2.191  0.00  0.00    +0.077 A 
ATOM     11  C   UNL     1     -34.039  28.430   3.045  0.00  0.00    +0.078 A 
ATOM     12  C   UNL     1     -35.508  29.241   1.319  0.00  0.00    +0.017 A 
ATOM     13  C   UNL     1     -33.403  29.716   2.858  0.00  0.00    +0.023 A 
ATOM     14  C   UNL     1     -36.959  27.348   1.394  0.00  0.00    +0.062 A 
ATOM     15  C   UNL     1     -35.788  24.523   1.744  0.00  0.00    +0.055 C 
ATOM     16  C   UNL     1     -32.569  28.297   4.599  0.00  0.00    +0.062 A 
ATOM     17  C   UNL     1     -36.732  28.631   0.805  0.00  0.00    +0.020 A 
ATOM     18  C   UNL     1     -34.869  30.463   1.125  0.00  0.00    +0.003 A 
ATOM     19  C   UNL     1     -33.758  30.690   1.928  0.00  0.00    +0.053 A 
ATOM     20  C   UNL     1     -32.407  29.552   3.929  0.00  0.00    +0.020 A 
ATOM     21  C   UNL     1     -35.137  31.645   0.255  0.00  0.00    +0.117 C 
ATOM     22  C   UNL     1     -38.157  26.654   1.127  0.00  0.00    +0.020 C 
ATOM     23  C   UNL     1     -33.231  32.016   1.618  0.00  0.00    +0.246 C 
ATOM     24  C   UNL     1     -31.738  27.934   5.677  0.00  0.00    +0.020 C 
ATOM     25  C   UNL     1     -37.699  29.135  -0.101  0.00  0.00    +0.038 C 
ATOM     26  C   UNL     1     -31.376  30.405   4.396  0.00  0.00    +0.038 C 
ATOM     27  C   UNL     1     -39.089  27.193   0.237  0.00  0.00    +0.038 C 
ATOM     28  C   UNL     1     -38.859  28.411  -0.381  0.00  0.00    +0.134 C 
ATOM     29  C   UNL     1     -30.736  28.810   6.095  0.00  0.00    +0.038 C 
ATOM     30  C   UNL     1     -30.555  30.029   5.464  0.00  0.00    +0.134 C 
ATOM     31  H   UNL     1     -33.932  33.429   0.231  0.00  0.00    +0.150 HD
ENDROOT
BRANCH   7  33
ATOM     32  O   UNL     1     -37.163  23.231   3.975  0.00  0.00    -0.247 OA
ATOM     33  C   UNL     1     -36.430  24.046   4.519  0.00  0.00    +0.356 C 
BRANCH  33  34
ATOM     34  O   UNL     1     -35.601  23.816   5.579  0.00  0.00    -0.295 OA
BRANCH  34  35
ATOM     35  O   UNL     1     -36.020  22.548   6.168  0.00  0.00    -0.167 OA
ATOM     36  C   UNL     1     -34.899  21.685   6.039  0.00  0.00    +0.232 C 
ENDBRANCH  34  35
ENDBRANCH  33  34
ENDBRANCH   7  33
BRANCH  28  37
ATOM     37  O   UNL     1     -39.779  28.920  -1.247  0.00  0.00    -0.506 OA
ATOM     38  H   UNL     1     -39.792  28.632  -2.138  0.00  0.00    +0.292 HD
ENDBRANCH  28  37
BRANCH  30  39
ATOM     39  O   UNL     1     -29.572  30.871   5.887  0.00  0.00    -0.506 OA
ATOM     40  H   UNL     1     -28.709  30.803   5.526  0.00  0.00    +0.292 HD
ENDBRANCH  30  39
TORSDOF 5
ENDMDL
