MODEL 1
REMARK VINA RESULT:      -7.0      0.000      0.000
REMARK  Name = 57397234
REMARK  7 active torsions:
REMARK  status: ('A' for Active; 'I' for Inactive)
REMARK    1  A    between atoms: C_3  and  C_19
REMARK    2  A    between atoms: C_11  and  C_27
REMARK    3  A    between atoms: C_12  and  O_35
REMARK    4  A    between atoms: C_16  and  O_37
REMARK    5  A    between atoms: C_18  and  O_39
REMARK    6  A    between atoms: C_24  and  O_25
REMARK    7  A    between atoms: C_32  and  O_33
REMARK                            x       y       z     vdW  Elec       q    Type
REMARK                         _______ _______ _______ _____ _____    ______ ____
ROOT
ATOM      1  O   UNL     1     -33.440  25.981   4.628  0.00  0.00    -0.453 OA
ATOM      2  O   UNL     1     -36.062  30.285   1.873  0.00  0.00    -0.291 OA
ATOM      3  C   UNL     1     -36.188  28.033   0.987  0.00  0.00    +0.109 C 
ATOM      4  C   UNL     1     -35.309  26.445   3.442  0.00  0.00    +0.037 A 
ATOM      5  C   UNL     1     -37.077  27.059   1.764  0.00  0.00    +0.023 C 
ATOM      6  C   UNL     1     -34.428  27.558   3.362  0.00  0.00    +0.040 A 
ATOM      7  C   UNL     1     -36.650  26.301   2.884  0.00  0.00    +0.006 C 
ATOM      8  C   UNL     1     -34.475  28.816   2.748  0.00  0.00    +0.041 C 
ATOM      9  C   UNL     1     -35.616  29.141   1.877  0.00  0.00    +0.181 C 
ATOM     10  C   UNL     1     -33.314  27.240   4.126  0.00  0.00    +0.148 A 
ATOM     11  C   UNL     1     -34.645  25.508   4.210  0.00  0.00    +0.145 A 
ATOM     12  C   UNL     1     -38.394  26.878   1.290  0.00  0.00    +0.133 C 
ATOM     13  C   UNL     1     -37.554  25.405   3.488  0.00  0.00    +0.037 C 
ATOM     14  C   UNL     1     -33.429  29.725   2.950  0.00  0.00    +0.040 C 
ATOM     15  C   UNL     1     -32.241  28.104   4.336  0.00  0.00    +0.074 C 
ATOM     16  C   UNL     1     -32.330  29.366   3.733  0.00  0.00    +0.137 C 
ATOM     17  C   UNL     1     -39.272  25.984   1.902  0.00  0.00    +0.073 C 
ATOM     18  C   UNL     1     -38.852  25.249   3.000  0.00  0.00    +0.137 C 
ENDROOT
BRANCH   3  19
ATOM     19  C   UNL     1     -35.140  27.419   0.053  0.00  0.00    -0.011 C 
ATOM     20  C   UNL     1     -35.062  26.034  -0.093  0.00  0.00    -0.000 C 
ATOM     21  C   UNL     1     -34.266  28.246  -0.652  0.00  0.00    -0.000 C 
ATOM     22  C   UNL     1     -34.109  25.476  -0.944  0.00  0.00    +0.036 C 
ATOM     23  C   UNL     1     -33.313  27.687  -1.503  0.00  0.00    +0.036 C 
ATOM     24  C   UNL     1     -33.233  26.302  -1.648  0.00  0.00    +0.134 C 
BRANCH  24  25
ATOM     25  O   UNL     1     -32.303  25.757  -2.479  0.00  0.00    -0.506 OA
ATOM     26  H   UNL     1     -31.539  25.349  -2.123  0.00  0.00    +0.292 HD
ENDBRANCH  24  25
ENDBRANCH   3  19
BRANCH  11  27
ATOM     27  C   UNL     1     -34.880  24.153   4.639  0.00  0.00    +0.035 C 
ATOM     28  C   UNL     1     -34.960  23.856   5.999  0.00  0.00    +0.006 C 
ATOM     29  C   UNL     1     -35.029  23.139   3.693  0.00  0.00    +0.006 C 
ATOM     30  C   UNL     1     -35.188  22.545   6.414  0.00  0.00    +0.037 C 
ATOM     31  C   UNL     1     -35.257  21.827   4.108  0.00  0.00    +0.037 C 
ATOM     32  C   UNL     1     -35.336  21.529   5.469  0.00  0.00    +0.134 C 
BRANCH  32  33
ATOM     33  O   UNL     1     -35.562  20.250   5.874  0.00  0.00    -0.506 OA
ATOM     34  H   UNL     1     -34.904  19.788   6.354  0.00  0.00    +0.292 HD
ENDBRANCH  32  33
ENDBRANCH  11  27
BRANCH  12  35
ATOM     35  O   UNL     1     -38.866  27.564   0.207  0.00  0.00    -0.506 OA
ATOM     36  H   UNL     1     -38.350  28.246  -0.177  0.00  0.00    +0.292 HD
ENDBRANCH  12  35
BRANCH  16  37
ATOM     37  O   UNL     1     -31.313  30.260   3.910  0.00  0.00    -0.505 OA
ATOM     38  H   UNL     1     -30.495  30.132   3.472  0.00  0.00    +0.292 HD
ENDBRANCH  16  37
BRANCH  18  39
ATOM     39  O   UNL     1     -39.709  24.384   3.609  0.00  0.00    -0.505 OA
ATOM     40  H   UNL     1     -39.598  24.175   4.515  0.00  0.00    +0.292 HD
ENDBRANCH  18  39
TORSDOF 7
ENDMDL
MODEL 2
REMARK VINA RESULT:      -6.8      2.321      5.216
REMARK  Name = 57397234
REMARK  7 active torsions:
REMARK  status: ('A' for Active; 'I' for Inactive)
REMARK    1  A    between atoms: C_3  and  C_19
REMARK    2  A    between atoms: C_11  and  C_27
REMARK    3  A    between atoms: C_12  and  O_35
REMARK    4  A    between atoms: C_16  and  O_37
REMARK    5  A    between atoms: C_18  and  O_39
REMARK    6  A    between atoms: C_24  and  O_25
REMARK    7  A    between atoms: C_32  and  O_33
REMARK                            x       y       z     vdW  Elec       q    Type
REMARK                         _______ _______ _______ _____ _____    ______ ____
ROOT
ATOM      1  O   UNL     1     -35.156  23.498  -0.547  0.00  0.00    -0.453 OA
ATOM      2  O   UNL     1     -30.966  25.945   2.525  0.00  0.00    -0.291 OA
ATOM      3  C   UNL     1     -33.283  26.422   3.053  0.00  0.00    +0.109 C 
ATOM      4  C   UNL     1     -34.649  24.135   1.564  0.00  0.00    +0.037 A 
ATOM      5  C   UNL     1     -34.063  25.286   3.719  0.00  0.00    +0.023 C 
ATOM      6  C   UNL     1     -33.649  24.629   0.683  0.00  0.00    +0.040 A 
ATOM      7  C   UNL     1     -34.723  24.246   3.017  0.00  0.00    +0.006 C 
ATOM      8  C   UNL     1     -32.474  25.375   0.839  0.00  0.00    +0.041 C 
ATOM      9  C   UNL     1     -32.141  25.908   2.170  0.00  0.00    +0.181 C 
ATOM     10  C   UNL     1     -33.985  24.190  -0.590  0.00  0.00    +0.148 A 
ATOM     11  C   UNL     1     -35.552  23.471   0.755  0.00  0.00    +0.145 A 
ATOM     12  C   UNL     1     -34.165  25.320   5.126  0.00  0.00    +0.133 C 
ATOM     13  C   UNL     1     -35.445  23.280   3.746  0.00  0.00    +0.037 C 
ATOM     14  C   UNL     1     -31.657  25.623  -0.271  0.00  0.00    +0.040 C 
ATOM     15  C   UNL     1     -33.215  24.432  -1.726  0.00  0.00    +0.074 C 
ATOM     16  C   UNL     1     -32.031  25.156  -1.534  0.00  0.00    +0.137 C 
ATOM     17  C   UNL     1     -34.887  24.356   5.828  0.00  0.00    +0.073 C 
ATOM     18  C   UNL     1     -35.525  23.336   5.138  0.00  0.00    +0.137 C 
ENDROOT
BRANCH   3  19
ATOM     19  C   UNL     1     -34.105  27.525   2.380  0.00  0.00    -0.011 C 
ATOM     20  C   UNL     1     -35.488  27.389   2.260  0.00  0.00    -0.000 C 
ATOM     21  C   UNL     1     -33.471  28.666   1.889  0.00  0.00    -0.000 C 
ATOM     22  C   UNL     1     -36.237  28.394   1.648  0.00  0.00    +0.036 C 
ATOM     23  C   UNL     1     -34.220  29.671   1.277  0.00  0.00    +0.036 C 
ATOM     24  C   UNL     1     -35.603  29.535   1.156  0.00  0.00    +0.134 C 
BRANCH  24  25
ATOM     25  O   UNL     1     -36.333  30.516   0.559  0.00  0.00    -0.506 OA
ATOM     26  H   UNL     1     -36.906  30.306  -0.152  0.00  0.00    +0.292 HD
ENDBRANCH  24  25
ENDBRANCH   3  19
BRANCH  11  27
ATOM     27  C   UNL     1     -36.816  22.802   0.929  0.00  0.00    +0.035 C 
ATOM     28  C   UNL     1     -36.890  21.413   0.826  0.00  0.00    +0.006 C 
ATOM     29  C   UNL     1     -37.964  23.544   1.202  0.00  0.00    +0.006 C 
ATOM     30  C   UNL     1     -38.113  20.766   0.995  0.00  0.00    +0.037 C 
ATOM     31  C   UNL     1     -39.188  22.897   1.371  0.00  0.00    +0.037 C 
ATOM     32  C   UNL     1     -39.263  21.508   1.268  0.00  0.00    +0.134 C 
BRANCH  32  33
ATOM     33  O   UNL     1     -40.456  20.876   1.436  0.00  0.00    -0.506 OA
ATOM     34  H   UNL     1     -40.656  20.462   2.253  0.00  0.00    +0.292 HD
ENDBRANCH  32  33
ENDBRANCH  11  27
BRANCH  12  35
ATOM     35  O   UNL     1     -33.568  26.303   5.864  0.00  0.00    -0.506 OA
ATOM     36  H   UNL     1     -33.456  26.192   6.789  0.00  0.00    +0.292 HD
ENDBRANCH  12  35
BRANCH  16  37
ATOM     37  O   UNL     1     -31.229  25.416  -2.608  0.00  0.00    -0.505 OA
ATOM     38  H   UNL     1     -30.749  26.220  -2.650  0.00  0.00    +0.292 HD
ENDBRANCH  16  37
BRANCH  18  39
ATOM     39  O   UNL     1     -36.221  22.385   5.818  0.00  0.00    -0.505 OA
ATOM     40  H   UNL     1     -36.638  21.686   5.353  0.00  0.00    +0.292 HD
ENDBRANCH  18  39
TORSDOF 7
ENDMDL
MODEL 3
REMARK VINA RESULT:      -6.7      2.427      4.600
REMARK  Name = 57397234
REMARK  7 active torsions:
REMARK  status: ('A' for Active; 'I' for Inactive)
REMARK    1  A    between atoms: C_3  and  C_19
REMARK    2  A    between atoms: C_11  and  C_27
REMARK    3  A    between atoms: C_12  and  O_35
REMARK    4  A    between atoms: C_16  and  O_37
REMARK    5  A    between atoms: C_18  and  O_39
REMARK    6  A    between atoms: C_24  and  O_25
REMARK    7  A    between atoms: C_32  and  O_33
REMARK                            x       y       z     vdW  Elec       q    Type
REMARK                         _______ _______ _______ _____ _____    ______ ____
ROOT
ATOM      1  O   UNL     1     -33.798  23.426  -0.337  0.00  0.00    -0.453 OA
ATOM      2  O   UNL     1     -32.979  27.909   3.159  0.00  0.00    -0.291 OA
ATOM      3  C   UNL     1     -35.172  26.891   3.000  0.00  0.00    +0.109 C 
ATOM      4  C   UNL     1     -34.433  24.241   1.676  0.00  0.00    +0.037 A 
ATOM      5  C   UNL     1     -35.317  25.514   3.654  0.00  0.00    +0.023 C 
ATOM      6  C   UNL     1     -33.686  25.238   0.993  0.00  0.00    +0.040 A 
ATOM      7  C   UNL     1     -35.003  24.286   3.019  0.00  0.00    +0.006 C 
ATOM      8  C   UNL     1     -33.272  26.543   1.290  0.00  0.00    +0.041 C 
ATOM      9  C   UNL     1     -33.738  27.170   2.538  0.00  0.00    +0.181 C 
ATOM     10  C   UNL     1     -33.294  24.685  -0.218  0.00  0.00    +0.148 A 
ATOM     11  C   UNL     1     -34.485  23.166   0.809  0.00  0.00    +0.145 A 
ATOM     12  C   UNL     1     -35.850  25.481   4.960  0.00  0.00    +0.133 C 
ATOM     13  C   UNL     1     -35.222  23.081   3.715  0.00  0.00    +0.037 C 
ATOM     14  C   UNL     1     -32.452  27.233   0.390  0.00  0.00    +0.040 C 
ATOM     15  C   UNL     1     -32.498  25.342  -1.154  0.00  0.00    +0.074 C 
ATOM     16  C   UNL     1     -32.075  26.634  -0.815  0.00  0.00    +0.137 C 
ATOM     17  C   UNL     1     -36.061  24.276   5.630  0.00  0.00    +0.073 C 
ATOM     18  C   UNL     1     -35.746  23.078   5.008  0.00  0.00    +0.137 C 
ENDROOT
BRANCH   3  19
ATOM     19  C   UNL     1     -36.220  27.272   1.950  0.00  0.00    -0.011 C 
ATOM     20  C   UNL     1     -37.288  26.414   1.687  0.00  0.00    -0.000 C 
ATOM     21  C   UNL     1     -36.108  28.479   1.260  0.00  0.00    -0.000 C 
ATOM     22  C   UNL     1     -38.242  26.763   0.731  0.00  0.00    +0.036 C 
ATOM     23  C   UNL     1     -37.063  28.827   0.305  0.00  0.00    +0.036 C 
ATOM     24  C   UNL     1     -38.130  27.969   0.040  0.00  0.00    +0.134 C 
BRANCH  24  25
ATOM     25  O   UNL     1     -39.062  28.310  -0.891  0.00  0.00    -0.506 OA
ATOM     26  H   UNL     1     -39.169  27.785  -1.660  0.00  0.00    +0.292 HD
ENDBRANCH  24  25
ENDBRANCH   3  19
BRANCH  11  27
ATOM     27  C   UNL     1     -35.113  21.870   0.788  0.00  0.00    +0.035 C 
ATOM     28  C   UNL     1     -34.360  20.726   1.050  0.00  0.00    +0.006 C 
ATOM     29  C   UNL     1     -36.475  21.760   0.508  0.00  0.00    +0.006 C 
ATOM     30  C   UNL     1     -34.969  19.471   1.030  0.00  0.00    +0.037 C 
ATOM     31  C   UNL     1     -37.084  20.506   0.489  0.00  0.00    +0.037 C 
ATOM     32  C   UNL     1     -36.331  19.361   0.750  0.00  0.00    +0.134 C 
BRANCH  32  33
ATOM     33  O   UNL     1     -36.925  18.137   0.734  0.00  0.00    -0.506 OA
ATOM     34  H   UNL     1     -36.867  17.578   1.484  0.00  0.00    +0.292 HD
ENDBRANCH  32  33
ENDBRANCH  11  27
BRANCH  12  35
ATOM     35  O   UNL     1     -36.190  26.625   5.625  0.00  0.00    -0.506 OA
ATOM     36  H   UNL     1     -35.647  27.386   5.556  0.00  0.00    +0.292 HD
ENDBRANCH  12  35
BRANCH  16  37
ATOM     37  O   UNL     1     -31.285  27.325  -1.688  0.00  0.00    -0.505 OA
ATOM     38  H   UNL     1     -30.558  26.900  -2.099  0.00  0.00    +0.292 HD
ENDBRANCH  16  37
BRANCH  18  39
ATOM     39  O   UNL     1     -35.938  21.900   5.662  0.00  0.00    -0.505 OA
ATOM     40  H   UNL     1     -35.200  21.383   5.923  0.00  0.00    +0.292 HD
ENDBRANCH  18  39
TORSDOF 7
ENDMDL
MODEL 4
REMARK VINA RESULT:      -6.6      1.845      6.503
REMARK  Name = 57397234
REMARK  7 active torsions:
REMARK  status: ('A' for Active; 'I' for Inactive)
REMARK    1  A    between atoms: C_3  and  C_19
REMARK    2  A    between atoms: C_11  and  C_27
REMARK    3  A    between atoms: C_12  and  O_35
REMARK    4  A    between atoms: C_16  and  O_37
REMARK    5  A    between atoms: C_18  and  O_39
REMARK    6  A    between atoms: C_24  and  O_25
REMARK    7  A    between atoms: C_32  and  O_33
REMARK                            x       y       z     vdW  Elec       q    Type
REMARK                         _______ _______ _______ _____ _____    ______ ____
ROOT
ATOM      1  O   UNL     1     -34.026  25.956   5.522  0.00  0.00    -0.453 OA
ATOM      2  O   UNL     1     -34.622  21.975   1.426  0.00  0.00    -0.291 OA
ATOM      3  C   UNL     1     -35.051  24.304   0.913  0.00  0.00    +0.109 C 
ATOM      4  C   UNL     1     -33.700  25.633   3.307  0.00  0.00    +0.037 A 
ATOM      5  C   UNL     1     -33.817  25.208   0.833  0.00  0.00    +0.023 C 
ATOM      6  C   UNL     1     -34.417  24.523   3.832  0.00  0.00    +0.040 A 
ATOM      7  C   UNL     1     -33.217  25.847   1.947  0.00  0.00    +0.006 C 
ATOM      8  C   UNL     1     -34.926  23.332   3.299  0.00  0.00    +0.041 C 
ATOM      9  C   UNL     1     -34.840  23.108   1.846  0.00  0.00    +0.181 C 
ATOM     10  C   UNL     1     -34.566  24.751   5.192  0.00  0.00    +0.148 A 
ATOM     11  C   UNL     1     -33.507  26.482   4.379  0.00  0.00    +0.145 A 
ATOM     12  C   UNL     1     -33.285  25.450  -0.451  0.00  0.00    +0.133 C 
ATOM     13  C   UNL     1     -32.108  26.690   1.735  0.00  0.00    +0.037 C 
ATOM     14  C   UNL     1     -35.530  22.395   4.146  0.00  0.00    +0.040 C 
ATOM     15  C   UNL     1     -35.179  23.858   6.069  0.00  0.00    +0.074 C 
ATOM     16  C   UNL     1     -35.652  22.663   5.512  0.00  0.00    +0.137 C 
ATOM     17  C   UNL     1     -32.188  26.289  -0.639  0.00  0.00    +0.073 C 
ATOM     18  C   UNL     1     -31.600  26.908   0.454  0.00  0.00    +0.137 C 
ENDROOT
BRANCH   3  19
ATOM     19  C   UNL     1     -36.401  24.995   1.126  0.00  0.00    -0.011 C 
ATOM     20  C   UNL     1     -36.497  26.383   1.034  0.00  0.00    -0.000 C 
ATOM     21  C   UNL     1     -37.535  24.234   1.410  0.00  0.00    -0.000 C 
ATOM     22  C   UNL     1     -37.727  27.011   1.228  0.00  0.00    +0.036 C 
ATOM     23  C   UNL     1     -38.765  24.862   1.604  0.00  0.00    +0.036 C 
ATOM     24  C   UNL     1     -38.861  26.251   1.513  0.00  0.00    +0.134 C 
BRANCH  24  25
ATOM     25  O   UNL     1     -40.062  26.863   1.701  0.00  0.00    -0.506 OA
ATOM     26  H   UNL     1     -40.148  27.536   2.348  0.00  0.00    +0.292 HD
ENDBRANCH  24  25
ENDBRANCH   3  19
BRANCH  11  27
ATOM     27  C   UNL     1     -32.942  27.791   4.587  0.00  0.00    +0.035 C 
ATOM     28  C   UNL     1     -33.257  28.832   3.715  0.00  0.00    +0.006 C 
ATOM     29  C   UNL     1     -32.083  28.017   5.662  0.00  0.00    +0.006 C 
ATOM     30  C   UNL     1     -32.710  30.099   3.916  0.00  0.00    +0.037 C 
ATOM     31  C   UNL     1     -31.537  29.284   5.864  0.00  0.00    +0.037 C 
ATOM     32  C   UNL     1     -31.850  30.326   4.991  0.00  0.00    +0.134 C 
BRANCH  32  33
ATOM     33  O   UNL     1     -31.320  31.563   5.190  0.00  0.00    -0.506 OA
ATOM     34  H   UNL     1     -30.890  32.007   4.486  0.00  0.00    +0.292 HD
ENDBRANCH  32  33
ENDBRANCH  11  27
BRANCH  12  35
ATOM     35  O   UNL     1     -33.824  24.879  -1.570  0.00  0.00    -0.506 OA
ATOM     36  H   UNL     1     -34.021  23.962  -1.580  0.00  0.00    +0.292 HD
ENDBRANCH  12  35
BRANCH  16  37
ATOM     37  O   UNL     1     -36.254  21.744   6.323  0.00  0.00    -0.505 OA
ATOM     38  H   UNL     1     -36.803  21.081   5.953  0.00  0.00    +0.292 HD
ENDBRANCH  16  37
BRANCH  18  39
ATOM     39  O   UNL     1     -30.520  27.719   0.279  0.00  0.00    -0.505 OA
ATOM     40  H   UNL     1     -30.603  28.507  -0.220  0.00  0.00    +0.292 HD
ENDBRANCH  18  39
TORSDOF 7
ENDMDL
MODEL 5
REMARK VINA RESULT:      -6.6      2.948      6.333
REMARK  Name = 57397234
REMARK  7 active torsions:
REMARK  status: ('A' for Active; 'I' for Inactive)
REMARK    1  A    between atoms: C_3  and  C_19
REMARK    2  A    between atoms: C_11  and  C_27
REMARK    3  A    between atoms: C_12  and  O_35
REMARK    4  A    between atoms: C_16  and  O_37
REMARK    5  A    between atoms: C_18  and  O_39
REMARK    6  A    between atoms: C_24  and  O_25
REMARK    7  A    between atoms: C_32  and  O_33
REMARK                            x       y       z     vdW  Elec       q    Type
REMARK                         _______ _______ _______ _____ _____    ______ ____
ROOT
ATOM      1  O   UNL     1     -38.458  26.222   3.096  0.00  0.00    -0.453 OA
ATOM      2  O   UNL     1     -40.940  21.615   0.730  0.00  0.00    -0.291 OA
ATOM      3  C   UNL     1     -38.605  22.087   0.286  0.00  0.00    +0.109 C 
ATOM      4  C   UNL     1     -38.028  24.075   2.530  0.00  0.00    +0.037 A 
ATOM      5  C   UNL     1     -37.641  21.839   1.449  0.00  0.00    +0.023 C 
ATOM      6  C   UNL     1     -39.294  24.444   1.999  0.00  0.00    +0.040 A 
ATOM      7  C   UNL     1     -37.354  22.782   2.469  0.00  0.00    +0.006 C 
ATOM      8  C   UNL     1     -40.282  23.792   1.251  0.00  0.00    +0.041 C 
ATOM      9  C   UNL     1     -40.021  22.428   0.762  0.00  0.00    +0.181 C 
ATOM     10  C   UNL     1     -39.527  25.753   2.397  0.00  0.00    +0.148 A 
ATOM     11  C   UNL     1     -37.558  25.205   3.171  0.00  0.00    +0.145 A 
ATOM     12  C   UNL     1     -36.962  20.602   1.464  0.00  0.00    +0.133 C 
ATOM     13  C   UNL     1     -36.414  22.448   3.463  0.00  0.00    +0.037 C 
ATOM     14  C   UNL     1     -41.481  24.453   0.960  0.00  0.00    +0.040 C 
ATOM     15  C   UNL     1     -40.695  26.458   2.111  0.00  0.00    +0.074 C 
ATOM     16  C   UNL     1     -41.677  25.769   1.387  0.00  0.00    +0.137 C 
ATOM     17  C   UNL     1     -36.034  20.293   2.456  0.00  0.00    +0.073 C 
ATOM     18  C   UNL     1     -35.761  21.215   3.456  0.00  0.00    +0.137 C 
ENDROOT
BRANCH   3  19
ATOM     19  C   UNL     1     -38.115  23.010  -0.835  0.00  0.00    -0.011 C 
ATOM     20  C   UNL     1     -36.807  23.495  -0.817  0.00  0.00    -0.000 C 
ATOM     21  C   UNL     1     -38.976  23.363  -1.873  0.00  0.00    -0.000 C 
ATOM     22  C   UNL     1     -36.362  24.334  -1.837  0.00  0.00    +0.036 C 
ATOM     23  C   UNL     1     -38.530  24.203  -2.893  0.00  0.00    +0.036 C 
ATOM     24  C   UNL     1     -37.223  24.689  -2.875  0.00  0.00    +0.134 C 
BRANCH  24  25
ATOM     25  O   UNL     1     -36.788  25.507  -3.872  0.00  0.00    -0.506 OA
ATOM     26  H   UNL     1     -37.401  25.871  -4.480  0.00  0.00    +0.292 HD
ENDBRANCH  24  25
ENDBRANCH   3  19
BRANCH  11  27
ATOM     27  C   UNL     1     -36.349  25.592   3.854  0.00  0.00    +0.035 C 
ATOM     28  C   UNL     1     -36.242  25.420   5.233  0.00  0.00    +0.006 C 
ATOM     29  C   UNL     1     -35.287  26.137   3.134  0.00  0.00    +0.006 C 
ATOM     30  C   UNL     1     -35.072  25.795   5.893  0.00  0.00    +0.037 C 
ATOM     31  C   UNL     1     -34.117  26.512   3.793  0.00  0.00    +0.037 C 
ATOM     32  C   UNL     1     -34.009  26.341   5.173  0.00  0.00    +0.134 C 
BRANCH  32  33
ATOM     33  O   UNL     1     -32.866  26.703   5.817  0.00  0.00    -0.506 OA
ATOM     34  H   UNL     1     -32.546  26.187   6.530  0.00  0.00    +0.292 HD
ENDBRANCH  32  33
ENDBRANCH  11  27
BRANCH  12  35
ATOM     35  O   UNL     1     -37.178  19.655   0.503  0.00  0.00    -0.506 OA
ATOM     36  H   UNL     1     -36.757  19.728  -0.331  0.00  0.00    +0.292 HD
ENDBRANCH  12  35
BRANCH  16  37
ATOM     37  O   UNL     1     -42.847  26.404   1.084  0.00  0.00    -0.505 OA
ATOM     38  H   UNL     1     -43.666  26.008   1.308  0.00  0.00    +0.292 HD
ENDBRANCH  16  37
BRANCH  18  39
ATOM     39  O   UNL     1     -34.864  20.914   4.434  0.00  0.00    -0.505 OA
ATOM     40  H   UNL     1     -34.469  20.064   4.463  0.00  0.00    +0.292 HD
ENDBRANCH  18  39
TORSDOF 7
ENDMDL
MODEL 6
REMARK VINA RESULT:      -6.6      2.613      6.304
REMARK  Name = 57397234
REMARK  7 active torsions:
REMARK  status: ('A' for Active; 'I' for Inactive)
REMARK    1  A    between atoms: C_3  and  C_19
REMARK    2  A    between atoms: C_11  and  C_27
REMARK    3  A    between atoms: C_12  and  O_35
REMARK    4  A    between atoms: C_16  and  O_37
REMARK    5  A    between atoms: C_18  and  O_39
REMARK    6  A    between atoms: C_24  and  O_25
REMARK    7  A    between atoms: C_32  and  O_33
REMARK                            x       y       z     vdW  Elec       q    Type
REMARK                         _______ _______ _______ _____ _____    ______ ____
ROOT
ATOM      1  O   UNL     1     -32.954  25.509   1.398  0.00  0.00    -0.453 OA
ATOM      2  O   UNL     1     -36.098  22.705   5.301  0.00  0.00    -0.291 OA
ATOM      3  C   UNL     1     -36.902  22.903   3.024  0.00  0.00    +0.109 C 
ATOM      4  C   UNL     1     -34.318  23.718   1.617  0.00  0.00    +0.037 A 
ATOM      5  C   UNL     1     -36.168  22.056   1.981  0.00  0.00    +0.023 C 
ATOM      6  C   UNL     1     -34.363  24.478   2.817  0.00  0.00    +0.040 A 
ATOM      7  C   UNL     1     -34.986  22.458   1.308  0.00  0.00    +0.006 C 
ATOM      8  C   UNL     1     -35.028  24.353   4.044  0.00  0.00    +0.041 C 
ATOM      9  C   UNL     1     -36.009  23.268   4.214  0.00  0.00    +0.181 C 
ATOM     10  C   UNL     1     -33.492  25.545   2.647  0.00  0.00    +0.148 A 
ATOM     11  C   UNL     1     -33.458  24.405   0.782  0.00  0.00    +0.145 A 
ATOM     12  C   UNL     1     -36.749  20.816   1.641  0.00  0.00    +0.133 C 
ATOM     13  C   UNL     1     -34.429  21.603   0.336  0.00  0.00    +0.037 C 
ATOM     14  C   UNL     1     -34.771  25.272   5.068  0.00  0.00    +0.040 C 
ATOM     15  C   UNL     1     -33.223  26.495   3.630  0.00  0.00    +0.074 C 
ATOM     16  C   UNL     1     -33.880  26.327   4.856  0.00  0.00    +0.137 C 
ATOM     17  C   UNL     1     -36.182  19.987   0.675  0.00  0.00    +0.073 C 
ATOM     18  C   UNL     1     -35.023  20.380   0.023  0.00  0.00    +0.137 C 
ENDROOT
BRANCH   3  19
ATOM     19  C   UNL     1     -37.715  24.092   2.502  0.00  0.00    -0.011 C 
ATOM     20  C   UNL     1     -38.414  24.904   3.395  0.00  0.00    -0.000 C 
ATOM     21  C   UNL     1     -37.753  24.363   1.134  0.00  0.00    -0.000 C 
ATOM     22  C   UNL     1     -39.152  25.987   2.919  0.00  0.00    +0.036 C 
ATOM     23  C   UNL     1     -38.493  25.446   0.659  0.00  0.00    +0.036 C 
ATOM     24  C   UNL     1     -39.193  26.258   1.551  0.00  0.00    +0.134 C 
BRANCH  24  25
ATOM     25  O   UNL     1     -39.914  27.315   1.087  0.00  0.00    -0.506 OA
ATOM     26  H   UNL     1     -40.778  27.181   0.753  0.00  0.00    +0.292 HD
ENDBRANCH  24  25
ENDBRANCH   3  19
BRANCH  11  27
ATOM     27  C   UNL     1     -32.998  24.279  -0.578  0.00  0.00    +0.035 C 
ATOM     28  C   UNL     1     -31.729  23.763  -0.839  0.00  0.00    +0.006 C 
ATOM     29  C   UNL     1     -33.823  24.671  -1.631  0.00  0.00    +0.006 C 
ATOM     30  C   UNL     1     -31.284  23.641  -2.155  0.00  0.00    +0.037 C 
ATOM     31  C   UNL     1     -33.379  24.549  -2.947  0.00  0.00    +0.037 C 
ATOM     32  C   UNL     1     -32.109  24.033  -3.210  0.00  0.00    +0.134 C 
BRANCH  32  33
ATOM     33  O   UNL     1     -31.676  23.910  -4.494  0.00  0.00    -0.506 OA
ATOM     34  H   UNL     1     -32.292  23.759  -5.183  0.00  0.00    +0.292 HD
ENDBRANCH  32  33
ENDBRANCH  11  27
BRANCH  12  35
ATOM     35  O   UNL     1     -37.896  20.375   2.239  0.00  0.00    -0.506 OA
ATOM     36  H   UNL     1     -37.903  20.185   3.157  0.00  0.00    +0.292 HD
ENDBRANCH  12  35
BRANCH  16  37
ATOM     37  O   UNL     1     -33.650  27.221   5.862  0.00  0.00    -0.505 OA
ATOM     38  H   UNL     1     -33.186  28.015   5.686  0.00  0.00    +0.292 HD
ENDBRANCH  16  37
BRANCH  18  39
ATOM     39  O   UNL     1     -34.458  19.569  -0.913  0.00  0.00    -0.505 OA
ATOM     40  H   UNL     1     -34.836  18.731  -1.095  0.00  0.00    +0.292 HD
ENDBRANCH  18  39
TORSDOF 7
ENDMDL
MODEL 7
REMARK VINA RESULT:      -6.6      2.610      6.321
REMARK  Name = 57397234
REMARK  7 active torsions:
REMARK  status: ('A' for Active; 'I' for Inactive)
REMARK    1  A    between atoms: C_3  and  C_19
REMARK    2  A    between atoms: C_11  and  C_27
REMARK    3  A    between atoms: C_12  and  O_35
REMARK    4  A    between atoms: C_16  and  O_37
REMARK    5  A    between atoms: C_18  and  O_39
REMARK    6  A    between atoms: C_24  and  O_25
REMARK    7  A    between atoms: C_32  and  O_33
REMARK                            x       y       z     vdW  Elec       q    Type
REMARK                         _______ _______ _______ _____ _____    ______ ____
ROOT
ATOM      1  O   UNL     1     -32.945  25.518   1.390  0.00  0.00    -0.453 OA
ATOM      2  O   UNL     1     -36.076  22.717   5.306  0.00  0.00    -0.291 OA
ATOM      3  C   UNL     1     -36.885  22.907   3.029  0.00  0.00    +0.109 C 
ATOM      4  C   UNL     1     -34.305  23.724   1.616  0.00  0.00    +0.037 A 
ATOM      5  C   UNL     1     -36.150  22.060   1.987  0.00  0.00    +0.023 C 
ATOM      6  C   UNL     1     -34.350  24.488   2.814  0.00  0.00    +0.040 A 
ATOM      7  C   UNL     1     -34.971  22.462   1.312  0.00  0.00    +0.006 C 
ATOM      8  C   UNL     1     -35.013  24.364   4.042  0.00  0.00    +0.041 C 
ATOM      9  C   UNL     1     -35.991  23.278   4.217  0.00  0.00    +0.181 C 
ATOM     10  C   UNL     1     -33.481  25.556   2.641  0.00  0.00    +0.148 A 
ATOM     11  C   UNL     1     -33.448  24.412   0.778  0.00  0.00    +0.145 A 
ATOM     12  C   UNL     1     -36.729  20.817   1.652  0.00  0.00    +0.133 C 
ATOM     13  C   UNL     1     -34.413  21.606   0.341  0.00  0.00    +0.037 C 
ATOM     14  C   UNL     1     -34.757  25.286   5.064  0.00  0.00    +0.040 C 
ATOM     15  C   UNL     1     -33.213  26.509   3.621  0.00  0.00    +0.074 C 
ATOM     16  C   UNL     1     -33.868  26.343   4.848  0.00  0.00    +0.137 C 
ATOM     17  C   UNL     1     -36.162  19.986   0.687  0.00  0.00    +0.073 C 
ATOM     18  C   UNL     1     -35.005  20.381   0.033  0.00  0.00    +0.137 C 
ENDROOT
BRANCH   3  19
ATOM     19  C   UNL     1     -37.701  24.093   2.506  0.00  0.00    -0.011 C 
ATOM     20  C   UNL     1     -37.763  24.346   1.136  0.00  0.00    -0.000 C 
ATOM     21  C   UNL     1     -38.383  24.918   3.400  0.00  0.00    -0.000 C 
ATOM     22  C   UNL     1     -38.507  25.425   0.660  0.00  0.00    +0.036 C 
ATOM     23  C   UNL     1     -39.126  25.998   2.923  0.00  0.00    +0.036 C 
ATOM     24  C   UNL     1     -39.188  26.252   1.554  0.00  0.00    +0.134 C 
BRANCH  24  25
ATOM     25  O   UNL     1     -39.915  27.305   1.089  0.00  0.00    -0.506 OA
ATOM     26  H   UNL     1     -40.842  27.329   1.223  0.00  0.00    +0.292 HD
ENDBRANCH  24  25
ENDBRANCH   3  19
BRANCH  11  27
ATOM     27  C   UNL     1     -32.990  24.283  -0.582  0.00  0.00    +0.035 C 
ATOM     28  C   UNL     1     -33.816  24.672  -1.636  0.00  0.00    +0.006 C 
ATOM     29  C   UNL     1     -31.719  23.772  -0.844  0.00  0.00    +0.006 C 
ATOM     30  C   UNL     1     -33.373  24.547  -2.952  0.00  0.00    +0.037 C 
ATOM     31  C   UNL     1     -31.275  23.647  -2.159  0.00  0.00    +0.037 C 
ATOM     32  C   UNL     1     -32.101  24.036  -3.214  0.00  0.00    +0.134 C 
BRANCH  32  33
ATOM     33  O   UNL     1     -31.667  23.918  -4.498  0.00  0.00    -0.506 OA
ATOM     34  H   UNL     1     -30.968  24.459  -4.808  0.00  0.00    +0.292 HD
ENDBRANCH  32  33
ENDBRANCH  11  27
BRANCH  12  35
ATOM     35  O   UNL     1     -37.874  20.375   2.252  0.00  0.00    -0.506 OA
ATOM     36  H   UNL     1     -38.511  20.991   2.560  0.00  0.00    +0.292 HD
ENDBRANCH  12  35
BRANCH  16  37
ATOM     37  O   UNL     1     -33.638  27.240   5.851  0.00  0.00    -0.505 OA
ATOM     38  H   UNL     1     -33.222  26.961   6.643  0.00  0.00    +0.292 HD
ENDBRANCH  16  37
BRANCH  18  39
ATOM     39  O   UNL     1     -34.440  19.568  -0.902  0.00  0.00    -0.505 OA
ATOM     40  H   UNL     1     -33.736  19.885  -1.434  0.00  0.00    +0.292 HD
ENDBRANCH  18  39
TORSDOF 7
ENDMDL
MODEL 8
REMARK VINA RESULT:      -6.5      5.017      7.364
REMARK  Name = 57397234
REMARK  7 active torsions:
REMARK  status: ('A' for Active; 'I' for Inactive)
REMARK    1  A    between atoms: C_3  and  C_19
REMARK    2  A    between atoms: C_11  and  C_27
REMARK    3  A    between atoms: C_12  and  O_35
REMARK    4  A    between atoms: C_16  and  O_37
REMARK    5  A    between atoms: C_18  and  O_39
REMARK    6  A    between atoms: C_24  and  O_25
REMARK    7  A    between atoms: C_32  and  O_33
REMARK                            x       y       z     vdW  Elec       q    Type
REMARK                         _______ _______ _______ _____ _____    ______ ____
ROOT
ATOM      1  O   UNL     1     -34.905  21.799   2.205  0.00  0.00    -0.453 OA
ATOM      2  O   UNL     1     -40.556  21.110   1.442  0.00  0.00    -0.291 OA
ATOM      3  C   UNL     1     -39.045  20.830  -0.432  0.00  0.00    +0.109 C 
ATOM      4  C   UNL     1     -36.397  20.541   1.059  0.00  0.00    +0.037 A 
ATOM      5  C   UNL     1     -38.184  19.564  -0.412  0.00  0.00    +0.023 C 
ATOM      6  C   UNL     1     -37.090  21.603   1.701  0.00  0.00    +0.040 A 
ATOM      7  C   UNL     1     -36.939  19.450   0.256  0.00  0.00    +0.006 C 
ATOM      8  C   UNL     1     -38.429  22.007   1.779  0.00  0.00    +0.041 C 
ATOM      9  C   UNL     1     -39.435  21.294   0.975  0.00  0.00    +0.181 C 
ATOM     10  C   UNL     1     -36.143  22.326   2.412  0.00  0.00    +0.148 A 
ATOM     11  C   UNL     1     -35.067  20.723   1.387  0.00  0.00    +0.145 A 
ATOM     12  C   UNL     1     -38.654  18.462  -1.157  0.00  0.00    +0.133 C 
ATOM     13  C   UNL     1     -36.222  18.241   0.164  0.00  0.00    +0.037 C 
ATOM     14  C   UNL     1     -38.780  23.091   2.593  0.00  0.00    +0.040 C 
ATOM     15  C   UNL     1     -36.443  23.424   3.216  0.00  0.00    +0.074 C 
ATOM     16  C   UNL     1     -37.794  23.786   3.298  0.00  0.00    +0.137 C 
ATOM     17  C   UNL     1     -37.927  17.275  -1.237  0.00  0.00    +0.073 C 
ATOM     18  C   UNL     1     -36.713  17.165  -0.577  0.00  0.00    +0.137 C 
ENDROOT
BRANCH   3  19
ATOM     19  C   UNL     1     -38.565  21.979  -1.326  0.00  0.00    -0.011 C 
ATOM     20  C   UNL     1     -37.436  21.813  -2.128  0.00  0.00    -0.000 C 
ATOM     21  C   UNL     1     -39.260  23.188  -1.338  0.00  0.00    -0.000 C 
ATOM     22  C   UNL     1     -37.001  22.859  -2.942  0.00  0.00    +0.036 C 
ATOM     23  C   UNL     1     -38.824  24.233  -2.152  0.00  0.00    +0.036 C 
ATOM     24  C   UNL     1     -37.694  24.069  -2.954  0.00  0.00    +0.134 C 
BRANCH  24  25
ATOM     25  O   UNL     1     -37.270  25.089  -3.749  0.00  0.00    -0.506 OA
ATOM     26  H   UNL     1     -37.881  25.730  -4.053  0.00  0.00    +0.292 HD
ENDBRANCH  24  25
ENDBRANCH   3  19
BRANCH  11  27
ATOM     27  C   UNL     1     -33.813  20.099   1.050  0.00  0.00    +0.035 C 
ATOM     28  C   UNL     1     -32.939  20.724   0.161  0.00  0.00    +0.006 C 
ATOM     29  C   UNL     1     -33.472  18.870   1.614  0.00  0.00    +0.006 C 
ATOM     30  C   UNL     1     -31.725  20.120  -0.165  0.00  0.00    +0.037 C 
ATOM     31  C   UNL     1     -32.259  18.265   1.289  0.00  0.00    +0.037 C 
ATOM     32  C   UNL     1     -31.384  18.890   0.400  0.00  0.00    +0.134 C 
BRANCH  32  33
ATOM     33  O   UNL     1     -30.198  18.303   0.085  0.00  0.00    -0.506 OA
ATOM     34  H   UNL     1     -30.179  17.568  -0.496  0.00  0.00    +0.292 HD
ENDBRANCH  32  33
ENDBRANCH  11  27
BRANCH  12  35
ATOM     35  O   UNL     1     -39.837  18.508  -1.838  0.00  0.00    -0.506 OA
ATOM     36  H   UNL     1     -39.974  17.950  -2.579  0.00  0.00    +0.292 HD
ENDBRANCH  12  35
BRANCH  16  37
ATOM     37  O   UNL     1     -38.152  24.848   4.077  0.00  0.00    -0.505 OA
ATOM     38  H   UNL     1     -37.493  25.348   4.518  0.00  0.00    +0.292 HD
ENDBRANCH  16  37
BRANCH  18  39
ATOM     39  O   UNL     1     -36.004  16.004  -0.642  0.00  0.00    -0.505 OA
ATOM     40  H   UNL     1     -35.559  15.770  -1.432  0.00  0.00    +0.292 HD
ENDBRANCH  18  39
TORSDOF 7
ENDMDL
MODEL 9
REMARK VINA RESULT:      -6.4      2.074      6.381
REMARK  Name = 57397234
REMARK  7 active torsions:
REMARK  status: ('A' for Active; 'I' for Inactive)
REMARK    1  A    between atoms: C_3  and  C_19
REMARK    2  A    between atoms: C_11  and  C_27
REMARK    3  A    between atoms: C_12  and  O_35
REMARK    4  A    between atoms: C_16  and  O_37
REMARK    5  A    between atoms: C_18  and  O_39
REMARK    6  A    between atoms: C_24  and  O_25
REMARK    7  A    between atoms: C_32  and  O_33
REMARK                            x       y       z     vdW  Elec       q    Type
REMARK                         _______ _______ _______ _____ _____    ______ ____
ROOT
ATOM      1  O   UNL     1     -36.711  28.215   0.847  0.00  0.00    -0.453 OA
ATOM      2  O   UNL     1     -39.723  23.971   3.276  0.00  0.00    -0.291 OA
ATOM      3  C   UNL     1     -37.343  23.701   2.907  0.00  0.00    +0.109 C 
ATOM      4  C   UNL     1     -36.546  26.609   2.431  0.00  0.00    +0.037 A 
ATOM      5  C   UNL     1     -36.429  24.520   3.822  0.00  0.00    +0.023 C 
ATOM      6  C   UNL     1     -37.751  26.413   1.703  0.00  0.00    +0.040 A 
ATOM      7  C   UNL     1     -36.037  25.860   3.576  0.00  0.00    +0.006 C 
ATOM      8  C   UNL     1     -38.805  25.493   1.764  0.00  0.00    +0.041 C 
ATOM      9  C   UNL     1     -38.710  24.362   2.703  0.00  0.00    +0.181 C 
ATOM     10  C   UNL     1     -37.823  27.435   0.767  0.00  0.00    +0.148 A 
ATOM     11  C   UNL     1     -35.945  27.710   1.852  0.00  0.00    +0.145 A 
ATOM     12  C   UNL     1     -35.909  23.863   4.958  0.00  0.00    +0.133 C 
ATOM     13  C   UNL     1     -35.156  26.491   4.475  0.00  0.00    +0.037 C 
ATOM     14  C   UNL     1     -39.910  25.647   0.918  0.00  0.00    +0.040 C 
ATOM     15  C   UNL     1     -38.891  27.614  -0.110  0.00  0.00    +0.074 C 
ATOM     16  C   UNL     1     -39.944  26.695  -0.005  0.00  0.00    +0.137 C 
ATOM     17  C   UNL     1     -35.036  24.506   5.835  0.00  0.00    +0.073 C 
ATOM     18  C   UNL     1     -34.661  25.819   5.593  0.00  0.00    +0.137 C 
ENDROOT
BRANCH   3  19
ATOM     19  C   UNL     1     -36.731  23.183   1.602  0.00  0.00    -0.011 C 
ATOM     20  C   UNL     1     -37.549  22.616   0.625  0.00  0.00    -0.000 C 
ATOM     21  C   UNL     1     -35.356  23.281   1.390  0.00  0.00    -0.000 C 
ATOM     22  C   UNL     1     -36.991  22.146  -0.564  0.00  0.00    +0.036 C 
ATOM     23  C   UNL     1     -34.799  22.810   0.201  0.00  0.00    +0.036 C 
ATOM     24  C   UNL     1     -35.616  22.242  -0.775  0.00  0.00    +0.134 C 
BRANCH  24  25
ATOM     25  O   UNL     1     -35.072  21.784  -1.936  0.00  0.00    -0.506 OA
ATOM     26  H   UNL     1     -35.093  20.868  -2.133  0.00  0.00    +0.292 HD
ENDBRANCH  24  25
ENDBRANCH   3  19
BRANCH  11  27
ATOM     27  C   UNL     1     -34.705  28.427   2.007  0.00  0.00    +0.035 C 
ATOM     28  C   UNL     1     -33.523  27.893   1.495  0.00  0.00    +0.006 C 
ATOM     29  C   UNL     1     -34.687  29.654   2.668  0.00  0.00    +0.006 C 
ATOM     30  C   UNL     1     -32.322  28.587   1.645  0.00  0.00    +0.037 C 
ATOM     31  C   UNL     1     -33.487  30.349   2.818  0.00  0.00    +0.037 C 
ATOM     32  C   UNL     1     -32.304  29.815   2.306  0.00  0.00    +0.134 C 
BRANCH  32  33
ATOM     33  O   UNL     1     -31.133  30.494   2.449  0.00  0.00    -0.506 OA
ATOM     34  H   UNL     1     -30.947  30.941   3.251  0.00  0.00    +0.292 HD
ENDBRANCH  32  33
ENDBRANCH  11  27
BRANCH  12  35
ATOM     35  O   UNL     1     -36.232  22.568   5.248  0.00  0.00    -0.506 OA
ATOM     36  H   UNL     1     -35.668  21.871   4.973  0.00  0.00    +0.292 HD
ENDBRANCH  12  35
BRANCH  16  37
ATOM     37  O   UNL     1     -41.023  26.824  -0.832  0.00  0.00    -0.505 OA
ATOM     38  H   UNL     1     -41.153  27.618  -1.311  0.00  0.00    +0.292 HD
ENDBRANCH  16  37
BRANCH  18  39
ATOM     39  O   UNL     1     -33.818  26.456   6.452  0.00  0.00    -0.505 OA
ATOM     40  H   UNL     1     -33.755  27.391   6.440  0.00  0.00    +0.292 HD
ENDBRANCH  18  39
TORSDOF 7
ENDMDL
