MODEL 1
REMARK VINA RESULT:      -6.1      0.000      0.000
REMARK  Name = 5529
REMARK  9 active torsions:
REMARK  status: ('A' for Active; 'I' for Inactive)
REMARK    1  A    between atoms: N_1  and  C1*_12
REMARK    2  A    between atoms: C2*_11  and  O2*_15
REMARK    3  A    between atoms: C3*_13  and  O3*_17
REMARK    4  A    between atoms: C4*_14  and  C5*_19
REMARK    5  A    between atoms: C5*_19  and  O5*_20
REMARK    6  A    between atoms: N_22  and  C_24
REMARK    7  A    between atoms: C_24  and  C_25
REMARK    8  A    between atoms: C_26  and  C_28
REMARK    9  A    between atoms: C_28  and  O_29
REMARK                            x       y       z     vdW  Elec       q    Type
REMARK                         _______ _______ _______ _____ _____    ______ ____
ROOT
ATOM      1  N   UNL     1     -32.609  28.589   3.372  0.00  0.00    -0.247 N 
ATOM      2  N   UNL     1     -34.225  27.604   2.195  0.00  0.00    -0.242 NA
ATOM      3  N   UNL     1     -32.825  27.380   5.468  0.00  0.00    -0.228 NA
ATOM      4  N   UNL     1     -34.612  25.722   5.355  0.00  0.00    -0.228 NA
ATOM      5  C   UNL     1     -33.167  27.658   4.201  0.00  0.00    +0.152 C 
ATOM      6  C   UNL     1     -33.279  28.519   2.179  0.00  0.00    +0.223 C 
ATOM      7  C   UNL     1     -34.166  27.058   3.451  0.00  0.00    +0.140 C 
ATOM      8  C   UNL     1     -34.903  26.054   4.074  0.00  0.00    +0.146 C 
ATOM      9  C   UNL     1     -33.606  26.396   5.963  0.00  0.00    +0.253 C 
ATOM     10  N   UNL     1     -35.935  25.391   3.389  0.00  0.00    -0.313 N 
ATOM     11  H   UNL     1     -36.124  25.653   2.458  0.00  0.00    +0.149 HD
ENDROOT
BRANCH   1  14
ATOM     12  O4* UNL     1     -30.496  28.786   4.430  0.00  0.00    -0.333 OA
ATOM     13  C2* UNL     1     -31.928  30.711   4.519  0.00  0.00    +0.187 C 
ATOM     14  C1* UNL     1     -31.503  29.496   3.688  0.00  0.00    +0.225 C 
ATOM     15  C3* UNL     1     -31.292  30.472   5.875  0.00  0.00    +0.171 C 
ATOM     16  C4* UNL     1     -30.082  29.614   5.529  0.00  0.00    +0.175 C 
BRANCH  13  17
ATOM     17  O2* UNL     1     -31.395  31.895   3.932  0.00  0.00    -0.378 OA
ATOM     18  H2* UNL     1     -30.712  32.266   4.514  0.00  0.00    +0.211 HD
ENDBRANCH  13  17
BRANCH  15  19
ATOM     19  O3* UNL     1     -32.196  29.750   6.704  0.00  0.00    -0.379 OA
ATOM     20  H3* UNL     1     -32.394  28.894   6.294  0.00  0.00    +0.211 HD
ENDBRANCH  15  19
BRANCH  16  21
ATOM     21  C5* UNL     1     -29.562  28.735   6.651  0.00  0.00    +0.169 C 
BRANCH  21  22
ATOM     22  O5* UNL     1     -30.299  27.524   6.665  0.00  0.00    -0.379 OA
ATOM     23  H5* UNL     1     -29.724  26.792   6.392  0.00  0.00    +0.211 HD
ENDBRANCH  21  22
ENDBRANCH  16  21
ENDBRANCH   1  14
BRANCH  10  24
ATOM     24  C   UNL     1     -36.724  24.352   3.979  0.00  0.00    +0.115 C 
BRANCH  24  25
ATOM     25  C   UNL     1     -36.400  23.051   3.312  0.00  0.00    -0.011 C 
ATOM     26  C   UNL     1     -35.733  22.003   3.832  0.00  0.00    -0.018 C 
ATOM     27  C   UNL     1     -35.177  21.954   5.228  0.00  0.00    +0.029 C 
BRANCH  26  28
ATOM     28  C   UNL     1     -35.467  20.780   2.991  0.00  0.00    +0.159 C 
BRANCH  28  29
ATOM     29  O   UNL     1     -36.657  20.009   2.886  0.00  0.00    -0.378 OA
ATOM     30  H   UNL     1     -36.426  19.072   2.782  0.00  0.00    +0.211 HD
ENDBRANCH  28  29
ENDBRANCH  26  28
ENDBRANCH  24  25
ENDBRANCH  10  24
TORSDOF 9
ENDMDL
MODEL 2
REMARK VINA RESULT:      -6.0      2.583      7.293
REMARK  Name = 5529
REMARK  9 active torsions:
REMARK  status: ('A' for Active; 'I' for Inactive)
REMARK    1  A    between atoms: N_1  and  C1*_12
REMARK    2  A    between atoms: C2*_11  and  O2*_15
REMARK    3  A    between atoms: C3*_13  and  O3*_17
REMARK    4  A    between atoms: C4*_14  and  C5*_19
REMARK    5  A    between atoms: C5*_19  and  O5*_20
REMARK    6  A    between atoms: N_22  and  C_24
REMARK    7  A    between atoms: C_24  and  C_25
REMARK    8  A    between atoms: C_26  and  C_28
REMARK    9  A    between atoms: C_28  and  O_29
REMARK                            x       y       z     vdW  Elec       q    Type
REMARK                         _______ _______ _______ _____ _____    ______ ____
ROOT
ATOM      1  N   UNL     1     -34.861  26.090   4.404  0.00  0.00    -0.247 N 
ATOM      2  N   UNL     1     -33.690  27.222   2.882  0.00  0.00    -0.242 NA
ATOM      3  N   UNL     1     -33.580  26.626   6.397  0.00  0.00    -0.228 NA
ATOM      4  N   UNL     1     -31.691  28.080   5.873  0.00  0.00    -0.228 NA
ATOM      5  C   UNL     1     -33.839  26.692   5.083  0.00  0.00    +0.152 C 
ATOM      6  C   UNL     1     -34.728  26.438   3.086  0.00  0.00    +0.223 C 
ATOM      7  C   UNL     1     -33.127  27.389   4.121  0.00  0.00    +0.140 C 
ATOM      8  C   UNL     1     -32.015  28.103   4.557  0.00  0.00    +0.146 C 
ATOM      9  C   UNL     1     -32.483  27.354   6.699  0.00  0.00    +0.253 C 
ATOM     10  N   UNL     1     -31.233  28.840   3.650  0.00  0.00    -0.313 N 
ATOM     11  H   UNL     1     -31.491  28.838   2.700  0.00  0.00    +0.149 HD
ENDROOT
BRANCH   1  14
ATOM     12  O4* UNL     1     -35.310  24.263   5.847  0.00  0.00    -0.333 OA
ATOM     13  C2* UNL     1     -36.711  24.474   3.909  0.00  0.00    +0.187 C 
ATOM     14  C1* UNL     1     -35.906  25.233   4.968  0.00  0.00    +0.225 C 
ATOM     15  C3* UNL     1     -36.298  23.026   4.097  0.00  0.00    +0.171 C 
ATOM     16  C4* UNL     1     -35.899  22.983   5.568  0.00  0.00    +0.175 C 
BRANCH  13  17
ATOM     17  O2* UNL     1     -38.103  24.622   4.175  0.00  0.00    -0.378 OA
ATOM     18  H2* UNL     1     -38.226  25.212   4.936  0.00  0.00    +0.211 HD
ENDBRANCH  13  17
BRANCH  15  19
ATOM     19  O3* UNL     1     -35.178  22.739   3.268  0.00  0.00    -0.379 OA
ATOM     20  H3* UNL     1     -35.475  22.631   2.352  0.00  0.00    +0.211 HD
ENDBRANCH  15  19
BRANCH  16  21
ATOM     21  C5* UNL     1     -34.922  21.886   5.948  0.00  0.00    +0.169 C 
BRANCH  21  22
ATOM     22  O5* UNL     1     -35.512  20.627   5.664  0.00  0.00    -0.379 OA
ATOM     23  H5* UNL     1     -35.687  20.560   4.713  0.00  0.00    +0.211 HD
ENDBRANCH  21  22
ENDBRANCH  16  21
ENDBRANCH   1  14
BRANCH  10  24
ATOM     24  C   UNL     1     -30.079  29.591   4.043  0.00  0.00    +0.115 C 
BRANCH  24  25
ATOM     25  C   UNL     1     -28.924  28.656   4.225  0.00  0.00    -0.011 C 
ATOM     26  C   UNL     1     -28.172  28.481   5.328  0.00  0.00    -0.018 C 
ATOM     27  C   UNL     1     -28.369  29.224   6.621  0.00  0.00    +0.029 C 
BRANCH  26  28
ATOM     28  C   UNL     1     -27.018  27.511   5.315  0.00  0.00    +0.159 C 
BRANCH  28  29
ATOM     29  O   UNL     1     -27.494  26.211   4.991  0.00  0.00    -0.378 OA
ATOM     30  H   UNL     1     -28.144  26.274   4.274  0.00  0.00    +0.211 HD
ENDBRANCH  28  29
ENDBRANCH  26  28
ENDBRANCH  24  25
ENDBRANCH  10  24
TORSDOF 9
ENDMDL
MODEL 3
REMARK VINA RESULT:      -5.9      4.962      7.452
REMARK  Name = 5529
REMARK  9 active torsions:
REMARK  status: ('A' for Active; 'I' for Inactive)
REMARK    1  A    between atoms: N_1  and  C1*_12
REMARK    2  A    between atoms: C2*_11  and  O2*_15
REMARK    3  A    between atoms: C3*_13  and  O3*_17
REMARK    4  A    between atoms: C4*_14  and  C5*_19
REMARK    5  A    between atoms: C5*_19  and  O5*_20
REMARK    6  A    between atoms: N_22  and  C_24
REMARK    7  A    between atoms: C_24  and  C_25
REMARK    8  A    between atoms: C_26  and  C_28
REMARK    9  A    between atoms: C_28  and  O_29
REMARK                            x       y       z     vdW  Elec       q    Type
REMARK                         _______ _______ _______ _____ _____    ______ ____
ROOT
ATOM      1  N   UNL     1     -36.383  23.167   4.011  0.00  0.00    -0.247 N 
ATOM      2  N   UNL     1     -35.168  21.319   4.294  0.00  0.00    -0.242 NA
ATOM      3  N   UNL     1     -36.755  23.056   1.613  0.00  0.00    -0.228 NA
ATOM      4  N   UNL     1     -35.695  21.085   0.641  0.00  0.00    -0.228 NA
ATOM      5  C   UNL     1     -36.257  22.603   2.773  0.00  0.00    +0.152 C 
ATOM      6  C   UNL     1     -35.711  22.359   4.890  0.00  0.00    +0.223 C 
ATOM      7  C   UNL     1     -35.501  21.459   2.971  0.00  0.00    +0.140 C 
ATOM      8  C   UNL     1     -35.223  20.686   1.847  0.00  0.00    +0.146 C 
ATOM      9  C   UNL     1     -36.421  22.228   0.600  0.00  0.00    +0.253 C 
ATOM     10  N   UNL     1     -34.464  19.509   1.955  0.00  0.00    -0.313 N 
ATOM     11  H   UNL     1     -34.134  19.243   2.844  0.00  0.00    +0.149 HD
ENDROOT
BRANCH   1  14
ATOM     12  O4* UNL     1     -38.310  24.478   3.575  0.00  0.00    -0.333 OA
ATOM     13  C2* UNL     1     -36.286  25.670   4.072  0.00  0.00    +0.187 C 
ATOM     14  C1* UNL     1     -37.098  24.400   4.346  0.00  0.00    +0.225 C 
ATOM     15  C3* UNL     1     -36.997  26.318   2.900  0.00  0.00    +0.171 C 
ATOM     16  C4* UNL     1     -38.426  25.812   3.056  0.00  0.00    +0.175 C 
BRANCH  13  17
ATOM     17  O2* UNL     1     -36.346  26.524   5.211  0.00  0.00    -0.378 OA
ATOM     18  H2* UNL     1     -36.719  26.037   5.963  0.00  0.00    +0.211 HD
ENDBRANCH  13  17
BRANCH  15  19
ATOM     19  O3* UNL     1     -36.432  25.848   1.682  0.00  0.00    -0.379 OA
ATOM     20  H3* UNL     1     -36.507  26.538   1.004  0.00  0.00    +0.211 HD
ENDBRANCH  15  19
BRANCH  16  21
ATOM     21  C5* UNL     1     -39.253  25.786   1.784  0.00  0.00    +0.169 C 
BRANCH  21  22
ATOM     22  O5* UNL     1     -39.126  24.509   1.180  0.00  0.00    -0.379 OA
ATOM     23  H5* UNL     1     -39.178  23.822   1.863  0.00  0.00    +0.211 HD
ENDBRANCH  21  22
ENDBRANCH  16  21
ENDBRANCH   1  14
BRANCH  10  24
ATOM     24  C   UNL     1     -34.148  18.677   0.833  0.00  0.00    +0.115 C 
BRANCH  24  25
ATOM     25  C   UNL     1     -32.779  18.098   1.023  0.00  0.00    -0.011 C 
ATOM     26  C   UNL     1     -31.599  18.646   0.676  0.00  0.00    -0.018 C 
ATOM     27  C   UNL     1     -31.443  19.987   0.012  0.00  0.00    +0.029 C 
BRANCH  26  28
ATOM     28  C   UNL     1     -30.314  17.895   0.915  0.00  0.00    +0.159 C 
BRANCH  28  29
ATOM     29  O   UNL     1     -30.530  16.505   0.710  0.00  0.00    -0.378 OA
ATOM     30  H   UNL     1     -30.921  16.117   1.509  0.00  0.00    +0.211 HD
ENDBRANCH  28  29
ENDBRANCH  26  28
ENDBRANCH  24  25
ENDBRANCH  10  24
TORSDOF 9
ENDMDL
MODEL 4
REMARK VINA RESULT:      -5.8      2.591      7.830
REMARK  Name = 5529
REMARK  9 active torsions:
REMARK  status: ('A' for Active; 'I' for Inactive)
REMARK    1  A    between atoms: N_1  and  C1*_12
REMARK    2  A    between atoms: C2*_11  and  O2*_15
REMARK    3  A    between atoms: C3*_13  and  O3*_17
REMARK    4  A    between atoms: C4*_14  and  C5*_19
REMARK    5  A    between atoms: C5*_19  and  O5*_20
REMARK    6  A    between atoms: N_22  and  C_24
REMARK    7  A    between atoms: C_24  and  C_25
REMARK    8  A    between atoms: C_26  and  C_28
REMARK    9  A    between atoms: C_28  and  O_29
REMARK                            x       y       z     vdW  Elec       q    Type
REMARK                         _______ _______ _______ _____ _____    ______ ____
ROOT
ATOM      1  N   UNL     1     -34.763  25.373   4.076  0.00  0.00    -0.247 N 
ATOM      2  N   UNL     1     -34.172  26.419   5.955  0.00  0.00    -0.242 NA
ATOM      3  N   UNL     1     -33.359  26.555   2.484  0.00  0.00    -0.228 NA
ATOM      4  N   UNL     1     -32.006  28.260   3.588  0.00  0.00    -0.228 NA
ATOM      5  C   UNL     1     -33.832  26.306   3.714  0.00  0.00    +0.152 C 
ATOM      6  C   UNL     1     -34.933  25.481   5.431  0.00  0.00    +0.223 C 
ATOM      7  C   UNL     1     -33.479  26.942   4.893  0.00  0.00    +0.140 C 
ATOM      8  C   UNL     1     -32.527  27.953   4.801  0.00  0.00    +0.146 C 
ATOM      9  C   UNL     1     -32.448  27.551   2.521  0.00  0.00    +0.253 C 
ATOM     10  N   UNL     1     -32.108  28.652   5.947  0.00  0.00    -0.313 N 
ATOM     11  H   UNL     1     -32.504  28.408   6.815  0.00  0.00    +0.149 HD
ENDROOT
BRANCH   1  14
ATOM     12  O4* UNL     1     -36.149  25.160   2.164  0.00  0.00    -0.333 OA
ATOM     13  C2* UNL     1     -36.477  23.553   3.917  0.00  0.00    +0.187 C 
ATOM     14  C1* UNL     1     -35.453  24.432   3.192  0.00  0.00    +0.225 C 
ATOM     15  C3* UNL     1     -37.817  24.045   3.406  0.00  0.00    +0.171 C 
ATOM     16  C4* UNL     1     -37.465  24.600   2.031  0.00  0.00    +0.175 C 
BRANCH  13  17
ATOM     17  O2* UNL     1     -36.282  22.192   3.541  0.00  0.00    -0.378 OA
ATOM     18  H2* UNL     1     -36.118  21.657   4.334  0.00  0.00    +0.211 HD
ENDBRANCH  13  17
BRANCH  15  19
ATOM     19  O3* UNL     1     -38.298  25.081   4.254  0.00  0.00    -0.379 OA
ATOM     20  H3* UNL     1     -39.261  25.150   4.163  0.00  0.00    +0.211 HD
ENDBRANCH  15  19
BRANCH  16  21
ATOM     21  C5* UNL     1     -38.410  25.658   1.492  0.00  0.00    +0.169 C 
BRANCH  21  22
ATOM     22  O5* UNL     1     -38.121  26.895   2.124  0.00  0.00    -0.379 OA
ATOM     23  H5* UNL     1     -38.951  27.345   2.348  0.00  0.00    +0.211 HD
ENDBRANCH  21  22
ENDBRANCH  16  21
ENDBRANCH   1  14
BRANCH  10  24
ATOM     24  C   UNL     1     -31.134  29.701   5.910  0.00  0.00    +0.115 C 
BRANCH  24  25
ATOM     25  C   UNL     1     -30.034  29.381   6.874  0.00  0.00    -0.011 C 
ATOM     26  C   UNL     1     -28.910  28.680   6.636  0.00  0.00    -0.018 C 
ATOM     27  C   UNL     1     -28.548  28.072   5.309  0.00  0.00    +0.029 C 
BRANCH  26  28
ATOM     28  C   UNL     1     -27.923  28.425   7.748  0.00  0.00    +0.159 C 
BRANCH  28  29
ATOM     29  O   UNL     1     -28.280  29.200   8.885  0.00  0.00    -0.378 OA
ATOM     30  H   UNL     1     -28.975  28.742   9.384  0.00  0.00    +0.211 HD
ENDBRANCH  28  29
ENDBRANCH  26  28
ENDBRANCH  24  25
ENDBRANCH  10  24
TORSDOF 9
ENDMDL
MODEL 5
REMARK VINA RESULT:      -5.8      0.981      1.860
REMARK  Name = 5529
REMARK  9 active torsions:
REMARK  status: ('A' for Active; 'I' for Inactive)
REMARK    1  A    between atoms: N_1  and  C1*_12
REMARK    2  A    between atoms: C2*_11  and  O2*_15
REMARK    3  A    between atoms: C3*_13  and  O3*_17
REMARK    4  A    between atoms: C4*_14  and  C5*_19
REMARK    5  A    between atoms: C5*_19  and  O5*_20
REMARK    6  A    between atoms: N_22  and  C_24
REMARK    7  A    between atoms: C_24  and  C_25
REMARK    8  A    between atoms: C_26  and  C_28
REMARK    9  A    between atoms: C_28  and  O_29
REMARK                            x       y       z     vdW  Elec       q    Type
REMARK                         _______ _______ _______ _____ _____    ______ ____
ROOT
ATOM      1  N   UNL     1     -32.703  27.739   4.832  0.00  0.00    -0.247 N 
ATOM      2  N   UNL     1     -34.029  26.277   5.869  0.00  0.00    -0.242 NA
ATOM      3  N   UNL     1     -33.687  27.691   2.611  0.00  0.00    -0.228 NA
ATOM      4  N   UNL     1     -35.580  26.153   2.513  0.00  0.00    -0.228 NA
ATOM      5  C   UNL     1     -33.604  27.315   3.896  0.00  0.00    +0.152 C 
ATOM      6  C   UNL     1     -32.999  27.087   5.999  0.00  0.00    +0.223 C 
ATOM      7  C   UNL     1     -34.417  26.410   4.560  0.00  0.00    +0.140 C 
ATOM      8  C   UNL     1     -35.437  25.821   3.819  0.00  0.00    +0.146 C 
ATOM      9  C   UNL     1     -34.709  27.055   1.998  0.00  0.00    +0.253 C 
ATOM     10  N   UNL     1     -36.310  24.892   4.411  0.00  0.00    -0.313 N 
ATOM     11  H   UNL     1     -36.183  24.669   5.362  0.00  0.00    +0.149 HD
ENDROOT
BRANCH   1  14
ATOM     12  O4* UNL     1     -30.370  28.115   5.027  0.00  0.00    -0.333 OA
ATOM     13  C2* UNL     1     -31.802  29.996   5.442  0.00  0.00    +0.187 C 
ATOM     14  C1* UNL     1     -31.622  28.707   4.635  0.00  0.00    +0.225 C 
ATOM     15  C3* UNL     1     -30.709  29.933   6.492  0.00  0.00    +0.171 C 
ATOM     16  C4* UNL     1     -29.647  29.074   5.815  0.00  0.00    +0.175 C 
BRANCH  13  17
ATOM     17  O2* UNL     1     -31.596  31.120   4.591  0.00  0.00    -0.378 OA
ATOM     18  H2* UNL     1     -30.793  31.592   4.867  0.00  0.00    +0.211 HD
ENDBRANCH  13  17
BRANCH  15  19
ATOM     19  O3* UNL     1     -31.205  29.285   7.657  0.00  0.00    -0.379 OA
ATOM     20  H3* UNL     1     -31.291  28.335   7.486  0.00  0.00    +0.211 HD
ENDBRANCH  15  19
BRANCH  16  21
ATOM     21  C5* UNL     1     -28.702  28.345   6.751  0.00  0.00    +0.169 C 
BRANCH  21  22
ATOM     22  O5* UNL     1     -29.259  27.080   7.073  0.00  0.00    -0.379 OA
ATOM     23  H5* UNL     1     -30.178  27.196   7.361  0.00  0.00    +0.211 HD
ENDBRANCH  21  22
ENDBRANCH  16  21
ENDBRANCH   1  14
BRANCH  10  24
ATOM     24  C   UNL     1     -37.375  24.255   3.697  0.00  0.00    +0.115 C 
BRANCH  24  25
ATOM     25  C   UNL     1     -36.853  23.010   3.048  0.00  0.00    -0.011 C 
ATOM     26  C   UNL     1     -36.045  22.078   3.588  0.00  0.00    -0.018 C 
ATOM     27  C   UNL     1     -35.504  22.126   4.990  0.00  0.00    +0.029 C 
BRANCH  26  28
ATOM     28  C   UNL     1     -35.590  20.899   2.765  0.00  0.00    +0.159 C 
BRANCH  28  29
ATOM     29  O   UNL     1     -36.603  19.901   2.764  0.00  0.00    -0.378 OA
ATOM     30  H   UNL     1     -36.192  19.024   2.811  0.00  0.00    +0.211 HD
ENDBRANCH  28  29
ENDBRANCH  26  28
ENDBRANCH  24  25
ENDBRANCH  10  24
TORSDOF 9
ENDMDL
MODEL 6
REMARK VINA RESULT:      -5.8      4.737      8.157
REMARK  Name = 5529
REMARK  9 active torsions:
REMARK  status: ('A' for Active; 'I' for Inactive)
REMARK    1  A    between atoms: N_1  and  C1*_12
REMARK    2  A    between atoms: C2*_11  and  O2*_15
REMARK    3  A    between atoms: C3*_13  and  O3*_17
REMARK    4  A    between atoms: C4*_14  and  C5*_19
REMARK    5  A    between atoms: C5*_19  and  O5*_20
REMARK    6  A    between atoms: N_22  and  C_24
REMARK    7  A    between atoms: C_24  and  C_25
REMARK    8  A    between atoms: C_26  and  C_28
REMARK    9  A    between atoms: C_28  and  O_29
REMARK                            x       y       z     vdW  Elec       q    Type
REMARK                         _______ _______ _______ _____ _____    ______ ____
ROOT
ATOM      1  N   UNL     1     -35.125  27.499   2.702  0.00  0.00    -0.247 N 
ATOM      2  N   UNL     1     -36.682  28.514   1.469  0.00  0.00    -0.242 NA
ATOM      3  N   UNL     1     -33.884  29.437   3.482  0.00  0.00    -0.228 NA
ATOM      4  N   UNL     1     -34.841  31.509   2.618  0.00  0.00    -0.228 NA
ATOM      5  C   UNL     1     -34.868  28.838   2.795  0.00  0.00    +0.152 C 
ATOM      6  C   UNL     1     -36.223  27.356   1.895  0.00  0.00    +0.223 C 
ATOM      7  C   UNL     1     -35.845  29.448   2.024  0.00  0.00    +0.140 C 
ATOM      8  C   UNL     1     -35.809  30.838   1.949  0.00  0.00    +0.146 C 
ATOM      9  C   UNL     1     -33.952  30.777   3.333  0.00  0.00    +0.253 C 
ATOM     10  N   UNL     1     -36.761  31.541   1.191  0.00  0.00    -0.313 N 
ATOM     11  H   UNL     1     -37.454  31.027   0.715  0.00  0.00    +0.149 HD
ENDROOT
BRANCH   1  14
ATOM     12  O4* UNL     1     -34.844  25.149   2.840  0.00  0.00    -0.333 OA
ATOM     13  C2* UNL     1     -34.512  26.394   4.866  0.00  0.00    +0.187 C 
ATOM     14  C1* UNL     1     -34.376  26.415   3.340  0.00  0.00    +0.225 C 
ATOM     15  C3* UNL     1     -35.333  25.151   5.149  0.00  0.00    +0.171 C 
ATOM     16  C4* UNL     1     -35.007  24.259   3.956  0.00  0.00    +0.175 C 
BRANCH  13  17
ATOM     17  O2* UNL     1     -33.220  26.270   5.454  0.00  0.00    -0.378 OA
ATOM     18  H2* UNL     1     -32.901  27.146   5.724  0.00  0.00    +0.211 HD
ENDBRANCH  13  17
BRANCH  15  19
ATOM     19  O3* UNL     1     -36.715  25.485   5.158  0.00  0.00    -0.379 OA
ATOM     20  H3* UNL     1     -37.031  25.524   6.074  0.00  0.00    +0.211 HD
ENDBRANCH  15  19
BRANCH  16  21
ATOM     21  C5* UNL     1     -36.054  23.214   3.617  0.00  0.00    +0.169 C 
BRANCH  21  22
ATOM     22  O5* UNL     1     -36.372  22.485   4.791  0.00  0.00    -0.379 OA
ATOM     23  H5* UNL     1     -35.611  22.492   5.392  0.00  0.00    +0.211 HD
ENDBRANCH  21  22
ENDBRANCH  16  21
ENDBRANCH   1  14
BRANCH  10  24
ATOM     24  C   UNL     1     -36.772  32.968   1.078  0.00  0.00    +0.115 C 
BRANCH  24  25
ATOM     25  C   UNL     1     -38.062  33.493   1.627  0.00  0.00    -0.011 C 
ATOM     26  C   UNL     1     -38.462  34.777   1.703  0.00  0.00    -0.018 C 
ATOM     27  C   UNL     1     -37.653  35.953   1.230  0.00  0.00    +0.029 C 
BRANCH  26  28
ATOM     28  C   UNL     1     -39.792  35.122   2.326  0.00  0.00    +0.159 C 
BRANCH  28  29
ATOM     29  O   UNL     1     -39.584  35.638   3.634  0.00  0.00    -0.378 OA
ATOM     30  H   UNL     1     -40.439  35.877   4.027  0.00  0.00    +0.211 HD
ENDBRANCH  28  29
ENDBRANCH  26  28
ENDBRANCH  24  25
ENDBRANCH  10  24
TORSDOF 9
ENDMDL
MODEL 7
REMARK VINA RESULT:      -5.6      4.391      6.982
REMARK  Name = 5529
REMARK  9 active torsions:
REMARK  status: ('A' for Active; 'I' for Inactive)
REMARK    1  A    between atoms: N_1  and  C1*_12
REMARK    2  A    between atoms: C2*_11  and  O2*_15
REMARK    3  A    between atoms: C3*_13  and  O3*_17
REMARK    4  A    between atoms: C4*_14  and  C5*_19
REMARK    5  A    between atoms: C5*_19  and  O5*_20
REMARK    6  A    between atoms: N_22  and  C_24
REMARK    7  A    between atoms: C_24  and  C_25
REMARK    8  A    between atoms: C_26  and  C_28
REMARK    9  A    between atoms: C_28  and  O_29
REMARK                            x       y       z     vdW  Elec       q    Type
REMARK                         _______ _______ _______ _____ _____    ______ ____
ROOT
ATOM      1  N   UNL     1     -35.704  22.815   2.931  0.00  0.00    -0.247 N 
ATOM      2  N   UNL     1     -35.206  20.703   3.442  0.00  0.00    -0.242 NA
ATOM      3  N   UNL     1     -35.129  22.819   0.571  0.00  0.00    -0.228 NA
ATOM      4  N   UNL     1     -34.311  20.634  -0.146  0.00  0.00    -0.228 NA
ATOM      5  C   UNL     1     -35.253  22.242   1.776  0.00  0.00    +0.152 C 
ATOM      6  C   UNL     1     -35.656  21.851   3.903  0.00  0.00    +0.223 C 
ATOM      7  C   UNL     1     -34.951  20.933   2.115  0.00  0.00    +0.140 C 
ATOM      8  C   UNL     1     -34.463  20.117   1.098  0.00  0.00    +0.146 C 
ATOM      9  C   UNL     1     -34.648  21.933  -0.329  0.00  0.00    +0.253 C 
ATOM     10  N   UNL     1     -34.131  18.775   1.351  0.00  0.00    -0.313 N 
ATOM     11  H   UNL     1     -34.252  18.426   2.264  0.00  0.00    +0.149 HD
ENDROOT
BRANCH   1  14
ATOM     12  O4* UNL     1     -35.043  25.092   2.932  0.00  0.00    -0.333 OA
ATOM     13  C2* UNL     1     -36.760  24.469   4.490  0.00  0.00    +0.187 C 
ATOM     14  C1* UNL     1     -36.155  24.197   3.109  0.00  0.00    +0.225 C 
ATOM     15  C3* UNL     1     -35.748  25.374   5.166  0.00  0.00    +0.171 C 
ATOM     16  C4* UNL     1     -35.082  26.069   3.985  0.00  0.00    +0.175 C 
BRANCH  13  17
ATOM     17  O2* UNL     1     -38.000  25.153   4.337  0.00  0.00    -0.378 OA
ATOM     18  H2* UNL     1     -37.921  25.814   3.630  0.00  0.00    +0.211 HD
ENDBRANCH  13  17
BRANCH  15  19
ATOM     19  O3* UNL     1     -34.803  24.583   5.877  0.00  0.00    -0.379 OA
ATOM     20  H3* UNL     1     -34.958  23.646   5.685  0.00  0.00    +0.211 HD
ENDBRANCH  15  19
BRANCH  16  21
ATOM     21  C5* UNL     1     -33.680  26.590   4.240  0.00  0.00    +0.169 C 
BRANCH  21  22
ATOM     22  O5* UNL     1     -33.606  27.078   5.570  0.00  0.00    -0.379 OA
ATOM     23  H5* UNL     1     -34.502  27.233   5.907  0.00  0.00    +0.211 HD
ENDBRANCH  21  22
ENDBRANCH  16  21
ENDBRANCH   1  14
BRANCH  10  24
ATOM     24  C   UNL     1     -33.625  17.892   0.344  0.00  0.00    +0.115 C 
BRANCH  24  25
ATOM     25  C   UNL     1     -32.232  17.481   0.708  0.00  0.00    -0.011 C 
ATOM     26  C   UNL     1     -31.094  18.178   0.523  0.00  0.00    -0.018 C 
ATOM     27  C   UNL     1     -31.022  19.543  -0.105  0.00  0.00    +0.029 C 
BRANCH  26  28
ATOM     28  C   UNL     1     -29.767  17.585   0.924  0.00  0.00    +0.159 C 
BRANCH  28  29
ATOM     29  O   UNL     1     -29.776  16.187   0.670  0.00  0.00    -0.378 OA
ATOM     30  H   UNL     1     -28.872  15.841   0.736  0.00  0.00    +0.211 HD
ENDBRANCH  28  29
ENDBRANCH  26  28
ENDBRANCH  24  25
ENDBRANCH  10  24
TORSDOF 9
ENDMDL
MODEL 8
REMARK VINA RESULT:      -5.5      2.425      3.389
REMARK  Name = 5529
REMARK  9 active torsions:
REMARK  status: ('A' for Active; 'I' for Inactive)
REMARK    1  A    between atoms: N_1  and  C1*_12
REMARK    2  A    between atoms: C2*_11  and  O2*_15
REMARK    3  A    between atoms: C3*_13  and  O3*_17
REMARK    4  A    between atoms: C4*_14  and  C5*_19
REMARK    5  A    between atoms: C5*_19  and  O5*_20
REMARK    6  A    between atoms: N_22  and  C_24
REMARK    7  A    between atoms: C_24  and  C_25
REMARK    8  A    between atoms: C_26  and  C_28
REMARK    9  A    between atoms: C_28  and  O_29
REMARK                            x       y       z     vdW  Elec       q    Type
REMARK                         _______ _______ _______ _____ _____    ______ ____
ROOT
ATOM      1  N   UNL     1     -30.614  28.537   4.726  0.00  0.00    -0.247 N 
ATOM      2  N   UNL     1     -32.507  28.498   5.905  0.00  0.00    -0.242 NA
ATOM      3  N   UNL     1     -31.129  26.848   3.058  0.00  0.00    -0.228 NA
ATOM      4  N   UNL     1     -33.359  25.917   3.397  0.00  0.00    -0.228 NA
ATOM      5  C   UNL     1     -31.412  27.600   4.132  0.00  0.00    +0.152 C 
ATOM      6  C   UNL     1     -31.316  29.047   5.787  0.00  0.00    +0.223 C 
ATOM      7  C   UNL     1     -32.579  27.593   4.877  0.00  0.00    +0.140 C 
ATOM      8  C   UNL     1     -33.577  26.709   4.475  0.00  0.00    +0.146 C 
ATOM      9  C   UNL     1     -32.166  26.034   2.765  0.00  0.00    +0.253 C 
ATOM     10  N   UNL     1     -34.795  26.635   5.172  0.00  0.00    -0.313 N 
ATOM     11  H   UNL     1     -34.926  27.222   5.951  0.00  0.00    +0.149 HD
ENDROOT
BRANCH   1  14
ATOM     12  O4* UNL     1     -28.786  28.024   3.306  0.00  0.00    -0.333 OA
ATOM     13  C2* UNL     1     -28.252  28.925   5.466  0.00  0.00    +0.187 C 
ATOM     14  C1* UNL     1     -29.264  28.930   4.317  0.00  0.00    +0.225 C 
ATOM     15  C3* UNL     1     -27.333  27.761   5.146  0.00  0.00    +0.171 C 
ATOM     16  C4* UNL     1     -27.432  27.667   3.628  0.00  0.00    +0.175 C 
BRANCH  13  17
ATOM     17  O2* UNL     1     -27.516  30.145   5.453  0.00  0.00    -0.378 OA
ATOM     18  H2* UNL     1     -27.177  30.310   4.559  0.00  0.00    +0.211 HD
ENDBRANCH  13  17
BRANCH  15  19
ATOM     19  O3* UNL     1     -27.836  26.577   5.754  0.00  0.00    -0.379 OA
ATOM     20  H3* UNL     1     -27.174  26.225   6.369  0.00  0.00    +0.211 HD
ENDBRANCH  15  19
BRANCH  16  21
ATOM     21  C5* UNL     1     -27.118  26.305   3.037  0.00  0.00    +0.169 C 
BRANCH  21  22
ATOM     22  O5* UNL     1     -28.236  25.453   3.227  0.00  0.00    -0.379 OA
ATOM     23  H5* UNL     1     -28.883  25.892   3.800  0.00  0.00    +0.211 HD
ENDBRANCH  21  22
ENDBRANCH  16  21
ENDBRANCH   1  14
BRANCH  10  24
ATOM     24  C   UNL     1     -35.854  25.745   4.802  0.00  0.00    +0.115 C 
BRANCH  24  25
ATOM     25  C   UNL     1     -35.771  24.509   5.644  0.00  0.00    -0.011 C 
ATOM     26  C   UNL     1     -35.587  23.241   5.229  0.00  0.00    -0.018 C 
ATOM     27  C   UNL     1     -35.425  22.829   3.792  0.00  0.00    +0.029 C 
BRANCH  26  28
ATOM     28  C   UNL     1     -35.565  22.111   6.227  0.00  0.00    +0.159 C 
BRANCH  28  29
ATOM     29  O   UNL     1     -34.914  20.984   5.655  0.00  0.00    -0.378 OA
ATOM     30  H   UNL     1     -34.163  21.283   5.119  0.00  0.00    +0.211 HD
ENDBRANCH  28  29
ENDBRANCH  26  28
ENDBRANCH  24  25
ENDBRANCH  10  24
TORSDOF 9
ENDMDL
MODEL 9
REMARK VINA RESULT:      -5.5      5.374      8.347
REMARK  Name = 5529
REMARK  9 active torsions:
REMARK  status: ('A' for Active; 'I' for Inactive)
REMARK    1  A    between atoms: N_1  and  C1*_12
REMARK    2  A    between atoms: C2*_11  and  O2*_15
REMARK    3  A    between atoms: C3*_13  and  O3*_17
REMARK    4  A    between atoms: C4*_14  and  C5*_19
REMARK    5  A    between atoms: C5*_19  and  O5*_20
REMARK    6  A    between atoms: N_22  and  C_24
REMARK    7  A    between atoms: C_24  and  C_25
REMARK    8  A    between atoms: C_26  and  C_28
REMARK    9  A    between atoms: C_28  and  O_29
REMARK                            x       y       z     vdW  Elec       q    Type
REMARK                         _______ _______ _______ _____ _____    ______ ____
ROOT
ATOM      1  N   UNL     1     -38.230  22.635   2.506  0.00  0.00    -0.247 N 
ATOM      2  N   UNL     1     -40.178  22.235   1.496  0.00  0.00    -0.242 NA
ATOM      3  N   UNL     1     -38.467  25.014   2.939  0.00  0.00    -0.228 NA
ATOM      4  N   UNL     1     -40.607  25.855   2.122  0.00  0.00    -0.228 NA
ATOM      5  C   UNL     1     -38.890  23.831   2.469  0.00  0.00    +0.152 C 
ATOM      6  C   UNL     1     -39.044  21.708   1.909  0.00  0.00    +0.223 C 
ATOM      7  C   UNL     1     -40.095  23.561   1.839  0.00  0.00    +0.140 C 
ATOM      8  C   UNL     1     -40.970  24.630   1.671  0.00  0.00    +0.146 C 
ATOM      9  C   UNL     1     -39.396  25.969   2.719  0.00  0.00    +0.253 C 
ATOM     10  N   UNL     1     -42.214  24.448   1.044  0.00  0.00    -0.313 N 
ATOM     11  H   UNL     1     -42.452  23.546   0.727  0.00  0.00    +0.149 HD
ENDROOT
BRANCH   1  14
ATOM     12  O4* UNL     1     -36.751  23.132   4.291  0.00  0.00    -0.333 OA
ATOM     13  C2* UNL     1     -35.756  22.763   2.137  0.00  0.00    +0.187 C 
ATOM     14  C1* UNL     1     -36.905  22.380   3.074  0.00  0.00    +0.225 C 
ATOM     15  C3* UNL     1     -35.120  23.968   2.805  0.00  0.00    +0.171 C 
ATOM     16  C4* UNL     1     -35.452  23.747   4.276  0.00  0.00    +0.175 C 
BRANCH  13  17
ATOM     17  O2* UNL     1     -34.819  21.691   2.073  0.00  0.00    -0.378 OA
ATOM     18  H2* UNL     1     -35.296  20.846   2.050  0.00  0.00    +0.211 HD
ENDBRANCH  13  17
BRANCH  15  19
ATOM     19  O3* UNL     1     -35.736  25.157   2.327  0.00  0.00    -0.379 OA
ATOM     20  H3* UNL     1     -35.345  25.402   1.474  0.00  0.00    +0.211 HD
ENDBRANCH  15  19
BRANCH  16  21
ATOM     21  C5* UNL     1     -35.480  24.998   5.134  0.00  0.00    +0.169 C 
BRANCH  21  22
ATOM     22  O5* UNL     1     -36.794  25.530   5.128  0.00  0.00    -0.379 OA
ATOM     23  H5* UNL     1     -36.820  26.333   5.671  0.00  0.00    +0.211 HD
ENDBRANCH  21  22
ENDBRANCH  16  21
ENDBRANCH   1  14
BRANCH  10  24
ATOM     24  C   UNL     1     -43.153  25.511   0.845  0.00  0.00    +0.115 C 
BRANCH  24  25
ATOM     25  C   UNL     1     -44.361  25.262   1.694  0.00  0.00    -0.011 C 
ATOM     26  C   UNL     1     -44.687  25.859   2.856  0.00  0.00    -0.018 C 
ATOM     27  C   UNL     1     -43.863  26.920   3.531  0.00  0.00    +0.029 C 
BRANCH  26  28
ATOM     28  C   UNL     1     -45.938  25.451   3.594  0.00  0.00    +0.159 C 
BRANCH  28  29
ATOM     29  O   UNL     1     -46.383  24.190   3.114  0.00  0.00    -0.378 OA
ATOM     30  H   UNL     1     -47.134  24.319   2.513  0.00  0.00    +0.211 HD
ENDBRANCH  28  29
ENDBRANCH  26  28
ENDBRANCH  24  25
ENDBRANCH  10  24
TORSDOF 9
ENDMDL
