MODEL 1
REMARK VINA RESULT:      -6.2      0.000      0.000
REMARK  Name = 193269
REMARK  3 active torsions:
REMARK  status: ('A' for Active; 'I' for Inactive)
REMARK    1  A    between atoms: P_1  and  O_23
REMARK    2  A    between atoms: C_8  and  O_21
REMARK    3  A    between atoms: C_9  and  N_12
REMARK                            x       y       z     vdW  Elec       q    Type
REMARK                         _______ _______ _______ _____ _____    ______ ____
ROOT
ATOM      1  P   UNL     1     -35.789  22.193   3.677  0.00  0.00    +0.476 P 
ATOM      2  O   UNL     1     -34.129  25.480   3.199  0.00  0.00    -0.332 OA
ATOM      3  O   UNL     1     -35.700  23.429   4.710  0.00  0.00    -0.271 OA
ATOM      4  O   UNL     1     -35.084  22.783   2.347  0.00  0.00    -0.271 OA
ATOM      5  O   UNL     1     -35.194  20.908   4.176  0.00  0.00    -0.227 OA
ATOM      6  C   UNL     1     -36.093  24.729   4.285  0.00  0.00    +0.187 C 
ATOM      7  C   UNL     1     -35.496  25.110   2.929  0.00  0.00    +0.177 C 
ATOM      8  C   UNL     1     -35.415  25.736   5.193  0.00  0.00    +0.189 C 
ATOM      9  C   UNL     1     -34.007  25.772   4.602  0.00  0.00    +0.236 C 
ATOM     10  C   UNL     1     -35.539  24.036   1.852  0.00  0.00    +0.186 C 
ENDROOT
BRANCH   9  12
ATOM     11  O   UNL     1     -32.829  26.656   7.004  0.00  0.00    -0.193 OA
ATOM     12  N   UNL     1     -33.322  27.020   4.779  0.00  0.00    -0.178 N 
ATOM     13  N   UNL     1     -32.104  28.616   6.121  0.00  0.00    -0.306 NA
ATOM     14  N   UNL     1     -31.364  30.624   5.210  0.00  0.00    -0.332 N 
ATOM     15  C   UNL     1     -33.214  27.883   3.698  0.00  0.00    +0.083 C 
ATOM     16  C   UNL     1     -32.752  27.397   6.023  0.00  0.00    +0.276 C 
ATOM     17  C   UNL     1     -32.597  29.060   3.772  0.00  0.00    +0.065 C 
ATOM     18  C   UNL     1     -32.012  29.416   5.092  0.00  0.00    +0.193 C 
ATOM     19  H   UNL     1     -30.968  30.887   6.072  0.00  0.00    +0.145 HD
ATOM     20  H   UNL     1     -31.297  31.225   4.434  0.00  0.00    +0.145 HD
ENDBRANCH   9  12
BRANCH   8  21
ATOM     21  O   UNL     1     -36.052  27.002   5.053  0.00  0.00    -0.378 OA
ATOM     22  H   UNL     1     -35.392  27.672   4.818  0.00  0.00    +0.211 HD
ENDBRANCH   8  21
BRANCH   1  23
ATOM     23  O   UNL     1     -37.358  22.103   3.294  0.00  0.00    -0.302 OA
ATOM     24  H   UNL     1     -37.717  22.998   3.192  0.00  0.00    +0.222 HD
ENDBRANCH   1  23
TORSDOF 3
ENDMDL
MODEL 2
REMARK VINA RESULT:      -5.9      2.103      2.662
REMARK  Name = 193269
REMARK  3 active torsions:
REMARK  status: ('A' for Active; 'I' for Inactive)
REMARK    1  A    between atoms: P_1  and  O_23
REMARK    2  A    between atoms: C_8  and  O_21
REMARK    3  A    between atoms: C_9  and  N_12
REMARK                            x       y       z     vdW  Elec       q    Type
REMARK                         _______ _______ _______ _____ _____    ______ ____
ROOT
ATOM      1  P   UNL     1     -35.578  20.499   2.299  0.00  0.00    +0.476 P 
ATOM      2  O   UNL     1     -35.734  24.167   1.741  0.00  0.00    -0.332 OA
ATOM      3  O   UNL     1     -35.491  21.682   3.391  0.00  0.00    -0.271 OA
ATOM      4  O   UNL     1     -35.869  21.298   0.924  0.00  0.00    -0.271 OA
ATOM      5  O   UNL     1     -34.381  19.594   2.249  0.00  0.00    -0.227 OA
ATOM      6  C   UNL     1     -36.499  22.686   3.421  0.00  0.00    +0.187 C 
ATOM      7  C   UNL     1     -36.808  23.250   2.034  0.00  0.00    +0.177 C 
ATOM      8  C   UNL     1     -35.915  23.906   4.106  0.00  0.00    +0.189 C 
ATOM      9  C   UNL     1     -35.087  24.516   2.976  0.00  0.00    +0.236 C 
ATOM     10  C   UNL     1     -36.941  22.232   0.911  0.00  0.00    +0.186 C 
ENDROOT
BRANCH   9  12
ATOM     11  O   UNL     1     -33.377  25.871   4.760  0.00  0.00    -0.193 OA
ATOM     12  N   UNL     1     -34.934  25.940   3.057  0.00  0.00    -0.178 N 
ATOM     13  N   UNL     1     -33.951  27.932   4.004  0.00  0.00    -0.306 NA
ATOM     14  N   UNL     1     -34.545  30.043   3.227  0.00  0.00    -0.332 N 
ATOM     15  C   UNL     1     -35.674  26.742   2.200  0.00  0.00    +0.083 C 
ATOM     16  C   UNL     1     -34.049  26.552   3.984  0.00  0.00    +0.276 C 
ATOM     17  C   UNL     1     -35.595  28.071   2.206  0.00  0.00    +0.065 C 
ATOM     18  C   UNL     1     -34.656  28.671   3.189  0.00  0.00    +0.193 C 
ATOM     19  H   UNL     1     -33.931  30.469   3.868  0.00  0.00    +0.145 HD
ATOM     20  H   UNL     1     -35.077  30.597   2.612  0.00  0.00    +0.145 HD
ENDBRANCH   9  12
BRANCH   8  21
ATOM     21  O   UNL     1     -36.969  24.783   4.487  0.00  0.00    -0.378 OA
ATOM     22  H   UNL     1     -36.663  25.366   5.199  0.00  0.00    +0.211 HD
ENDBRANCH   8  21
BRANCH   1  23
ATOM     23  O   UNL     1     -36.973  19.749   2.630  0.00  0.00    -0.302 OA
ATOM     24  H   UNL     1     -37.034  18.936   2.104  0.00  0.00    +0.222 HD
ENDBRANCH   1  23
TORSDOF 3
ENDMDL
MODEL 3
REMARK VINA RESULT:      -5.8      4.337      7.062
REMARK  Name = 193269
REMARK  3 active torsions:
REMARK  status: ('A' for Active; 'I' for Inactive)
REMARK    1  A    between atoms: P_1  and  O_23
REMARK    2  A    between atoms: C_8  and  O_21
REMARK    3  A    between atoms: C_9  and  N_12
REMARK                            x       y       z     vdW  Elec       q    Type
REMARK                         _______ _______ _______ _____ _____    ______ ____
ROOT
ATOM      1  P   UNL     1     -33.862  26.114   4.566  0.00  0.00    +0.476 P 
ATOM      2  O   UNL     1     -36.239  23.492   3.442  0.00  0.00    -0.332 OA
ATOM      3  O   UNL     1     -35.347  26.300   3.963  0.00  0.00    -0.271 OA
ATOM      4  O   UNL     1     -33.715  24.508   4.670  0.00  0.00    -0.271 OA
ATOM      5  O   UNL     1     -32.772  26.787   3.783  0.00  0.00    -0.227 OA
ATOM      6  C   UNL     1     -36.432  25.581   4.536  0.00  0.00    +0.187 C 
ATOM      7  C   UNL     1     -36.113  24.100   4.743  0.00  0.00    +0.177 C 
ATOM      8  C   UNL     1     -37.531  25.497   3.495  0.00  0.00    +0.189 C 
ATOM      9  C   UNL     1     -37.016  24.366   2.606  0.00  0.00    +0.236 C 
ATOM     10  C   UNL     1     -34.745  23.785   5.332  0.00  0.00    +0.186 C 
ENDROOT
BRANCH   9  12
ATOM     11  O   UNL     1     -38.480  25.240   0.362  0.00  0.00    -0.193 OA
ATOM     12  N   UNL     1     -38.044  23.617   1.945  0.00  0.00    -0.178 N 
ATOM     13  N   UNL     1     -39.720  23.345   0.227  0.00  0.00    -0.306 NA
ATOM     14  N   UNL     1     -40.990  21.401   0.094  0.00  0.00    -0.332 N 
ATOM     15  C   UNL     1     -38.368  22.356   2.425  0.00  0.00    +0.083 C 
ATOM     16  C   UNL     1     -38.740  24.124   0.816  0.00  0.00    +0.276 C 
ATOM     17  C   UNL     1     -39.308  21.592   1.874  0.00  0.00    +0.065 C 
ATOM     18  C   UNL     1     -40.011  22.159   0.694  0.00  0.00    +0.193 C 
ATOM     19  H   UNL     1     -41.472  21.751  -0.689  0.00  0.00    +0.145 HD
ATOM     20  H   UNL     1     -41.207  20.508   0.448  0.00  0.00    +0.145 HD
ENDBRANCH   9  12
BRANCH   8  21
ATOM     21  O   UNL     1     -38.752  25.125   4.125  0.00  0.00    -0.378 OA
ATOM     22  H   UNL     1     -39.432  25.789   3.931  0.00  0.00    +0.211 HD
ENDBRANCH   8  21
BRANCH   1  23
ATOM     23  O   UNL     1     -33.988  26.606   6.102  0.00  0.00    -0.302 OA
ATOM     24  H   UNL     1     -33.274  27.232   6.300  0.00  0.00    +0.222 HD
ENDBRANCH   1  23
TORSDOF 3
ENDMDL
MODEL 4
REMARK VINA RESULT:      -5.6      3.125      4.269
REMARK  Name = 193269
REMARK  3 active torsions:
REMARK  status: ('A' for Active; 'I' for Inactive)
REMARK    1  A    between atoms: P_1  and  O_23
REMARK    2  A    between atoms: C_8  and  O_21
REMARK    3  A    between atoms: C_9  and  N_12
REMARK                            x       y       z     vdW  Elec       q    Type
REMARK                         _______ _______ _______ _____ _____    ______ ____
ROOT
ATOM      1  P   UNL     1     -40.212  22.405   0.768  0.00  0.00    +0.476 P 
ATOM      2  O   UNL     1     -37.257  24.482   1.631  0.00  0.00    -0.332 OA
ATOM      3  O   UNL     1     -39.909  23.193   2.143  0.00  0.00    -0.271 OA
ATOM      4  O   UNL     1     -38.975  22.841  -0.177  0.00  0.00    -0.271 OA
ATOM      5  O   UNL     1     -40.388  20.921   0.914  0.00  0.00    -0.227 OA
ATOM      6  C   UNL     1     -39.575  24.575   2.101  0.00  0.00    +0.187 C 
ATOM      7  C   UNL     1     -38.511  24.891   1.049  0.00  0.00    +0.177 C 
ATOM      8  C   UNL     1     -38.827  24.907   3.377  0.00  0.00    +0.189 C 
ATOM      9  C   UNL     1     -37.432  24.376   3.055  0.00  0.00    +0.236 C 
ATOM     10  C   UNL     1     -38.693  24.228  -0.308  0.00  0.00    +0.186 C 
ENDROOT
BRANCH   9  12
ATOM     11  O   UNL     1     -36.274  23.588   5.500  0.00  0.00    -0.193 OA
ATOM     12  N   UNL     1     -36.366  25.062   3.726  0.00  0.00    -0.178 N 
ATOM     13  N   UNL     1     -34.803  25.315   5.550  0.00  0.00    -0.306 NA
ATOM     14  N   UNL     1     -33.299  27.088   5.596  0.00  0.00    -0.332 N 
ATOM     15  C   UNL     1     -35.842  26.210   3.150  0.00  0.00    +0.083 C 
ATOM     16  C   UNL     1     -35.832  24.603   4.959  0.00  0.00    +0.276 C 
ATOM     17  C   UNL     1     -34.854  26.909   3.702  0.00  0.00    +0.065 C 
ATOM     18  C   UNL     1     -34.322  26.394   4.991  0.00  0.00    +0.193 C 
ATOM     19  H   UNL     1     -32.927  26.771   6.450  0.00  0.00    +0.145 HD
ATOM     20  H   UNL     1     -32.939  27.901   5.173  0.00  0.00    +0.145 HD
ENDBRANCH   9  12
BRANCH   8  21
ATOM     21  O   UNL     1     -38.798  26.320   3.554  0.00  0.00    -0.378 OA
ATOM     22  H   UNL     1     -39.159  26.752   2.764  0.00  0.00    +0.211 HD
ENDBRANCH   8  21
BRANCH   1  23
ATOM     23  O   UNL     1     -41.488  23.174   0.138  0.00  0.00    -0.302 OA
ATOM     24  H   UNL     1     -41.924  22.599  -0.510  0.00  0.00    +0.222 HD
ENDBRANCH   1  23
TORSDOF 3
ENDMDL
MODEL 5
REMARK VINA RESULT:      -5.6      3.543      6.485
REMARK  Name = 193269
REMARK  3 active torsions:
REMARK  status: ('A' for Active; 'I' for Inactive)
REMARK    1  A    between atoms: P_1  and  O_23
REMARK    2  A    between atoms: C_8  and  O_21
REMARK    3  A    between atoms: C_9  and  N_12
REMARK                            x       y       z     vdW  Elec       q    Type
REMARK                         _______ _______ _______ _____ _____    ______ ____
ROOT
ATOM      1  P   UNL     1     -31.840  28.491   4.797  0.00  0.00    +0.476 P 
ATOM      2  O   UNL     1     -33.583  25.218   4.995  0.00  0.00    -0.332 OA
ATOM      3  O   UNL     1     -32.984  27.905   3.822  0.00  0.00    -0.271 OA
ATOM      4  O   UNL     1     -31.729  27.357   5.944  0.00  0.00    -0.271 OA
ATOM      5  O   UNL     1     -30.540  28.821   4.122  0.00  0.00    -0.227 OA
ATOM      6  C   UNL     1     -34.200  27.419   4.379  0.00  0.00    +0.187 C 
ATOM      7  C   UNL     1     -33.969  26.484   5.567  0.00  0.00    +0.177 C 
ATOM      8  C   UNL     1     -34.816  26.464   3.376  0.00  0.00    +0.189 C 
ATOM      9  C   UNL     1     -33.990  25.202   3.616  0.00  0.00    +0.236 C 
ATOM     10  C   UNL     1     -32.927  26.933   6.581  0.00  0.00    +0.186 C 
ENDROOT
BRANCH   9  12
ATOM     11  O   UNL     1     -34.448  24.154   1.040  0.00  0.00    -0.193 OA
ATOM     12  N   UNL     1     -34.681  23.978   3.330  0.00  0.00    -0.178 N 
ATOM     13  N   UNL     1     -35.548  22.321   1.800  0.00  0.00    -0.306 NA
ATOM     14  N   UNL     1     -36.677  20.446   2.586  0.00  0.00    -0.332 N 
ATOM     15  C   UNL     1     -35.176  23.226   4.385  0.00  0.00    +0.083 C 
ATOM     16  C   UNL     1     -34.873  23.512   2.002  0.00  0.00    +0.276 C 
ATOM     17  C   UNL     1     -35.830  22.080   4.213  0.00  0.00    +0.065 C 
ATOM     18  C   UNL     1     -36.008  21.627   2.808  0.00  0.00    +0.193 C 
ATOM     19  H   UNL     1     -36.811  20.121   1.666  0.00  0.00    +0.145 HD
ATOM     20  H   UNL     1     -37.022  19.925   3.346  0.00  0.00    +0.145 HD
ENDBRANCH   9  12
BRANCH   8  21
ATOM     21  O   UNL     1     -36.182  26.242   3.711  0.00  0.00    -0.378 OA
ATOM     22  H   UNL     1     -36.556  25.572   3.119  0.00  0.00    +0.211 HD
ENDBRANCH   8  21
BRANCH   1  23
ATOM     23  O   UNL     1     -32.548  29.743   5.539  0.00  0.00    -0.302 OA
ATOM     24  H   UNL     1     -32.388  30.553   5.029  0.00  0.00    +0.222 HD
ENDBRANCH   1  23
TORSDOF 3
ENDMDL
MODEL 6
REMARK VINA RESULT:      -5.5      3.411      6.319
REMARK  Name = 193269
REMARK  3 active torsions:
REMARK  status: ('A' for Active; 'I' for Inactive)
REMARK    1  A    between atoms: P_1  and  O_23
REMARK    2  A    between atoms: C_8  and  O_21
REMARK    3  A    between atoms: C_9  and  N_12
REMARK                            x       y       z     vdW  Elec       q    Type
REMARK                         _______ _______ _______ _____ _____    ______ ____
ROOT
ATOM      1  P   UNL     1     -31.759  29.166   5.405  0.00  0.00    +0.476 P 
ATOM      2  O   UNL     1     -34.873  28.033   3.729  0.00  0.00    -0.332 OA
ATOM      3  O   UNL     1     -32.233  27.658   5.086  0.00  0.00    -0.271 OA
ATOM      4  O   UNL     1     -32.914  30.060   4.711  0.00  0.00    -0.271 OA
ATOM      5  O   UNL     1     -31.535  29.466   6.859  0.00  0.00    -0.227 OA
ATOM      6  C   UNL     1     -32.620  27.309   3.763  0.00  0.00    +0.187 C 
ATOM      7  C   UNL     1     -33.586  28.322   3.147  0.00  0.00    +0.177 C 
ATOM      8  C   UNL     1     -33.506  26.081   3.850  0.00  0.00    +0.189 C 
ATOM      9  C   UNL     1     -34.837  26.701   4.270  0.00  0.00    +0.236 C 
ATOM     10  C   UNL     1     -33.241  29.789   3.354  0.00  0.00    +0.186 C 
ENDROOT
BRANCH   9  12
ATOM     11  O   UNL     1     -35.864  24.390   5.513  0.00  0.00    -0.193 OA
ATOM     12  N   UNL     1     -35.994  25.971   3.837  0.00  0.00    -0.178 N 
ATOM     13  N   UNL     1     -37.576  24.159   4.043  0.00  0.00    -0.306 NA
ATOM     14  N   UNL     1     -39.329  23.926   2.532  0.00  0.00    -0.332 N 
ATOM     15  C   UNL     1     -36.684  26.414   2.718  0.00  0.00    +0.083 C 
ATOM     16  C   UNL     1     -36.452  24.812   4.517  0.00  0.00    +0.276 C 
ATOM     17  C   UNL     1     -37.766  25.799   2.246  0.00  0.00    +0.065 C 
ATOM     18  C   UNL     1     -38.214  24.591   2.987  0.00  0.00    +0.193 C 
ATOM     19  H   UNL     1     -39.649  23.123   3.003  0.00  0.00    +0.145 HD
ATOM     20  H   UNL     1     -39.807  24.254   1.737  0.00  0.00    +0.145 HD
ENDBRANCH   9  12
BRANCH   8  21
ATOM     21  O   UNL     1     -33.613  25.483   2.563  0.00  0.00    -0.378 OA
ATOM     22  H   UNL     1     -34.496  25.094   2.459  0.00  0.00    +0.211 HD
ENDBRANCH   8  21
BRANCH   1  23
ATOM     23  O   UNL     1     -30.461  29.387   4.465  0.00  0.00    -0.302 OA
ATOM     24  H   UNL     1     -29.697  28.938   4.860  0.00  0.00    +0.222 HD
ENDBRANCH   1  23
TORSDOF 3
ENDMDL
MODEL 7
REMARK VINA RESULT:      -5.5      5.213      8.023
REMARK  Name = 193269
REMARK  3 active torsions:
REMARK  status: ('A' for Active; 'I' for Inactive)
REMARK    1  A    between atoms: P_1  and  O_23
REMARK    2  A    between atoms: C_8  and  O_21
REMARK    3  A    between atoms: C_9  and  N_12
REMARK                            x       y       z     vdW  Elec       q    Type
REMARK                         _______ _______ _______ _____ _____    ______ ____
ROOT
ATOM      1  P   UNL     1     -37.164  24.761   2.721  0.00  0.00    +0.476 P 
ATOM      2  O   UNL     1     -34.840  21.901   2.264  0.00  0.00    -0.332 OA
ATOM      3  O   UNL     1     -37.489  23.288   2.151  0.00  0.00    -0.271 OA
ATOM      4  O   UNL     1     -35.610  24.645   3.154  0.00  0.00    -0.271 OA
ATOM      5  O   UNL     1     -37.460  25.887   1.774  0.00  0.00    -0.227 OA
ATOM      6  C   UNL     1     -37.106  22.143   2.904  0.00  0.00    +0.187 C 
ATOM      7  C   UNL     1     -35.663  22.225   3.404  0.00  0.00    +0.177 C 
ATOM      8  C   UNL     1     -37.015  20.971   1.946  0.00  0.00    +0.189 C 
ATOM      9  C   UNL     1     -35.656  21.221   1.295  0.00  0.00    +0.236 C 
ATOM     10  C   UNL     1     -35.231  23.560   3.992  0.00  0.00    +0.186 C 
ENDROOT
BRANCH   9  12
ATOM     11  O   UNL     1     -36.328  19.749  -1.012  0.00  0.00    -0.193 OA
ATOM     12  N   UNL     1     -34.987  20.035   0.845  0.00  0.00    -0.178 N 
ATOM     13  N   UNL     1     -34.691  18.207  -0.706  0.00  0.00    -0.306 NA
ATOM     14  N   UNL     1     -33.012  16.630  -0.386  0.00  0.00    -0.332 N 
ATOM     15  C   UNL     1     -33.919  19.548   1.585  0.00  0.00    +0.083 C 
ATOM     16  C   UNL     1     -35.383  19.346  -0.331  0.00  0.00    +0.276 C 
ATOM     17  C   UNL     1     -33.242  18.455   1.242  0.00  0.00    +0.065 C 
ATOM     18  C   UNL     1     -33.687  17.764   0.004  0.00  0.00    +0.193 C 
ATOM     19  H   UNL     1     -33.285  16.151  -1.201  0.00  0.00    +0.145 HD
ATOM     20  H   UNL     1     -32.257  16.298   0.151  0.00  0.00    +0.145 HD
ENDBRANCH   9  12
BRANCH   8  21
ATOM     21  O   UNL     1     -37.001  19.756   2.687  0.00  0.00    -0.378 OA
ATOM     22  H   UNL     1     -36.710  19.030   2.113  0.00  0.00    +0.211 HD
ENDBRANCH   8  21
BRANCH   1  23
ATOM     23  O   UNL     1     -37.966  24.835   4.125  0.00  0.00    -0.302 OA
ATOM     24  H   UNL     1     -37.374  25.168   4.817  0.00  0.00    +0.222 HD
ENDBRANCH   1  23
TORSDOF 3
ENDMDL
MODEL 8
REMARK VINA RESULT:      -5.4      4.814      6.485
REMARK  Name = 193269
REMARK  3 active torsions:
REMARK  status: ('A' for Active; 'I' for Inactive)
REMARK    1  A    between atoms: P_1  and  O_23
REMARK    2  A    between atoms: C_8  and  O_21
REMARK    3  A    between atoms: C_9  and  N_12
REMARK                            x       y       z     vdW  Elec       q    Type
REMARK                         _______ _______ _______ _____ _____    ______ ____
ROOT
ATOM      1  P   UNL     1     -32.487  19.465  -0.086  0.00  0.00    +0.476 P 
ATOM      2  O   UNL     1     -35.461  21.635   0.405  0.00  0.00    -0.332 OA
ATOM      3  O   UNL     1     -33.343  19.701   1.261  0.00  0.00    -0.271 OA
ATOM      4  O   UNL     1     -33.314  20.309  -1.190  0.00  0.00    -0.271 OA
ATOM      5  O   UNL     1     -31.035  19.831   0.015  0.00  0.00    -0.227 OA
ATOM      6  C   UNL     1     -34.756  19.533   1.234  0.00  0.00    +0.187 C 
ATOM      7  C   UNL     1     -35.409  20.240   0.045  0.00  0.00    +0.177 C 
ATOM      8  C   UNL     1     -35.336  20.320   2.392  0.00  0.00    +0.189 C 
ATOM      9  C   UNL     1     -35.313  21.741   1.832  0.00  0.00    +0.236 C 
ATOM     10  C   UNL     1     -34.712  20.077  -1.297  0.00  0.00    +0.186 C 
ENDROOT
BRANCH   9  12
ATOM     11  O   UNL     1     -35.251  22.964   4.370  0.00  0.00    -0.193 OA
ATOM     12  N   UNL     1     -36.330  22.603   2.361  0.00  0.00    -0.178 N 
ATOM     13  N   UNL     1     -37.247  24.009   4.098  0.00  0.00    -0.306 NA
ATOM     14  N   UNL     1     -39.294  25.076   3.814  0.00  0.00    -0.332 N 
ATOM     15  C   UNL     1     -37.446  22.876   1.584  0.00  0.00    +0.083 C 
ATOM     16  C   UNL     1     -36.228  23.185   3.652  0.00  0.00    +0.276 C 
ATOM     17  C   UNL     1     -38.437  23.664   1.995  0.00  0.00    +0.065 C 
ATOM     18  C   UNL     1     -38.291  24.255   3.351  0.00  0.00    +0.193 C 
ATOM     19  H   UNL     1     -39.225  25.481   4.708  0.00  0.00    +0.145 HD
ATOM     20  H   UNL     1     -40.080  25.259   3.250  0.00  0.00    +0.145 HD
ENDBRANCH   9  12
BRANCH   8  21
ATOM     21  O   UNL     1     -36.674  19.895   2.630  0.00  0.00    -0.378 OA
ATOM     22  H   UNL     1     -37.001  19.408   1.857  0.00  0.00    +0.211 HD
ENDBRANCH   8  21
BRANCH   1  23
ATOM     23  O   UNL     1     -32.766  17.919  -0.472  0.00  0.00    -0.302 OA
ATOM     24  H   UNL     1     -32.552  17.353   0.286  0.00  0.00    +0.222 HD
ENDBRANCH   1  23
TORSDOF 3
ENDMDL
MODEL 9
REMARK VINA RESULT:      -5.3      4.055      5.606
REMARK  Name = 193269
REMARK  3 active torsions:
REMARK  status: ('A' for Active; 'I' for Inactive)
REMARK    1  A    between atoms: P_1  and  O_23
REMARK    2  A    between atoms: C_8  and  O_21
REMARK    3  A    between atoms: C_9  and  N_12
REMARK                            x       y       z     vdW  Elec       q    Type
REMARK                         _______ _______ _______ _____ _____    ______ ____
ROOT
ATOM      1  P   UNL     1     -34.295  18.720  -0.288  0.00  0.00    +0.476 P 
ATOM      2  O   UNL     1     -35.274  22.085   0.940  0.00  0.00    -0.332 OA
ATOM      3  O   UNL     1     -35.090  19.101   1.063  0.00  0.00    -0.271 OA
ATOM      4  O   UNL     1     -34.138  20.149  -1.028  0.00  0.00    -0.271 OA
ATOM      5  O   UNL     1     -33.003  17.986  -0.077  0.00  0.00    -0.227 OA
ATOM      6  C   UNL     1     -36.246  19.928   0.988  0.00  0.00    +0.187 C 
ATOM      7  C   UNL     1     -36.026  21.168   0.120  0.00  0.00    +0.177 C 
ATOM      8  C   UNL     1     -36.448  20.560   2.351  0.00  0.00    +0.189 C 
ATOM      9  C   UNL     1     -35.418  21.687   2.314  0.00  0.00    +0.236 C 
ATOM     10  C   UNL     1     -35.305  20.942  -1.200  0.00  0.00    +0.186 C 
ENDROOT
BRANCH   9  12
ATOM     11  O   UNL     1     -35.381  21.768   5.131  0.00  0.00    -0.193 OA
ATOM     12  N   UNL     1     -35.758  22.828   3.115  0.00  0.00    -0.178 N 
ATOM     13  N   UNL     1     -36.056  23.932   5.243  0.00  0.00    -0.306 NA
ATOM     14  N   UNL     1     -36.750  26.149   5.351  0.00  0.00    -0.332 N 
ATOM     15  C   UNL     1     -36.141  24.001   2.481  0.00  0.00    +0.083 C 
ATOM     16  C   UNL     1     -35.716  22.793   4.534  0.00  0.00    +0.276 C 
ATOM     17  C   UNL     1     -36.474  25.106   3.144  0.00  0.00    +0.065 C 
ATOM     18  C   UNL     1     -36.414  25.028   4.627  0.00  0.00    +0.193 C 
ATOM     19  H   UNL     1     -36.720  26.127   6.334  0.00  0.00    +0.145 HD
ATOM     20  H   UNL     1     -37.019  26.973   4.885  0.00  0.00    +0.145 HD
ENDBRANCH   9  12
BRANCH   8  21
ATOM     21  O   UNL     1     -37.768  21.088   2.435  0.00  0.00    -0.378 OA
ATOM     22  H   UNL     1     -38.405  20.413   2.154  0.00  0.00    +0.211 HD
ENDBRANCH   8  21
BRANCH   1  23
ATOM     23  O   UNL     1     -35.382  17.923  -1.183  0.00  0.00    -0.302 OA
ATOM     24  H   UNL     1     -35.350  16.979  -0.964  0.00  0.00    +0.222 HD
ENDBRANCH   1  23
TORSDOF 3
ENDMDL
