MODEL 1
REMARK VINA RESULT:      -7.4      0.000      0.000
REMARK  Name = 5492677
REMARK  9 active torsions:
REMARK  status: ('A' for Active; 'I' for Inactive)
REMARK    1  A    between atoms: C_3  and  C_11
REMARK    2  A    between atoms: C_7  and  C_26
REMARK    3  A    between atoms: C_12  and  C_14
REMARK    4  A    between atoms: C_14  and  N_15
REMARK    5  A    between atoms: C_14  and  C_19
REMARK    6  A    between atoms: C_19  and  C_20
REMARK    7  A    between atoms: C_26  and  N_29
REMARK    8  A    between atoms: C_30  and  C_32
REMARK    9  A    between atoms: C_32  and  N_35
REMARK                            x       y       z     vdW  Elec       q    Type
REMARK                         _______ _______ _______ _____ _____    ______ ____
ROOT
ATOM      1  O   UNL     1     -41.460  27.697   4.064  0.00  0.00    -0.273 OA
ATOM      2  N   UNL     1     -41.554  26.054   2.435  0.00  0.00    -0.272 N 
ATOM      3  C   UNL     1     -40.315  25.382   2.805  0.00  0.00    +0.152 C 
ATOM      4  C   UNL     1     -40.373  24.039   2.086  0.00  0.00    +0.031 C 
ATOM      5  C   UNL     1     -41.216  24.336   0.848  0.00  0.00    +0.024 C 
ATOM      6  C   UNL     1     -42.233  25.350   1.351  0.00  0.00    +0.094 C 
ATOM      7  C   UNL     1     -42.062  27.126   3.153  0.00  0.00    +0.244 C 
ENDROOT
BRANCH   3  11
ATOM      8  O   UNL     1     -39.323  27.012   1.368  0.00  0.00    -0.273 OA
ATOM      9  O   UNL     1     -36.608  27.502   1.914  0.00  0.00    -0.277 OA
ATOM     10  N   UNL     1     -38.014  26.015   3.027  0.00  0.00    -0.256 N 
ATOM     11  C   UNL     1     -39.186  26.232   2.305  0.00  0.00    +0.246 C 
ATOM     12  C   UNL     1     -36.800  26.661   2.789  0.00  0.00    +0.208 C 
ATOM     13  H   UNL     1     -38.045  25.356   3.759  0.00  0.00    +0.157 HD
BRANCH  12  14
ATOM     14  C   UNL     1     -35.695  26.179   3.730  0.00  0.00    +0.021 C 
BRANCH  14  15
ATOM     15  N   UNL     1     -34.991  27.362   4.226  0.00  0.00    +0.390 N 
ATOM     16  C   UNL     1     -33.599  27.344   3.807  0.00  0.00    -0.105 C 
ATOM     17  H   UNL     1     -35.034  27.375   5.245  0.00  0.00    -0.084 HD
ATOM     18  H   UNL     1     -35.438  28.195   3.842  0.00  0.00    -0.084 HD
ENDBRANCH  14  15
BRANCH  14  19
ATOM     19  C   UNL     1     -36.286  25.395   4.912  0.00  0.00    +0.014 C 
BRANCH  19  20
ATOM     20  C   UNL     1     -35.862  23.945   4.931  0.00  0.00    -0.024 C 
ATOM     21  C   UNL     1     -35.948  23.179   3.767  0.00  0.00    -0.004 C 
ATOM     22  C   UNL     1     -35.386  23.372   6.109  0.00  0.00    -0.004 C 
ATOM     23  C   UNL     1     -35.558  21.841   3.784  0.00  0.00    -0.000 C 
ATOM     24  C   UNL     1     -34.995  22.032   6.125  0.00  0.00    -0.000 C 
ATOM     25  C   UNL     1     -35.081  21.267   4.962  0.00  0.00    -0.000 C 
ENDBRANCH  19  20
ENDBRANCH  14  19
ENDBRANCH  12  14
ENDBRANCH   3  11
BRANCH   7  26
ATOM     26  C   UNL     1     -43.438  27.588   2.743  0.00  0.00    +0.149 C 
ATOM     27  C   UNL     1     -43.352  28.584   1.610  0.00  0.00    +0.031 C 
BRANCH  26  29
ATOM     28  O   UNL     1     -45.261  26.329   4.578  0.00  0.00    -0.273 OA
ATOM     29  N   UNL     1     -43.991  28.162   3.933  0.00  0.00    -0.297 N 
ATOM     30  C   UNL     1     -44.871  27.479   4.770  0.00  0.00    +0.241 C 
ATOM     31  H   UNL     1     -43.735  29.083   4.171  0.00  0.00    +0.150 HD
BRANCH  30  32
ATOM     32  C   UNL     1     -45.271  28.298   5.991  0.00  0.00    +0.149 C 
ATOM     33  C   UNL     1     -46.721  28.039   6.367  0.00  0.00    +0.031 C 
BRANCH  32  35
ATOM     34  O   UNL     1     -43.458  30.129   7.328  0.00  0.00    -0.275 OA
ATOM     35  N   UNL     1     -45.049  29.687   5.686  0.00  0.00    -0.298 N 
ATOM     36  C   UNL     1     -44.157  30.488   6.384  0.00  0.00    +0.223 C 
ATOM     37  C   UNL     1     -44.100  31.892   5.844  0.00  0.00    +0.095 C 
ATOM     38  H   UNL     1     -45.556  30.090   4.945  0.00  0.00    +0.150 HD
ENDBRANCH  32  35
ENDBRANCH  30  32
ENDBRANCH  26  29
ENDBRANCH   7  26
TORSDOF 9
ENDMDL
MODEL 2
REMARK VINA RESULT:      -7.3      5.628      8.002
REMARK  Name = 5492677
REMARK  9 active torsions:
REMARK  status: ('A' for Active; 'I' for Inactive)
REMARK    1  A    between atoms: C_3  and  C_11
REMARK    2  A    between atoms: C_7  and  C_26
REMARK    3  A    between atoms: C_12  and  C_14
REMARK    4  A    between atoms: C_14  and  N_15
REMARK    5  A    between atoms: C_14  and  C_19
REMARK    6  A    between atoms: C_19  and  C_20
REMARK    7  A    between atoms: C_26  and  N_29
REMARK    8  A    between atoms: C_30  and  C_32
REMARK    9  A    between atoms: C_32  and  N_35
REMARK                            x       y       z     vdW  Elec       q    Type
REMARK                         _______ _______ _______ _____ _____    ______ ____
ROOT
ATOM      1  O   UNL     1     -34.702  26.348   5.053  0.00  0.00    -0.273 OA
ATOM      2  N   UNL     1     -35.972  25.526   3.302  0.00  0.00    -0.272 N 
ATOM      3  C   UNL     1     -36.950  24.821   4.121  0.00  0.00    +0.152 C 
ATOM      4  C   UNL     1     -38.100  24.511   3.171  0.00  0.00    +0.031 C 
ATOM      5  C   UNL     1     -37.416  24.394   1.811  0.00  0.00    +0.024 C 
ATOM      6  C   UNL     1     -36.312  25.439   1.884  0.00  0.00    +0.094 C 
ATOM      7  C   UNL     1     -34.960  26.299   3.850  0.00  0.00    +0.244 C 
ENDROOT
BRANCH   3  11
ATOM      8  O   UNL     1     -35.837  23.484   5.758  0.00  0.00    -0.273 OA
ATOM      9  O   UNL     1     -35.174  20.904   4.854  0.00  0.00    -0.277 OA
ATOM     10  N   UNL     1     -36.261  22.575   3.648  0.00  0.00    -0.256 N 
ATOM     11  C   UNL     1     -36.288  23.572   4.620  0.00  0.00    +0.246 C 
ATOM     12  C   UNL     1     -35.708  21.305   3.823  0.00  0.00    +0.208 C 
ATOM     13  H   UNL     1     -36.662  22.782   2.772  0.00  0.00    +0.157 HD
BRANCH  12  14
ATOM     14  C   UNL     1     -35.807  20.453   2.558  0.00  0.00    +0.021 C 
BRANCH  14  15
ATOM     15  N   UNL     1     -37.222  20.367   2.193  0.00  0.00    +0.390 N 
ATOM     16  C   UNL     1     -37.413  20.718   0.795  0.00  0.00    -0.105 C 
ATOM     17  H   UNL     1     -37.758  21.009   2.776  0.00  0.00    -0.084 HD
ATOM     18  H   UNL     1     -37.540  19.408   2.337  0.00  0.00    -0.084 HD
ENDBRANCH  14  15
BRANCH  14  19
ATOM     19  C   UNL     1     -35.013  21.088   1.405  0.00  0.00    +0.014 C 
BRANCH  19  20
ATOM     20  C   UNL     1     -33.761  20.318   1.055  0.00  0.00    -0.024 C 
ATOM     21  C   UNL     1     -33.559  19.041   1.579  0.00  0.00    -0.004 C 
ATOM     22  C   UNL     1     -32.808  20.884   0.208  0.00  0.00    -0.004 C 
ATOM     23  C   UNL     1     -32.404  18.330   1.256  0.00  0.00    -0.000 C 
ATOM     24  C   UNL     1     -31.652  20.172  -0.115  0.00  0.00    -0.000 C 
ATOM     25  C   UNL     1     -31.450  18.895   0.409  0.00  0.00    -0.000 C 
ENDBRANCH  19  20
ENDBRANCH  14  19
ENDBRANCH  12  14
ENDBRANCH   3  11
BRANCH   7  26
ATOM     26  C   UNL     1     -34.148  27.100   2.863  0.00  0.00    +0.149 C 
ATOM     27  C   UNL     1     -32.684  26.741   2.959  0.00  0.00    +0.031 C 
BRANCH  26  29
ATOM     28  O   UNL     1     -35.313  29.132   1.193  0.00  0.00    -0.273 OA
ATOM     29  N   UNL     1     -34.399  28.464   3.220  0.00  0.00    -0.297 N 
ATOM     30  C   UNL     1     -34.970  29.387   2.345  0.00  0.00    +0.241 C 
ATOM     31  H   UNL     1     -34.158  28.764   4.127  0.00  0.00    +0.150 HD
BRANCH  30  32
ATOM     32  C   UNL     1     -35.172  30.754   2.989  0.00  0.00    +0.149 C 
ATOM     33  C   UNL     1     -36.283  31.523   2.291  0.00  0.00    +0.031 C 
BRANCH  32  35
ATOM     34  O   UNL     1     -32.939  30.564   4.835  0.00  0.00    -0.275 OA
ATOM     35  N   UNL     1     -33.922  31.464   2.924  0.00  0.00    -0.298 N 
ATOM     36  C   UNL     1     -32.907  31.308   3.858  0.00  0.00    +0.223 C 
ATOM     37  C   UNL     1     -31.700  32.149   3.541  0.00  0.00    +0.095 C 
ATOM     38  H   UNL     1     -33.780  32.094   2.181  0.00  0.00    +0.150 HD
ENDBRANCH  32  35
ENDBRANCH  30  32
ENDBRANCH  26  29
ENDBRANCH   7  26
TORSDOF 9
ENDMDL
MODEL 3
REMARK VINA RESULT:      -7.2      5.876      8.779
REMARK  Name = 5492677
REMARK  9 active torsions:
REMARK  status: ('A' for Active; 'I' for Inactive)
REMARK    1  A    between atoms: C_3  and  C_11
REMARK    2  A    between atoms: C_7  and  C_26
REMARK    3  A    between atoms: C_12  and  C_14
REMARK    4  A    between atoms: C_14  and  N_15
REMARK    5  A    between atoms: C_14  and  C_19
REMARK    6  A    between atoms: C_19  and  C_20
REMARK    7  A    between atoms: C_26  and  N_29
REMARK    8  A    between atoms: C_30  and  C_32
REMARK    9  A    between atoms: C_32  and  N_35
REMARK                            x       y       z     vdW  Elec       q    Type
REMARK                         _______ _______ _______ _____ _____    ______ ____
ROOT
ATOM      1  O   UNL     1     -34.354  26.347   5.289  0.00  0.00    -0.273 OA
ATOM      2  N   UNL     1     -35.682  25.662   3.521  0.00  0.00    -0.272 N 
ATOM      3  C   UNL     1     -36.694  24.988   4.324  0.00  0.00    +0.152 C 
ATOM      4  C   UNL     1     -37.867  24.779   3.374  0.00  0.00    +0.031 C 
ATOM      5  C   UNL     1     -37.200  24.670   2.005  0.00  0.00    +0.024 C 
ATOM      6  C   UNL     1     -36.036  25.645   2.105  0.00  0.00    +0.094 C 
ATOM      7  C   UNL     1     -34.623  26.355   4.087  0.00  0.00    +0.244 C 
ENDROOT
BRANCH   3  11
ATOM      8  O   UNL     1     -35.639  23.535   5.900  0.00  0.00    -0.273 OA
ATOM      9  O   UNL     1     -35.157  20.947   4.909  0.00  0.00    -0.277 OA
ATOM     10  N   UNL     1     -36.157  22.718   3.773  0.00  0.00    -0.256 N 
ATOM     11  C   UNL     1     -36.104  23.685   4.774  0.00  0.00    +0.246 C 
ATOM     12  C   UNL     1     -35.682  21.411   3.900  0.00  0.00    +0.208 C 
ATOM     13  H   UNL     1     -36.559  22.976   2.912  0.00  0.00    +0.157 HD
BRANCH  12  14
ATOM     14  C   UNL     1     -35.857  20.606   2.613  0.00  0.00    +0.021 C 
BRANCH  14  15
ATOM     15  N   UNL     1     -37.285  20.593   2.291  0.00  0.00    +0.390 N 
ATOM     16  C   UNL     1     -37.497  20.921   0.890  0.00  0.00    -0.105 C 
ATOM     17  H   UNL     1     -37.766  21.279   2.872  0.00  0.00    -0.084 HD
ATOM     18  H   UNL     1     -37.653  19.658   2.468  0.00  0.00    -0.084 HD
ENDBRANCH  14  15
BRANCH  14  19
ATOM     19  C   UNL     1     -35.071  21.242   1.457  0.00  0.00    +0.014 C 
BRANCH  19  20
ATOM     20  C   UNL     1     -33.844  20.451   1.069  0.00  0.00    -0.024 C 
ATOM     21  C   UNL     1     -32.884  21.021   0.232  0.00  0.00    -0.004 C 
ATOM     22  C   UNL     1     -33.670  19.153   1.547  0.00  0.00    -0.004 C 
ATOM     23  C   UNL     1     -31.751  20.290  -0.126  0.00  0.00    -0.000 C 
ATOM     24  C   UNL     1     -32.536  18.423   1.189  0.00  0.00    -0.000 C 
ATOM     25  C   UNL     1     -31.577  18.992   0.352  0.00  0.00    -0.000 C 
ENDBRANCH  19  20
ENDBRANCH  14  19
ENDBRANCH  12  14
ENDBRANCH   3  11
BRANCH   7  26
ATOM     26  C   UNL     1     -33.772  27.141   3.121  0.00  0.00    +0.149 C 
ATOM     27  C   UNL     1     -32.589  26.321   2.661  0.00  0.00    +0.031 C 
BRANCH  26  29
ATOM     28  O   UNL     1     -32.586  29.538   2.060  0.00  0.00    -0.273 OA
ATOM     29  N   UNL     1     -33.376  28.302   3.860  0.00  0.00    -0.297 N 
ATOM     30  C   UNL     1     -32.806  29.426   3.264  0.00  0.00    +0.241 C 
ATOM     31  H   UNL     1     -33.513  28.307   4.836  0.00  0.00    +0.150 HD
BRANCH  30  32
ATOM     32  C   UNL     1     -32.522  30.538   4.267  0.00  0.00    +0.149 C 
ATOM     33  C   UNL     1     -32.437  31.888   3.571  0.00  0.00    +0.031 C 
BRANCH  32  35
ATOM     34  O   UNL     1     -32.201  28.974   6.691  0.00  0.00    -0.275 OA
ATOM     35  N   UNL     1     -31.294  30.221   4.945  0.00  0.00    -0.298 N 
ATOM     36  C   UNL     1     -31.238  29.462   6.106  0.00  0.00    +0.223 C 
ATOM     37  C   UNL     1     -29.828  29.260   6.593  0.00  0.00    +0.095 C 
ATOM     38  H   UNL     1     -30.450  30.560   4.569  0.00  0.00    +0.150 HD
ENDBRANCH  32  35
ENDBRANCH  30  32
ENDBRANCH  26  29
ENDBRANCH   7  26
TORSDOF 9
ENDMDL
MODEL 4
REMARK VINA RESULT:      -7.2      6.400      8.979
REMARK  Name = 5492677
REMARK  9 active torsions:
REMARK  status: ('A' for Active; 'I' for Inactive)
REMARK    1  A    between atoms: C_3  and  C_11
REMARK    2  A    between atoms: C_7  and  C_26
REMARK    3  A    between atoms: C_12  and  C_14
REMARK    4  A    between atoms: C_14  and  N_15
REMARK    5  A    between atoms: C_14  and  C_19
REMARK    6  A    between atoms: C_19  and  C_20
REMARK    7  A    between atoms: C_26  and  N_29
REMARK    8  A    between atoms: C_30  and  C_32
REMARK    9  A    between atoms: C_32  and  N_35
REMARK                            x       y       z     vdW  Elec       q    Type
REMARK                         _______ _______ _______ _____ _____    ______ ____
ROOT
ATOM      1  O   UNL     1     -34.185  24.648   1.484  0.00  0.00    -0.273 OA
ATOM      2  N   UNL     1     -35.087  25.263   3.525  0.00  0.00    -0.272 N 
ATOM      3  C   UNL     1     -35.024  23.943   4.140  0.00  0.00    +0.152 C 
ATOM      4  C   UNL     1     -35.231  24.198   5.628  0.00  0.00    +0.031 C 
ATOM      5  C   UNL     1     -36.093  25.459   5.656  0.00  0.00    +0.024 C 
ATOM      6  C   UNL     1     -35.574  26.262   4.472  0.00  0.00    +0.094 C 
ATOM      7  C   UNL     1     -34.588  25.519   2.257  0.00  0.00    +0.244 C 
ENDROOT
BRANCH   3  11
ATOM      8  O   UNL     1     -37.314  23.331   3.845  0.00  0.00    -0.273 OA
ATOM      9  O   UNL     1     -37.695  21.193   2.057  0.00  0.00    -0.277 OA
ATOM     10  N   UNL     1     -35.666  22.158   2.675  0.00  0.00    -0.256 N 
ATOM     11  C   UNL     1     -36.139  23.130   3.554  0.00  0.00    +0.246 C 
ATOM     12  C   UNL     1     -36.470  21.251   1.981  0.00  0.00    +0.208 C 
ATOM     13  H   UNL     1     -34.693  22.107   2.533  0.00  0.00    +0.157 HD
BRANCH  12  14
ATOM     14  C   UNL     1     -35.648  20.292   1.121  0.00  0.00    +0.021 C 
BRANCH  14  15
ATOM     15  N   UNL     1     -36.459  19.938  -0.044  0.00  0.00    +0.390 N 
ATOM     16  C   UNL     1     -36.730  18.509  -0.066  0.00  0.00    -0.105 C 
ATOM     17  H   UNL     1     -35.957  20.196  -0.893  0.00  0.00    -0.084 HD
ATOM     18  H   UNL     1     -37.346  20.439   0.009  0.00  0.00    -0.084 HD
ENDBRANCH  14  15
BRANCH  14  19
ATOM     19  C   UNL     1     -34.339  20.952   0.660  0.00  0.00    +0.014 C 
BRANCH  19  20
ATOM     20  C   UNL     1     -33.161  20.007   0.676  0.00  0.00    -0.024 C 
ATOM     21  C   UNL     1     -31.985  20.348   0.006  0.00  0.00    -0.004 C 
ATOM     22  C   UNL     1     -33.248  18.795   1.360  0.00  0.00    -0.004 C 
ATOM     23  C   UNL     1     -30.897  19.476   0.021  0.00  0.00    -0.000 C 
ATOM     24  C   UNL     1     -32.159  17.923   1.374  0.00  0.00    -0.000 C 
ATOM     25  C   UNL     1     -30.984  18.264   0.705  0.00  0.00    -0.000 C 
ENDBRANCH  19  20
ENDBRANCH  14  19
ENDBRANCH  12  14
ENDBRANCH   3  11
BRANCH   7  26
ATOM     26  C   UNL     1     -34.573  26.969   1.846  0.00  0.00    +0.149 C 
ATOM     27  C   UNL     1     -34.725  27.102   0.348  0.00  0.00    +0.031 C 
BRANCH  26  29
ATOM     28  O   UNL     1     -34.115  29.332   3.422  0.00  0.00    -0.273 OA
ATOM     29  N   UNL     1     -33.311  27.458   2.312  0.00  0.00    -0.297 N 
ATOM     30  C   UNL     1     -33.177  28.618   3.074  0.00  0.00    +0.241 C 
ATOM     31  H   UNL     1     -32.498  26.951   2.083  0.00  0.00    +0.150 HD
BRANCH  30  32
ATOM     32  C   UNL     1     -31.733  28.888   3.478  0.00  0.00    +0.149 C 
ATOM     33  C   UNL     1     -30.791  27.886   2.829  0.00  0.00    +0.031 C 
BRANCH  32  35
ATOM     34  O   UNL     1     -31.617  31.118   5.333  0.00  0.00    -0.275 OA
ATOM     35  N   UNL     1     -31.654  28.827   4.913  0.00  0.00    -0.298 N 
ATOM     36  C   UNL     1     -31.602  29.953   5.723  0.00  0.00    +0.223 C 
ATOM     37  C   UNL     1     -31.550  29.607   7.186  0.00  0.00    +0.095 C 
ATOM     38  H   UNL     1     -31.635  27.942   5.343  0.00  0.00    +0.150 HD
ENDBRANCH  32  35
ENDBRANCH  30  32
ENDBRANCH  26  29
ENDBRANCH   7  26
TORSDOF 9
ENDMDL
MODEL 5
REMARK VINA RESULT:      -7.0      5.529      8.186
REMARK  Name = 5492677
REMARK  9 active torsions:
REMARK  status: ('A' for Active; 'I' for Inactive)
REMARK    1  A    between atoms: C_3  and  C_11
REMARK    2  A    between atoms: C_7  and  C_26
REMARK    3  A    between atoms: C_12  and  C_14
REMARK    4  A    between atoms: C_14  and  N_15
REMARK    5  A    between atoms: C_14  and  C_19
REMARK    6  A    between atoms: C_19  and  C_20
REMARK    7  A    between atoms: C_26  and  N_29
REMARK    8  A    between atoms: C_30  and  C_32
REMARK    9  A    between atoms: C_32  and  N_35
REMARK                            x       y       z     vdW  Elec       q    Type
REMARK                         _______ _______ _______ _____ _____    ______ ____
ROOT
ATOM      1  O   UNL     1     -36.168  26.661   5.015  0.00  0.00    -0.273 OA
ATOM      2  N   UNL     1     -35.373  26.450   2.851  0.00  0.00    -0.272 N 
ATOM      3  C   UNL     1     -36.659  26.611   2.185  0.00  0.00    +0.152 C 
ATOM      4  C   UNL     1     -36.309  26.874   0.725  0.00  0.00    +0.031 C 
ATOM      5  C   UNL     1     -34.982  26.142   0.540  0.00  0.00    +0.024 C 
ATOM      6  C   UNL     1     -34.288  26.332   1.881  0.00  0.00    +0.094 C 
ATOM      7  C   UNL     1     -35.227  26.562   4.225  0.00  0.00    +0.244 C 
ENDROOT
BRANCH   3  11
ATOM      8  O   UNL     1     -38.615  25.240   2.153  0.00  0.00    -0.273 OA
ATOM      9  O   UNL     1     -38.137  22.565   2.879  0.00  0.00    -0.277 OA
ATOM     10  N   UNL     1     -36.569  24.285   2.753  0.00  0.00    -0.256 N 
ATOM     11  C   UNL     1     -37.407  25.323   2.354  0.00  0.00    +0.246 C 
ATOM     12  C   UNL     1     -36.983  22.972   2.991  0.00  0.00    +0.208 C 
ATOM     13  H   UNL     1     -35.615  24.492   2.878  0.00  0.00    +0.157 HD
BRANCH  12  14
ATOM     14  C   UNL     1     -35.831  22.078   3.449  0.00  0.00    +0.021 C 
BRANCH  14  15
ATOM     15  N   UNL     1     -36.017  21.814   4.876  0.00  0.00    +0.390 N 
ATOM     16  C   UNL     1     -35.003  22.499   5.661  0.00  0.00    -0.105 C 
ATOM     17  H   UNL     1     -35.948  20.810   5.043  0.00  0.00    -0.084 HD
ATOM     18  H   UNL     1     -36.936  22.157   5.156  0.00  0.00    -0.084 HD
ENDBRANCH  14  15
BRANCH  14  19
ATOM     19  C   UNL     1     -35.826  20.751   2.673  0.00  0.00    +0.014 C 
BRANCH  19  20
ATOM     20  C   UNL     1     -34.652  20.621   1.731  0.00  0.00    -0.024 C 
ATOM     21  C   UNL     1     -33.909  19.440   1.703  0.00  0.00    -0.004 C 
ATOM     22  C   UNL     1     -34.311  21.680   0.890  0.00  0.00    -0.004 C 
ATOM     23  C   UNL     1     -32.825  19.320   0.833  0.00  0.00    -0.000 C 
ATOM     24  C   UNL     1     -33.227  21.559   0.020  0.00  0.00    -0.000 C 
ATOM     25  C   UNL     1     -32.485  20.379  -0.008  0.00  0.00    -0.000 C 
ENDBRANCH  19  20
ENDBRANCH  14  19
ENDBRANCH  12  14
ENDBRANCH   3  11
BRANCH   7  26
ATOM     26  C   UNL     1     -33.807  26.545   4.731  0.00  0.00    +0.149 C 
ATOM     27  C   UNL     1     -33.728  25.872   6.082  0.00  0.00    +0.031 C 
BRANCH  26  29
ATOM     28  O   UNL     1     -31.228  27.659   4.110  0.00  0.00    -0.273 OA
ATOM     29  N   UNL     1     -33.432  27.927   4.788  0.00  0.00    -0.297 N 
ATOM     30  C   UNL     1     -32.154  28.383   4.468  0.00  0.00    +0.241 C 
ATOM     31  H   UNL     1     -34.111  28.585   5.065  0.00  0.00    +0.150 HD
BRANCH  30  32
ATOM     32  C   UNL     1     -32.035  29.899   4.566  0.00  0.00    +0.149 C 
ATOM     33  C   UNL     1     -31.734  30.329   5.993  0.00  0.00    +0.031 C 
BRANCH  32  35
ATOM     34  O   UNL     1     -32.636  30.817   1.878  0.00  0.00    -0.275 OA
ATOM     35  N   UNL     1     -33.266  30.473   4.093  0.00  0.00    -0.298 N 
ATOM     36  C   UNL     1     -33.463  30.886   2.783  0.00  0.00    +0.223 C 
ATOM     37  C   UNL     1     -34.849  31.426   2.552  0.00  0.00    +0.095 C 
ATOM     38  H   UNL     1     -34.008  30.580   4.732  0.00  0.00    +0.150 HD
ENDBRANCH  32  35
ENDBRANCH  30  32
ENDBRANCH  26  29
ENDBRANCH   7  26
TORSDOF 9
ENDMDL
MODEL 6
REMARK VINA RESULT:      -6.9      1.638      2.357
REMARK  Name = 5492677
REMARK  9 active torsions:
REMARK  status: ('A' for Active; 'I' for Inactive)
REMARK    1  A    between atoms: C_3  and  C_11
REMARK    2  A    between atoms: C_7  and  C_26
REMARK    3  A    between atoms: C_12  and  C_14
REMARK    4  A    between atoms: C_14  and  N_15
REMARK    5  A    between atoms: C_14  and  C_19
REMARK    6  A    between atoms: C_19  and  C_20
REMARK    7  A    between atoms: C_26  and  N_29
REMARK    8  A    between atoms: C_30  and  C_32
REMARK    9  A    between atoms: C_32  and  N_35
REMARK                            x       y       z     vdW  Elec       q    Type
REMARK                         _______ _______ _______ _____ _____    ______ ____
ROOT
ATOM      1  O   UNL     1     -41.454  27.531   4.054  0.00  0.00    -0.273 OA
ATOM      2  N   UNL     1     -41.465  25.897   2.415  0.00  0.00    -0.272 N 
ATOM      3  C   UNL     1     -40.200  25.277   2.789  0.00  0.00    +0.152 C 
ATOM      4  C   UNL     1     -40.195  23.938   2.061  0.00  0.00    +0.031 C 
ATOM      5  C   UNL     1     -41.042  24.205   0.819  0.00  0.00    +0.024 C 
ATOM      6  C   UNL     1     -42.105  25.170   1.322  0.00  0.00    +0.094 C 
ATOM      7  C   UNL     1     -42.025  26.940   3.136  0.00  0.00    +0.244 C 
ENDROOT
BRANCH   3  11
ATOM      8  O   UNL     1     -39.274  26.964   1.374  0.00  0.00    -0.273 OA
ATOM      9  O   UNL     1     -36.582  27.559   1.932  0.00  0.00    -0.277 OA
ATOM     10  N   UNL     1     -37.928  26.001   3.024  0.00  0.00    -0.256 N 
ATOM     11  C   UNL     1     -39.106  26.179   2.302  0.00  0.00    +0.246 C 
ATOM     12  C   UNL     1     -36.741  26.700   2.796  0.00  0.00    +0.208 C 
ATOM     13  H   UNL     1     -37.933  25.333   3.747  0.00  0.00    +0.157 HD
BRANCH  12  14
ATOM     14  C   UNL     1     -35.619  26.253   3.734  0.00  0.00    +0.021 C 
BRANCH  14  15
ATOM     15  N   UNL     1     -34.931  27.456   4.205  0.00  0.00    +0.390 N 
ATOM     16  C   UNL     1     -33.528  27.426   3.825  0.00  0.00    -0.105 C 
ATOM     17  H   UNL     1     -35.003  27.507   5.221  0.00  0.00    -0.084 HD
ATOM     18  H   UNL     1     -35.370  28.272   3.778  0.00  0.00    -0.084 HD
ENDBRANCH  14  15
BRANCH  14  19
ATOM     19  C   UNL     1     -36.184  25.477   4.934  0.00  0.00    +0.014 C 
BRANCH  19  20
ATOM     20  C   UNL     1     -35.813  24.013   4.920  0.00  0.00    -0.024 C 
ATOM     21  C   UNL     1     -35.393  23.390   6.096  0.00  0.00    -0.004 C 
ATOM     22  C   UNL     1     -35.889  23.284   3.734  0.00  0.00    -0.004 C 
ATOM     23  C   UNL     1     -35.050  22.038   6.084  0.00  0.00    -0.000 C 
ATOM     24  C   UNL     1     -35.546  21.932   3.722  0.00  0.00    -0.000 C 
ATOM     25  C   UNL     1     -35.126  21.309   4.897  0.00  0.00    -0.000 C 
ENDBRANCH  19  20
ENDBRANCH  14  19
ENDBRANCH  12  14
ENDBRANCH   3  11
BRANCH   7  26
ATOM     26  C   UNL     1     -43.416  27.344   2.720  0.00  0.00    +0.149 C 
ATOM     27  C   UNL     1     -43.682  28.789   3.072  0.00  0.00    +0.031 C 
BRANCH  26  29
ATOM     28  O   UNL     1     -46.088  26.572   1.982  0.00  0.00    -0.273 OA
ATOM     29  N   UNL     1     -44.276  26.444   3.428  0.00  0.00    -0.297 N 
ATOM     30  C   UNL     1     -45.563  26.123   2.999  0.00  0.00    +0.241 C 
ATOM     31  H   UNL     1     -43.941  26.031   4.257  0.00  0.00    +0.150 HD
BRANCH  30  32
ATOM     32  C   UNL     1     -46.244  25.106   3.906  0.00  0.00    +0.149 C 
ATOM     33  C   UNL     1     -46.972  24.051   3.089  0.00  0.00    +0.031 C 
BRANCH  32  35
ATOM     34  O   UNL     1     -45.595  26.546   6.342  0.00  0.00    -0.275 OA
ATOM     35  N   UNL     1     -47.150  25.818   4.768  0.00  0.00    -0.298 N 
ATOM     36  C   UNL     1     -46.746  26.480   5.919  0.00  0.00    +0.223 C 
ATOM     37  C   UNL     1     -47.889  27.162   6.621  0.00  0.00    +0.095 C 
ATOM     38  H   UNL     1     -48.105  25.835   4.531  0.00  0.00    +0.150 HD
ENDBRANCH  32  35
ENDBRANCH  30  32
ENDBRANCH  26  29
ENDBRANCH   7  26
TORSDOF 9
ENDMDL
MODEL 7
REMARK VINA RESULT:      -6.8      4.630      8.770
REMARK  Name = 5492677
REMARK  9 active torsions:
REMARK  status: ('A' for Active; 'I' for Inactive)
REMARK    1  A    between atoms: C_3  and  C_11
REMARK    2  A    between atoms: C_7  and  C_26
REMARK    3  A    between atoms: C_12  and  C_14
REMARK    4  A    between atoms: C_14  and  N_15
REMARK    5  A    between atoms: C_14  and  C_19
REMARK    6  A    between atoms: C_19  and  C_20
REMARK    7  A    between atoms: C_26  and  N_29
REMARK    8  A    between atoms: C_30  and  C_32
REMARK    9  A    between atoms: C_32  and  N_35
REMARK                            x       y       z     vdW  Elec       q    Type
REMARK                         _______ _______ _______ _____ _____    ______ ____
ROOT
ATOM      1  O   UNL     1     -34.775  28.948   3.625  0.00  0.00    -0.273 OA
ATOM      2  N   UNL     1     -34.394  27.303   2.041  0.00  0.00    -0.272 N 
ATOM      3  C   UNL     1     -35.128  27.943   0.957  0.00  0.00    +0.152 C 
ATOM      4  C   UNL     1     -34.692  27.198  -0.299  0.00  0.00    +0.031 C 
ATOM      5  C   UNL     1     -34.354  25.800   0.217  0.00  0.00    +0.024 C 
ATOM      6  C   UNL     1     -33.755  26.070   1.590  0.00  0.00    +0.094 C 
ATOM      7  C   UNL     1     -34.219  27.905   3.278  0.00  0.00    +0.244 C 
ENDROOT
BRANCH   3  11
ATOM      8  O   UNL     1     -37.441  28.517   0.800  0.00  0.00    -0.273 OA
ATOM      9  O   UNL     1     -39.141  26.759   2.190  0.00  0.00    -0.277 OA
ATOM     10  N   UNL     1     -36.820  26.632   2.034  0.00  0.00    -0.256 N 
ATOM     11  C   UNL     1     -36.587  27.752   1.239  0.00  0.00    +0.246 C 
ATOM     12  C   UNL     1     -38.079  26.205   2.461  0.00  0.00    +0.208 C 
ATOM     13  H   UNL     1     -36.038  26.104   2.317  0.00  0.00    +0.157 HD
BRANCH  12  14
ATOM     14  C   UNL     1     -37.996  24.963   3.349  0.00  0.00    +0.021 C 
BRANCH  14  15
ATOM     15  N   UNL     1     -39.343  24.397   3.442  0.00  0.00    +0.390 N 
ATOM     16  C   UNL     1     -39.567  23.429   2.380  0.00  0.00    -0.105 C 
ATOM     17  H   UNL     1     -40.028  25.147   3.362  0.00  0.00    -0.084 HD
ATOM     18  H   UNL     1     -39.438  23.924   4.341  0.00  0.00    -0.084 HD
ENDBRANCH  14  15
BRANCH  14  19
ATOM     19  C   UNL     1     -37.038  23.923   2.749  0.00  0.00    +0.014 C 
BRANCH  19  20
ATOM     20  C   UNL     1     -36.308  23.116   3.798  0.00  0.00    -0.024 C 
ATOM     21  C   UNL     1     -35.778  21.867   3.471  0.00  0.00    -0.004 C 
ATOM     22  C   UNL     1     -36.164  23.619   5.090  0.00  0.00    -0.004 C 
ATOM     23  C   UNL     1     -35.104  21.122   4.439  0.00  0.00    -0.000 C 
ATOM     24  C   UNL     1     -35.490  22.873   6.058  0.00  0.00    -0.000 C 
ATOM     25  C   UNL     1     -34.961  21.625   5.732  0.00  0.00    -0.000 C 
ENDBRANCH  19  20
ENDBRANCH  14  19
ENDBRANCH  12  14
ENDBRANCH   3  11
BRANCH   7  26
ATOM     26  C   UNL     1     -33.288  27.187   4.223  0.00  0.00    +0.149 C 
ATOM     27  C   UNL     1     -34.056  26.243   5.117  0.00  0.00    +0.031 C 
BRANCH  26  29
ATOM     28  O   UNL     1     -32.269  27.035   6.909  0.00  0.00    -0.273 OA
ATOM     29  N   UNL     1     -32.650  28.237   4.959  0.00  0.00    -0.297 N 
ATOM     30  C   UNL     1     -32.183  28.078   6.263  0.00  0.00    +0.241 C 
ATOM     31  H   UNL     1     -32.535  29.113   4.523  0.00  0.00    +0.150 HD
BRANCH  30  32
ATOM     32  C   UNL     1     -31.504  29.333   6.798  0.00  0.00    +0.149 C 
ATOM     33  C   UNL     1     -31.519  30.442   5.758  0.00  0.00    +0.031 C 
BRANCH  32  35
ATOM     34  O   UNL     1     -29.520  27.965   5.179  0.00  0.00    -0.275 OA
ATOM     35  N   UNL     1     -30.160  28.985   7.173  0.00  0.00    -0.298 N 
ATOM     36  C   UNL     1     -29.278  28.327   6.328  0.00  0.00    +0.223 C 
ATOM     37  C   UNL     1     -27.930  28.108   6.961  0.00  0.00    +0.095 C 
ATOM     38  H   UNL     1     -29.850  29.224   8.076  0.00  0.00    +0.150 HD
ENDBRANCH  32  35
ENDBRANCH  30  32
ENDBRANCH  26  29
ENDBRANCH   7  26
TORSDOF 9
ENDMDL
MODEL 8
REMARK VINA RESULT:      -6.8      6.424      9.612
REMARK  Name = 5492677
REMARK  9 active torsions:
REMARK  status: ('A' for Active; 'I' for Inactive)
REMARK    1  A    between atoms: C_3  and  C_11
REMARK    2  A    between atoms: C_7  and  C_26
REMARK    3  A    between atoms: C_12  and  C_14
REMARK    4  A    between atoms: C_14  and  N_15
REMARK    5  A    between atoms: C_14  and  C_19
REMARK    6  A    between atoms: C_19  and  C_20
REMARK    7  A    between atoms: C_26  and  N_29
REMARK    8  A    between atoms: C_30  and  C_32
REMARK    9  A    between atoms: C_32  and  N_35
REMARK                            x       y       z     vdW  Elec       q    Type
REMARK                         _______ _______ _______ _____ _____    ______ ____
ROOT
ATOM      1  O   UNL     1     -33.864  24.497   1.807  0.00  0.00    -0.273 OA
ATOM      2  N   UNL     1     -34.887  25.216   3.755  0.00  0.00    -0.272 N 
ATOM      3  C   UNL     1     -35.052  23.897   4.353  0.00  0.00    +0.152 C 
ATOM      4  C   UNL     1     -35.377  24.173   5.816  0.00  0.00    +0.031 C 
ATOM      5  C   UNL     1     -36.073  25.532   5.775  0.00  0.00    +0.024 C 
ATOM      6  C   UNL     1     -35.340  26.267   4.663  0.00  0.00    +0.094 C 
ATOM      7  C   UNL     1     -34.233  25.410   2.548  0.00  0.00    +0.244 C 
ENDROOT
BRANCH   3  11
ATOM      8  O   UNL     1     -37.334  23.686   3.678  0.00  0.00    -0.273 OA
ATOM      9  O   UNL     1     -37.838  21.431   2.074  0.00  0.00    -0.277 OA
ATOM     10  N   UNL     1     -35.790  22.078   2.978  0.00  0.00    -0.256 N 
ATOM     11  C   UNL     1     -36.194  23.232   3.645  0.00  0.00    +0.246 C 
ATOM     12  C   UNL     1     -36.633  21.250   2.235  0.00  0.00    +0.208 C 
ATOM     13  H   UNL     1     -34.839  21.829   3.035  0.00  0.00    +0.157 HD
BRANCH  12  14
ATOM     14  C   UNL     1     -35.893  20.045   1.653  0.00  0.00    +0.021 C 
BRANCH  14  15
ATOM     15  N   UNL     1     -36.900  19.098   1.173  0.00  0.00    +0.390 N 
ATOM     16  C   UNL     1     -36.892  19.034  -0.280  0.00  0.00    -0.105 C 
ATOM     17  H   UNL     1     -37.821  19.398   1.490  0.00  0.00    -0.084 HD
ATOM     18  H   UNL     1     -36.682  18.172   1.543  0.00  0.00    -0.084 HD
ENDBRANCH  14  15
BRANCH  14  19
ATOM     19  C   UNL     1     -34.984  20.470   0.488  0.00  0.00    +0.014 C 
BRANCH  19  20
ATOM     20  C   UNL     1     -33.607  19.852   0.557  0.00  0.00    -0.024 C 
ATOM     21  C   UNL     1     -32.528  20.488  -0.058  0.00  0.00    -0.004 C 
ATOM     22  C   UNL     1     -33.415  18.649   1.233  0.00  0.00    -0.004 C 
ATOM     23  C   UNL     1     -31.257  19.918   0.004  0.00  0.00    -0.000 C 
ATOM     24  C   UNL     1     -32.142  18.079   1.296  0.00  0.00    -0.000 C 
ATOM     25  C   UNL     1     -31.064  18.715   0.681  0.00  0.00    -0.000 C 
ENDBRANCH  19  20
ENDBRANCH  14  19
ENDBRANCH  12  14
ENDBRANCH   3  11
BRANCH   7  26
ATOM     26  C   UNL     1     -33.995  26.848   2.162  0.00  0.00    +0.149 C 
ATOM     27  C   UNL     1     -33.869  26.986   0.663  0.00  0.00    +0.031 C 
BRANCH  26  29
ATOM     28  O   UNL     1     -33.532  29.221   3.723  0.00  0.00    -0.273 OA
ATOM     29  N   UNL     1     -32.787  27.204   2.845  0.00  0.00    -0.297 N 
ATOM     30  C   UNL     1     -32.647  28.379   3.583  0.00  0.00    +0.241 C 
ATOM     31  H   UNL     1     -32.019  26.590   2.792  0.00  0.00    +0.150 HD
BRANCH  30  32
ATOM     32  C   UNL     1     -31.281  28.493   4.246  0.00  0.00    +0.149 C 
ATOM     33  C   UNL     1     -31.207  29.730   5.128  0.00  0.00    +0.031 C 
BRANCH  32  35
ATOM     34  O   UNL     1     -28.752  27.068   4.180  0.00  0.00    -0.275 OA
ATOM     35  N   UNL     1     -30.285  28.529   3.209  0.00  0.00    -0.298 N 
ATOM     36  C   UNL     1     -29.099  27.810   3.264  0.00  0.00    +0.223 C 
ATOM     37  C   UNL     1     -28.248  28.008   2.039  0.00  0.00    +0.095 C 
ATOM     38  H   UNL     1     -30.452  29.093   2.420  0.00  0.00    +0.150 HD
ENDBRANCH  32  35
ENDBRANCH  30  32
ENDBRANCH  26  29
ENDBRANCH   7  26
TORSDOF 9
ENDMDL
MODEL 9
REMARK VINA RESULT:      -6.8      6.371      8.796
REMARK  Name = 5492677
REMARK  9 active torsions:
REMARK  status: ('A' for Active; 'I' for Inactive)
REMARK    1  A    between atoms: C_3  and  C_11
REMARK    2  A    between atoms: C_7  and  C_26
REMARK    3  A    between atoms: C_12  and  C_14
REMARK    4  A    between atoms: C_14  and  N_15
REMARK    5  A    between atoms: C_14  and  C_19
REMARK    6  A    between atoms: C_19  and  C_20
REMARK    7  A    between atoms: C_26  and  N_29
REMARK    8  A    between atoms: C_30  and  C_32
REMARK    9  A    between atoms: C_32  and  N_35
REMARK                            x       y       z     vdW  Elec       q    Type
REMARK                         _______ _______ _______ _____ _____    ______ ____
ROOT
ATOM      1  O   UNL     1     -34.538  24.749   2.957  0.00  0.00    -0.273 OA
ATOM      2  N   UNL     1     -35.059  23.473   4.816  0.00  0.00    -0.272 N 
ATOM      3  C   UNL     1     -34.996  22.178   4.153  0.00  0.00    +0.152 C 
ATOM      4  C   UNL     1     -34.946  21.162   5.288  0.00  0.00    +0.031 C 
ATOM      5  C   UNL     1     -35.698  21.859   6.421  0.00  0.00    +0.024 C 
ATOM      6  C   UNL     1     -35.315  23.321   6.246  0.00  0.00    +0.094 C 
ATOM      7  C   UNL     1     -34.749  24.658   4.167  0.00  0.00    +0.244 C 
ENDROOT
BRANCH   3  11
ATOM      8  O   UNL     1     -37.213  22.779   3.495  0.00  0.00    -0.273 OA
ATOM      9  O   UNL     1     -38.259  21.175   1.435  0.00  0.00    -0.277 OA
ATOM     10  N   UNL     1     -36.154  20.996   2.418  0.00  0.00    -0.256 N 
ATOM     11  C   UNL     1     -36.247  22.039   3.337  0.00  0.00    +0.246 C 
ATOM     12  C   UNL     1     -37.162  20.628   1.525  0.00  0.00    +0.208 C 
ATOM     13  H   UNL     1     -35.315  20.480   2.398  0.00  0.00    +0.157 HD
BRANCH  12  14
ATOM     14  C   UNL     1     -36.766  19.423   0.672  0.00  0.00    +0.021 C 
BRANCH  14  15
ATOM     15  N   UNL     1     -37.966  18.964  -0.028  0.00  0.00    +0.390 N 
ATOM     16  C   UNL     1     -37.742  17.659  -0.629  0.00  0.00    -0.105 C 
ATOM     17  H   UNL     1     -38.205  19.633  -0.759  0.00  0.00    -0.084 HD
ATOM     18  H   UNL     1     -38.729  18.888   0.645  0.00  0.00    -0.084 HD
ENDBRANCH  14  15
BRANCH  14  19
ATOM     19  C   UNL     1     -35.686  19.808  -0.352  0.00  0.00    +0.014 C 
BRANCH  19  20
ATOM     20  C   UNL     1     -34.299  19.370   0.058  0.00  0.00    -0.024 C 
ATOM     21  C   UNL     1     -33.249  20.289   0.054  0.00  0.00    -0.004 C 
ATOM     22  C   UNL     1     -34.069  18.049   0.441  0.00  0.00    -0.004 C 
ATOM     23  C   UNL     1     -31.969  19.885   0.432  0.00  0.00    -0.000 C 
ATOM     24  C   UNL     1     -32.788  17.646   0.820  0.00  0.00    -0.000 C 
ATOM     25  C   UNL     1     -31.738  18.564   0.815  0.00  0.00    -0.000 C 
ENDBRANCH  19  20
ENDBRANCH  14  19
ENDBRANCH  12  14
ENDBRANCH   3  11
BRANCH   7  26
ATOM     26  C   UNL     1     -34.693  25.884   5.044  0.00  0.00    +0.149 C 
ATOM     27  C   UNL     1     -36.069  26.241   5.554  0.00  0.00    +0.031 C 
BRANCH  26  29
ATOM     28  O   UNL     1     -32.668  27.802   5.750  0.00  0.00    -0.273 OA
ATOM     29  N   UNL     1     -34.143  26.901   4.200  0.00  0.00    -0.297 N 
ATOM     30  C   UNL     1     -33.159  27.794   4.623  0.00  0.00    +0.241 C 
ATOM     31  H   UNL     1     -34.475  26.973   3.275  0.00  0.00    +0.150 HD
BRANCH  30  32
ATOM     32  C   UNL     1     -32.716  28.743   3.517  0.00  0.00    +0.149 C 
ATOM     33  C   UNL     1     -31.302  29.244   3.766  0.00  0.00    +0.031 C 
BRANCH  32  35
ATOM     34  O   UNL     1     -35.132  28.905   1.916  0.00  0.00    -0.275 OA
ATOM     35  N   UNL     1     -33.655  29.830   3.461  0.00  0.00    -0.298 N 
ATOM     36  C   UNL     1     -34.789  29.819   2.661  0.00  0.00    +0.223 C 
ATOM     37  C   UNL     1     -35.612  31.070   2.812  0.00  0.00    +0.095 C 
ATOM     38  H   UNL     1     -33.485  30.624   4.018  0.00  0.00    +0.150 HD
ENDBRANCH  32  35
ENDBRANCH  30  32
ENDBRANCH  26  29
ENDBRANCH   7  26
TORSDOF 9
ENDMDL
