MODEL 1
REMARK VINA RESULT:      -5.0      0.000      0.000
REMARK  Name = 54679073
REMARK  9 active torsions:
REMARK  status: ('A' for Active; 'I' for Inactive)
REMARK    1  A    between atoms: C_3  and  C_16
REMARK    2  A    between atoms: C_4  and  O_7
REMARK    3  A    between atoms: C_5  and  O_9
REMARK    4  A    between atoms: O_9  and  P_10
REMARK    5  A    between atoms: P_10  and  O_12
REMARK    6  A    between atoms: P_10  and  O_14
REMARK    7  A    between atoms: C_16  and  O_17
REMARK    8  A    between atoms: C_16  and  C_19
REMARK    9  A    between atoms: C_19  and  O_20
REMARK                            x       y       z     vdW  Elec       q    Type
REMARK                         _______ _______ _______ _____ _____    ______ ____
ROOT
ATOM      1  O   UNL     1     -36.203  21.949   4.655  0.00  0.00    -0.436 OA
ATOM      2  O   UNL     1     -35.176  22.497   6.647  0.00  0.00    -0.241 OA
ATOM      3  C   UNL     1     -36.695  22.686   3.517  0.00  0.00    +0.257 C 
ATOM      4  C   UNL     1     -36.416  24.088   3.888  0.00  0.00    +0.195 C 
ATOM      5  C   UNL     1     -35.829  24.177   5.077  0.00  0.00    +0.257 C 
ATOM      6  C   UNL     1     -35.678  22.811   5.582  0.00  0.00    +0.379 C 
ENDROOT
BRANCH   4   7
ATOM      7  O   UNL     1     -36.768  25.131   3.083  0.00  0.00    -0.504 OA
ATOM      8  H   UNL     1     -36.109  25.599   2.609  0.00  0.00    +0.292 HD
ENDBRANCH   4   7
BRANCH   5   9
ATOM      9  O   UNL     1     -35.436  25.294   5.742  0.00  0.00    -0.393 OA
BRANCH   9  10
ATOM     10  P   UNL     1     -34.146  26.168   5.318  0.00  0.00    +0.528 P 
ATOM     11  O   UNL     1     -33.404  26.834   6.440  0.00  0.00    -0.216 OA
BRANCH  10  12
ATOM     12  O   UNL     1     -34.738  27.189   4.212  0.00  0.00    -0.293 OA
ATOM     13  H   UNL     1     -34.686  28.098   4.551  0.00  0.00    +0.223 HD
ENDBRANCH  10  12
BRANCH  10  14
ATOM     14  O   UNL     1     -33.256  25.153   4.426  0.00  0.00    -0.293 OA
ATOM     15  H   UNL     1     -32.317  25.269   4.644  0.00  0.00    +0.223 HD
ENDBRANCH  10  14
ENDBRANCH   9  10
ENDBRANCH   5   9
BRANCH   3  16
ATOM     16  C   UNL     1     -35.955  22.215   2.276  0.00  0.00    +0.187 C 
BRANCH  16  17
ATOM     17  O   UNL     1     -34.821  23.056   2.067  0.00  0.00    -0.378 OA
ATOM     18  H   UNL     1     -34.896  23.845   2.624  0.00  0.00    +0.211 HD
ENDBRANCH  16  17
BRANCH  16  19
ATOM     19  C   UNL     1     -35.465  20.780   2.429  0.00  0.00    +0.171 C 
BRANCH  19  20
ATOM     20  O   UNL     1     -36.586  19.931   2.651  0.00  0.00    -0.379 OA
ATOM     21  H   UNL     1     -37.006  19.721   1.801  0.00  0.00    +0.211 HD
ENDBRANCH  19  20
ENDBRANCH  16  19
ENDBRANCH   3  16
TORSDOF 9
ENDMDL
MODEL 2
REMARK VINA RESULT:      -4.9      2.299      5.049
REMARK  Name = 54679073
REMARK  9 active torsions:
REMARK  status: ('A' for Active; 'I' for Inactive)
REMARK    1  A    between atoms: C_3  and  C_16
REMARK    2  A    between atoms: C_4  and  O_7
REMARK    3  A    between atoms: C_5  and  O_9
REMARK    4  A    between atoms: O_9  and  P_10
REMARK    5  A    between atoms: P_10  and  O_12
REMARK    6  A    between atoms: P_10  and  O_14
REMARK    7  A    between atoms: C_16  and  O_17
REMARK    8  A    between atoms: C_16  and  C_19
REMARK    9  A    between atoms: C_19  and  O_20
REMARK                            x       y       z     vdW  Elec       q    Type
REMARK                         _______ _______ _______ _____ _____    ______ ____
ROOT
ATOM      1  O   UNL     1     -34.469  23.963   5.452  0.00  0.00    -0.436 OA
ATOM      2  O   UNL     1     -36.003  22.375   6.117  0.00  0.00    -0.241 OA
ATOM      3  C   UNL     1     -34.286  24.788   4.282  0.00  0.00    +0.257 C 
ATOM      4  C   UNL     1     -35.408  24.380   3.414  0.00  0.00    +0.195 C 
ATOM      5  C   UNL     1     -36.163  23.449   3.988  0.00  0.00    +0.257 C 
ATOM      6  C   UNL     1     -35.578  23.174   5.301  0.00  0.00    +0.379 C 
ENDROOT
BRANCH   4   7
ATOM      7  O   UNL     1     -35.584  24.905   2.168  0.00  0.00    -0.504 OA
ATOM      8  H   UNL     1     -36.449  25.028   1.830  0.00  0.00    +0.292 HD
ENDBRANCH   4   7
BRANCH   5   9
ATOM      9  O   UNL     1     -37.266  22.833   3.489  0.00  0.00    -0.393 OA
BRANCH   9  10
ATOM     10  P   UNL     1     -37.204  21.707   2.333  0.00  0.00    +0.528 P 
ATOM     11  O   UNL     1     -36.703  22.166   0.994  0.00  0.00    -0.216 OA
BRANCH  10  12
ATOM     12  O   UNL     1     -38.709  21.114   2.313  0.00  0.00    -0.293 OA
ATOM     13  H   UNL     1     -39.166  21.366   3.132  0.00  0.00    +0.223 HD
ENDBRANCH  10  12
BRANCH  10  14
ATOM     14  O   UNL     1     -36.353  20.503   2.997  0.00  0.00    -0.293 OA
ATOM     15  H   UNL     1     -36.914  19.715   3.076  0.00  0.00    +0.223 HD
ENDBRANCH  10  14
ENDBRANCH   9  10
ENDBRANCH   5   9
BRANCH   3  16
ATOM     16  C   UNL     1     -34.330  26.247   4.705  0.00  0.00    +0.187 C 
BRANCH  16  17
ATOM     17  O   UNL     1     -35.689  26.680   4.733  0.00  0.00    -0.378 OA
ATOM     18  H   UNL     1     -36.274  25.907   4.747  0.00  0.00    +0.211 HD
ENDBRANCH  16  17
BRANCH  16  19
ATOM     19  C   UNL     1     -33.735  26.445   6.094  0.00  0.00    +0.171 C 
BRANCH  19  20
ATOM     20  O   UNL     1     -32.876  27.580   6.072  0.00  0.00    -0.379 OA
ATOM     21  H   UNL     1     -32.443  27.640   5.206  0.00  0.00    +0.211 HD
ENDBRANCH  19  20
ENDBRANCH  16  19
ENDBRANCH   3  16
TORSDOF 9
ENDMDL
MODEL 3
REMARK VINA RESULT:      -4.9      2.140      5.149
REMARK  Name = 54679073
REMARK  9 active torsions:
REMARK  status: ('A' for Active; 'I' for Inactive)
REMARK    1  A    between atoms: C_3  and  C_16
REMARK    2  A    between atoms: C_4  and  O_7
REMARK    3  A    between atoms: C_5  and  O_9
REMARK    4  A    between atoms: O_9  and  P_10
REMARK    5  A    between atoms: P_10  and  O_12
REMARK    6  A    between atoms: P_10  and  O_14
REMARK    7  A    between atoms: C_16  and  O_17
REMARK    8  A    between atoms: C_16  and  C_19
REMARK    9  A    between atoms: C_19  and  O_20
REMARK                            x       y       z     vdW  Elec       q    Type
REMARK                         _______ _______ _______ _____ _____    ______ ____
ROOT
ATOM      1  O   UNL     1     -36.466  25.810   3.276  0.00  0.00    -0.436 OA
ATOM      2  O   UNL     1     -37.269  24.630   1.465  0.00  0.00    -0.241 OA
ATOM      3  C   UNL     1     -36.019  25.472   4.606  0.00  0.00    +0.257 C 
ATOM      4  C   UNL     1     -36.203  24.008   4.652  0.00  0.00    +0.195 C 
ATOM      5  C   UNL     1     -36.683  23.534   3.507  0.00  0.00    +0.257 C 
ATOM      6  C   UNL     1     -36.852  24.678   2.609  0.00  0.00    +0.379 C 
ENDROOT
BRANCH   4   7
ATOM      7  O   UNL     1     -35.927  23.281   5.772  0.00  0.00    -0.504 OA
ATOM      8  H   UNL     1     -36.514  23.304   6.501  0.00  0.00    +0.292 HD
ENDBRANCH   4   7
BRANCH   5   9
ATOM      9  O   UNL     1     -36.985  22.249   3.186  0.00  0.00    -0.393 OA
BRANCH   9  10
ATOM     10  P   UNL     1     -35.864  21.131   2.867  0.00  0.00    +0.528 P 
ATOM     11  O   UNL     1     -34.844  21.500   1.829  0.00  0.00    -0.216 OA
BRANCH  10  12
ATOM     12  O   UNL     1     -36.741  19.822   2.503  0.00  0.00    -0.293 OA
ATOM     13  H   UNL     1     -37.429  20.062   1.861  0.00  0.00    +0.223 HD
ENDBRANCH  10  12
BRANCH  10  14
ATOM     14  O   UNL     1     -35.250  20.759   4.317  0.00  0.00    -0.293 OA
ATOM     15  H   UNL     1     -35.973  20.558   4.932  0.00  0.00    +0.223 HD
ENDBRANCH  10  14
ENDBRANCH   9  10
ENDBRANCH   5   9
BRANCH   3  16
ATOM     16  C   UNL     1     -34.575  25.920   4.761  0.00  0.00    +0.187 C 
BRANCH  16  17
ATOM     17  O   UNL     1     -33.722  24.784   4.630  0.00  0.00    -0.378 OA
ATOM     18  H   UNL     1     -32.804  25.079   4.529  0.00  0.00    +0.211 HD
ENDBRANCH  16  17
BRANCH  16  19
ATOM     19  C   UNL     1     -34.187  26.936   3.693  0.00  0.00    +0.171 C 
BRANCH  19  20
ATOM     20  O   UNL     1     -35.014  28.087   3.828  0.00  0.00    -0.379 OA
ATOM     21  H   UNL     1     -34.664  28.655   4.533  0.00  0.00    +0.211 HD
ENDBRANCH  19  20
ENDBRANCH  16  19
ENDBRANCH   3  16
TORSDOF 9
ENDMDL
MODEL 4
REMARK VINA RESULT:      -4.9      2.259      4.550
REMARK  Name = 54679073
REMARK  9 active torsions:
REMARK  status: ('A' for Active; 'I' for Inactive)
REMARK    1  A    between atoms: C_3  and  C_16
REMARK    2  A    between atoms: C_4  and  O_7
REMARK    3  A    between atoms: C_5  and  O_9
REMARK    4  A    between atoms: O_9  and  P_10
REMARK    5  A    between atoms: P_10  and  O_12
REMARK    6  A    between atoms: P_10  and  O_14
REMARK    7  A    between atoms: C_16  and  O_17
REMARK    8  A    between atoms: C_16  and  C_19
REMARK    9  A    between atoms: C_19  and  O_20
REMARK                            x       y       z     vdW  Elec       q    Type
REMARK                         _______ _______ _______ _____ _____    ______ ____
ROOT
ATOM      1  O   UNL     1     -35.462  24.260   5.949  0.00  0.00    -0.436 OA
ATOM      2  O   UNL     1     -35.991  22.041   6.282  0.00  0.00    -0.241 OA
ATOM      3  C   UNL     1     -35.014  25.053   4.830  0.00  0.00    +0.257 C 
ATOM      4  C   UNL     1     -34.906  24.057   3.745  0.00  0.00    +0.195 C 
ATOM      5  C   UNL     1     -35.250  22.840   4.155  0.00  0.00    +0.257 C 
ATOM      6  C   UNL     1     -35.617  22.954   5.568  0.00  0.00    +0.379 C 
ENDROOT
BRANCH   4   7
ATOM      7  O   UNL     1     -34.469  24.393   2.498  0.00  0.00    -0.504 OA
ATOM      8  H   UNL     1     -33.673  24.877   2.396  0.00  0.00    +0.292 HD
ENDBRANCH   4   7
BRANCH   5   9
ATOM      9  O   UNL     1     -35.265  21.684   3.444  0.00  0.00    -0.393 OA
BRANCH   9  10
ATOM     10  P   UNL     1     -36.395  21.337   2.343  0.00  0.00    +0.528 P 
ATOM     11  O   UNL     1     -36.036  21.631   0.916  0.00  0.00    -0.216 OA
BRANCH  10  12
ATOM     12  O   UNL     1     -37.694  22.139   2.881  0.00  0.00    -0.293 OA
ATOM     13  H   UNL     1     -38.239  22.413   2.127  0.00  0.00    +0.223 HD
ENDBRANCH  10  12
BRANCH  10  14
ATOM     14  O   UNL     1     -36.779  19.794   2.641  0.00  0.00    -0.293 OA
ATOM     15  H   UNL     1     -36.148  19.421   3.278  0.00  0.00    +0.223 HD
ENDBRANCH  10  14
ENDBRANCH   9  10
ENDBRANCH   5   9
BRANCH   3  16
ATOM     16  C   UNL     1     -36.039  26.145   4.567  0.00  0.00    +0.187 C 
BRANCH  16  17
ATOM     17  O   UNL     1     -35.379  27.267   3.983  0.00  0.00    -0.378 OA
ATOM     18  H   UNL     1     -35.698  28.082   4.399  0.00  0.00    +0.211 HD
ENDBRANCH  16  17
BRANCH  16  19
ATOM     19  C   UNL     1     -37.124  25.673   3.606  0.00  0.00    +0.171 C 
BRANCH  19  20
ATOM     20  O   UNL     1     -38.095  24.929   4.335  0.00  0.00    -0.379 OA
ATOM     21  H   UNL     1     -38.922  25.435   4.380  0.00  0.00    +0.211 HD
ENDBRANCH  19  20
ENDBRANCH  16  19
ENDBRANCH   3  16
TORSDOF 9
ENDMDL
MODEL 5
REMARK VINA RESULT:      -4.9      2.306      5.128
REMARK  Name = 54679073
REMARK  9 active torsions:
REMARK  status: ('A' for Active; 'I' for Inactive)
REMARK    1  A    between atoms: C_3  and  C_16
REMARK    2  A    between atoms: C_4  and  O_7
REMARK    3  A    between atoms: C_5  and  O_9
REMARK    4  A    between atoms: O_9  and  P_10
REMARK    5  A    between atoms: P_10  and  O_12
REMARK    6  A    between atoms: P_10  and  O_14
REMARK    7  A    between atoms: C_16  and  O_17
REMARK    8  A    between atoms: C_16  and  C_19
REMARK    9  A    between atoms: C_19  and  O_20
REMARK                            x       y       z     vdW  Elec       q    Type
REMARK                         _______ _______ _______ _____ _____    ______ ____
ROOT
ATOM      1  O   UNL     1     -36.777  23.876   4.328  0.00  0.00    -0.436 OA
ATOM      2  O   UNL     1     -37.372  22.682   2.446  0.00  0.00    -0.241 OA
ATOM      3  C   UNL     1     -35.861  23.675   5.423  0.00  0.00    +0.257 C 
ATOM      4  C   UNL     1     -35.273  22.355   5.123  0.00  0.00    +0.195 C 
ATOM      5  C   UNL     1     -35.762  21.841   3.999  0.00  0.00    +0.257 C 
ATOM      6  C   UNL     1     -36.725  22.808   3.470  0.00  0.00    +0.379 C 
ENDROOT
BRANCH   4   7
ATOM      7  O   UNL     1     -34.364  21.764   5.950  0.00  0.00    -0.504 OA
ATOM      8  H   UNL     1     -34.138  22.171   6.763  0.00  0.00    +0.292 HD
ENDBRANCH   4   7
BRANCH   5   9
ATOM      9  O   UNL     1     -35.465  20.650   3.417  0.00  0.00    -0.393 OA
BRANCH   9  10
ATOM     10  P   UNL     1     -35.037  20.506   1.866  0.00  0.00    +0.528 P 
ATOM     11  O   UNL     1     -34.375  21.704   1.252  0.00  0.00    -0.216 OA
BRANCH  10  12
ATOM     12  O   UNL     1     -36.414  20.062   1.143  0.00  0.00    -0.293 OA
ATOM     13  H   UNL     1     -36.268  19.993   0.186  0.00  0.00    +0.223 HD
ENDBRANCH  10  12
BRANCH  10  14
ATOM     14  O   UNL     1     -34.157  19.149   1.823  0.00  0.00    -0.293 OA
ATOM     15  H   UNL     1     -33.993  18.840   2.728  0.00  0.00    +0.223 HD
ENDBRANCH  10  14
ENDBRANCH   9  10
ENDBRANCH   5   9
BRANCH   3  16
ATOM     16  C   UNL     1     -34.854  24.814   5.429  0.00  0.00    +0.187 C 
BRANCH  16  17
ATOM     17  O   UNL     1     -33.685  24.402   4.723  0.00  0.00    -0.378 OA
ATOM     18  H   UNL     1     -33.527  25.004   3.980  0.00  0.00    +0.211 HD
ENDBRANCH  16  17
BRANCH  16  19
ATOM     19  C   UNL     1     -35.413  26.057   4.747  0.00  0.00    +0.171 C 
BRANCH  19  20
ATOM     20  O   UNL     1     -36.528  26.532   5.493  0.00  0.00    -0.379 OA
ATOM     21  H   UNL     1     -37.340  26.402   4.978  0.00  0.00    +0.211 HD
ENDBRANCH  19  20
ENDBRANCH  16  19
ENDBRANCH   3  16
TORSDOF 9
ENDMDL
MODEL 6
REMARK VINA RESULT:      -4.8      2.359      3.760
REMARK  Name = 54679073
REMARK  9 active torsions:
REMARK  status: ('A' for Active; 'I' for Inactive)
REMARK    1  A    between atoms: C_3  and  C_16
REMARK    2  A    between atoms: C_4  and  O_7
REMARK    3  A    between atoms: C_5  and  O_9
REMARK    4  A    between atoms: O_9  and  P_10
REMARK    5  A    between atoms: P_10  and  O_12
REMARK    6  A    between atoms: P_10  and  O_14
REMARK    7  A    between atoms: C_16  and  O_17
REMARK    8  A    between atoms: C_16  and  C_19
REMARK    9  A    between atoms: C_19  and  O_20
REMARK                            x       y       z     vdW  Elec       q    Type
REMARK                         _______ _______ _______ _____ _____    ______ ____
ROOT
ATOM      1  O   UNL     1     -33.796  24.420   4.780  0.00  0.00    -0.436 OA
ATOM      2  O   UNL     1     -32.853  25.568   3.017  0.00  0.00    -0.241 OA
ATOM      3  C   UNL     1     -34.986  24.567   5.582  0.00  0.00    +0.257 C 
ATOM      4  C   UNL     1     -35.610  25.783   5.025  0.00  0.00    +0.195 C 
ATOM      5  C   UNL     1     -34.897  26.289   4.023  0.00  0.00    +0.257 C 
ATOM      6  C   UNL     1     -33.731  25.421   3.848  0.00  0.00    +0.379 C 
ENDROOT
BRANCH   4   7
ATOM      7  O   UNL     1     -36.763  26.302   5.535  0.00  0.00    -0.504 OA
ATOM      8  H   UNL     1     -36.734  27.077   6.061  0.00  0.00    +0.292 HD
ENDBRANCH   4   7
BRANCH   5   9
ATOM      9  O   UNL     1     -35.153  27.397   3.282  0.00  0.00    -0.393 OA
BRANCH   9  10
ATOM     10  P   UNL     1     -36.146  27.400   2.008  0.00  0.00    +0.528 P 
ATOM     11  O   UNL     1     -35.652  26.680   0.787  0.00  0.00    -0.216 OA
BRANCH  10  12
ATOM     12  O   UNL     1     -36.448  28.973   1.778  0.00  0.00    -0.293 OA
ATOM     13  H   UNL     1     -36.442  29.167   0.826  0.00  0.00    +0.223 HD
ENDBRANCH  10  12
BRANCH  10  14
ATOM     14  O   UNL     1     -37.548  26.849   2.597  0.00  0.00    -0.293 OA
ATOM     15  H   UNL     1     -37.475  26.742   3.559  0.00  0.00    +0.223 HD
ENDBRANCH  10  14
ENDBRANCH   9  10
ENDBRANCH   5   9
BRANCH   3  16
ATOM     16  C   UNL     1     -35.833  23.313   5.429  0.00  0.00    +0.187 C 
BRANCH  16  17
ATOM     17  O   UNL     1     -36.787  23.523   4.390  0.00  0.00    -0.378 OA
ATOM     18  H   UNL     1     -36.448  24.184   3.768  0.00  0.00    +0.211 HD
ENDBRANCH  16  17
BRANCH  16  19
ATOM     19  C   UNL     1     -34.980  22.105   5.060  0.00  0.00    +0.171 C 
BRANCH  19  20
ATOM     20  O   UNL     1     -35.364  21.002   5.874  0.00  0.00    -0.379 OA
ATOM     21  H   UNL     1     -34.682  20.313   5.827  0.00  0.00    +0.211 HD
ENDBRANCH  19  20
ENDBRANCH  16  19
ENDBRANCH   3  16
TORSDOF 9
ENDMDL
MODEL 7
REMARK VINA RESULT:      -4.8      1.843      3.390
REMARK  Name = 54679073
REMARK  9 active torsions:
REMARK  status: ('A' for Active; 'I' for Inactive)
REMARK    1  A    between atoms: C_3  and  C_16
REMARK    2  A    between atoms: C_4  and  O_7
REMARK    3  A    between atoms: C_5  and  O_9
REMARK    4  A    between atoms: O_9  and  P_10
REMARK    5  A    between atoms: P_10  and  O_12
REMARK    6  A    between atoms: P_10  and  O_14
REMARK    7  A    between atoms: C_16  and  O_17
REMARK    8  A    between atoms: C_16  and  C_19
REMARK    9  A    between atoms: C_19  and  O_20
REMARK                            x       y       z     vdW  Elec       q    Type
REMARK                         _______ _______ _______ _____ _____    ______ ____
ROOT
ATOM      1  O   UNL     1     -34.837  22.363   1.311  0.00  0.00    -0.436 OA
ATOM      2  O   UNL     1     -34.536  24.649   1.258  0.00  0.00    -0.241 OA
ATOM      3  C   UNL     1     -35.282  21.409   2.297  0.00  0.00    +0.257 C 
ATOM      4  C   UNL     1     -35.541  22.254   3.479  0.00  0.00    +0.195 C 
ATOM      5  C   UNL     1     -35.296  23.537   3.232  0.00  0.00    +0.257 C 
ATOM      6  C   UNL     1     -34.848  23.626   1.841  0.00  0.00    +0.379 C 
ENDROOT
BRANCH   4   7
ATOM      7  O   UNL     1     -35.953  21.727   4.667  0.00  0.00    -0.504 OA
ATOM      8  H   UNL     1     -35.751  22.167   5.470  0.00  0.00    +0.292 HD
ENDBRANCH   4   7
BRANCH   5   9
ATOM      9  O   UNL     1     -35.412  24.595   4.075  0.00  0.00    -0.393 OA
BRANCH   9  10
ATOM     10  P   UNL     1     -36.733  25.520   4.157  0.00  0.00    +0.528 P 
ATOM     11  O   UNL     1     -38.047  24.796   4.119  0.00  0.00    -0.216 OA
BRANCH  10  12
ATOM     12  O   UNL     1     -36.520  26.576   2.949  0.00  0.00    -0.293 OA
ATOM     13  H   UNL     1     -35.613  26.919   2.977  0.00  0.00    +0.223 HD
ENDBRANCH  10  12
BRANCH  10  14
ATOM     14  O   UNL     1     -36.500  26.431   5.473  0.00  0.00    -0.293 OA
ATOM     15  H   UNL     1     -35.583  26.749   5.488  0.00  0.00    +0.223 HD
ENDBRANCH  10  14
ENDBRANCH   9  10
ENDBRANCH   5   9
BRANCH   3  16
ATOM     16  C   UNL     1     -36.514  20.697   1.763  0.00  0.00    +0.187 C 
BRANCH  16  17
ATOM     17  O   UNL     1     -36.863  19.642   2.657  0.00  0.00    -0.378 OA
ATOM     18  H   UNL     1     -36.689  19.920   3.570  0.00  0.00    +0.211 HD
ENDBRANCH  16  17
BRANCH  16  19
ATOM     19  C   UNL     1     -37.702  21.645   1.653  0.00  0.00    +0.171 C 
BRANCH  19  20
ATOM     20  O   UNL     1     -38.819  21.064   2.318  0.00  0.00    -0.379 OA
ATOM     21  H   UNL     1     -38.820  20.105   2.171  0.00  0.00    +0.211 HD
ENDBRANCH  19  20
ENDBRANCH  16  19
ENDBRANCH   3  16
TORSDOF 9
ENDMDL
MODEL 8
REMARK VINA RESULT:      -4.7      2.383      5.556
REMARK  Name = 54679073
REMARK  9 active torsions:
REMARK  status: ('A' for Active; 'I' for Inactive)
REMARK    1  A    between atoms: C_3  and  C_16
REMARK    2  A    between atoms: C_4  and  O_7
REMARK    3  A    between atoms: C_5  and  O_9
REMARK    4  A    between atoms: O_9  and  P_10
REMARK    5  A    between atoms: P_10  and  O_12
REMARK    6  A    between atoms: P_10  and  O_14
REMARK    7  A    between atoms: C_16  and  O_17
REMARK    8  A    between atoms: C_16  and  C_19
REMARK    9  A    between atoms: C_19  and  O_20
REMARK                            x       y       z     vdW  Elec       q    Type
REMARK                         _______ _______ _______ _____ _____    ______ ____
ROOT
ATOM      1  O   UNL     1     -36.307  24.559   3.079  0.00  0.00    -0.436 OA
ATOM      2  O   UNL     1     -35.807  23.999   0.898  0.00  0.00    -0.241 OA
ATOM      3  C   UNL     1     -36.264  23.878   4.349  0.00  0.00    +0.257 C 
ATOM      4  C   UNL     1     -35.790  22.528   3.983  0.00  0.00    +0.195 C 
ATOM      5  C   UNL     1     -35.570  22.420   2.676  0.00  0.00    +0.257 C 
ATOM      6  C   UNL     1     -35.891  23.718   2.080  0.00  0.00    +0.379 C 
ENDROOT
BRANCH   4   7
ATOM      7  O   UNL     1     -35.643  21.539   4.909  0.00  0.00    -0.504 OA
ATOM      8  H   UNL     1     -34.835  21.450   5.375  0.00  0.00    +0.292 HD
ENDBRANCH   4   7
BRANCH   5   9
ATOM      9  O   UNL     1     -35.142  21.336   1.980  0.00  0.00    -0.393 OA
BRANCH   9  10
ATOM     10  P   UNL     1     -36.142  20.214   1.389  0.00  0.00    +0.528 P 
ATOM     11  O   UNL     1     -37.033  20.653   0.264  0.00  0.00    -0.216 OA
BRANCH  10  12
ATOM     12  O   UNL     1     -36.933  19.694   2.701  0.00  0.00    -0.293 OA
ATOM     13  H   UNL     1     -37.690  20.276   2.873  0.00  0.00    +0.223 HD
ENDBRANCH  10  12
BRANCH  10  14
ATOM     14  O   UNL     1     -35.174  18.966   1.037  0.00  0.00    -0.293 OA
ATOM     15  H   UNL     1     -34.417  18.963   1.644  0.00  0.00    +0.223 HD
ENDBRANCH  10  14
ENDBRANCH   9  10
ENDBRANCH   5   9
BRANCH   3  16
ATOM     16  C   UNL     1     -35.324  24.633   5.274  0.00  0.00    +0.187 C 
BRANCH  16  17
ATOM     17  O   UNL     1     -33.995  24.155   5.074  0.00  0.00    -0.378 OA
ATOM     18  H   UNL     1     -33.995  23.186   5.078  0.00  0.00    +0.211 HD
ENDBRANCH  16  17
BRANCH  16  19
ATOM     19  C   UNL     1     -35.342  26.130   4.988  0.00  0.00    +0.171 C 
BRANCH  19  20
ATOM     20  O   UNL     1     -36.642  26.638   5.268  0.00  0.00    -0.379 OA
ATOM     21  H   UNL     1     -36.683  26.927   6.194  0.00  0.00    +0.211 HD
ENDBRANCH  19  20
ENDBRANCH  16  19
ENDBRANCH   3  16
TORSDOF 9
ENDMDL
MODEL 9
REMARK VINA RESULT:      -4.7      2.871      5.388
REMARK  Name = 54679073
REMARK  9 active torsions:
REMARK  status: ('A' for Active; 'I' for Inactive)
REMARK    1  A    between atoms: C_3  and  C_16
REMARK    2  A    between atoms: C_4  and  O_7
REMARK    3  A    between atoms: C_5  and  O_9
REMARK    4  A    between atoms: O_9  and  P_10
REMARK    5  A    between atoms: P_10  and  O_12
REMARK    6  A    between atoms: P_10  and  O_14
REMARK    7  A    between atoms: C_16  and  O_17
REMARK    8  A    between atoms: C_16  and  C_19
REMARK    9  A    between atoms: C_19  and  O_20
REMARK                            x       y       z     vdW  Elec       q    Type
REMARK                         _______ _______ _______ _____ _____    ______ ____
ROOT
ATOM      1  O   UNL     1     -35.445  24.795   2.479  0.00  0.00    -0.436 OA
ATOM      2  O   UNL     1     -35.499  22.638   1.666  0.00  0.00    -0.241 OA
ATOM      3  C   UNL     1     -36.338  25.623   3.252  0.00  0.00    +0.257 C 
ATOM      4  C   UNL     1     -37.502  24.741   3.467  0.00  0.00    +0.195 C 
ATOM      5  C   UNL     1     -37.326  23.547   2.908  0.00  0.00    +0.257 C 
ATOM      6  C   UNL     1     -36.007  23.563   2.274  0.00  0.00    +0.379 C 
ENDROOT
BRANCH   4   7
ATOM      7  O   UNL     1     -38.612  25.161   4.138  0.00  0.00    -0.504 OA
ATOM      8  H   UNL     1     -38.910  26.044   4.044  0.00  0.00    +0.292 HD
ENDBRANCH   4   7
BRANCH   5   9
ATOM      9  O   UNL     1     -38.179  22.490   2.892  0.00  0.00    -0.393 OA
BRANCH   9  10
ATOM     10  P   UNL     1     -39.321  22.294   1.767  0.00  0.00    +0.528 P 
ATOM     11  O   UNL     1     -38.846  22.266   0.344  0.00  0.00    -0.216 OA
BRANCH  10  12
ATOM     12  O   UNL     1     -40.372  23.479   2.096  0.00  0.00    -0.293 OA
ATOM     13  H   UNL     1     -40.419  23.612   3.056  0.00  0.00    +0.223 HD
ENDBRANCH  10  12
BRANCH  10  14
ATOM     14  O   UNL     1     -40.119  20.968   2.240  0.00  0.00    -0.293 OA
ATOM     15  H   UNL     1     -40.396  20.461   1.460  0.00  0.00    +0.223 HD
ENDBRANCH  10  14
ENDBRANCH   9  10
ENDBRANCH   5   9
BRANCH   3  16
ATOM     16  C   UNL     1     -35.631  26.036   4.533  0.00  0.00    +0.187 C 
BRANCH  16  17
ATOM     17  O   UNL     1     -36.593  26.564   5.443  0.00  0.00    -0.378 OA
ATOM     18  H   UNL     1     -36.330  26.352   6.352  0.00  0.00    +0.211 HD
ENDBRANCH  16  17
BRANCH  16  19
ATOM     19  C   UNL     1     -34.942  24.850   5.198  0.00  0.00    +0.171 C 
BRANCH  19  20
ATOM     20  O   UNL     1     -33.619  24.736   4.684  0.00  0.00    -0.379 OA
ATOM     21  H   UNL     1     -33.014  24.493   5.403  0.00  0.00    +0.211 HD
ENDBRANCH  19  20
ENDBRANCH  16  19
ENDBRANCH   3  16
TORSDOF 9
ENDMDL
