MODEL 1
REMARK VINA RESULT:      -5.2      0.000      0.000
REMARK  Name = 21140892
REMARK  14 active torsions:
REMARK  status: ('A' for Active; 'I' for Inactive)
REMARK    1  A    between atoms: C_2  and  N_7
REMARK    2  A    between atoms: C_3  and  O_15
REMARK    3  A    between atoms: C_4  and  O_19
REMARK    4  A    between atoms: C_5  and  C_27
REMARK    5  A    between atoms: C_6  and  O_23
REMARK    6  A    between atoms: N_7  and  C_9
REMARK    7  A    between atoms: N_7  and  C_12
REMARK    8  A    between atoms: C_9  and  C_11
REMARK    9  A    between atoms: C_12  and  C_14
REMARK   10  A    between atoms: O_15  and  C_17
REMARK   11  A    between atoms: O_19  and  C_21
REMARK   12  A    between atoms: O_23  and  C_25
REMARK   13  A    between atoms: C_27  and  O_28
REMARK   14  A    between atoms: O_28  and  C_30
REMARK                            x       y       z     vdW  Elec       q    Type
REMARK                         _______ _______ _______ _____ _____    ______ ____
ROOT
ATOM      1  O   UNL     1     -38.795  24.737   3.788  0.00  0.00    -0.317 OA
ATOM      2  C   UNL     1     -37.532  23.655   2.017  0.00  0.00    +0.058 C 
ATOM      3  C   UNL     1     -38.784  24.038   1.205  0.00  0.00    +0.199 C 
ATOM      4  C   UNL     1     -39.236  25.477   1.474  0.00  0.00    +0.237 C 
ATOM      5  C   UNL     1     -39.365  25.779   2.981  0.00  0.00    +0.206 C 
ATOM      6  C   UNL     1     -37.479  24.386   3.373  0.00  0.00    +0.275 C 
ENDROOT
BRANCH   2   7
ATOM      7  N   UNL     1     -36.315  23.981   1.268  0.00  0.00    +0.397 N 
ATOM      8  H   UNL     1     -36.576  24.252   0.319  0.00  0.00    -0.079 HD
BRANCH   7   9
ATOM      9  C   UNL     1     -35.620  25.103   1.893  0.00  0.00    -0.059 C 
BRANCH   9  11
ATOM     10 CL   UNL     1     -33.356  25.703   3.262  0.00  0.00    -0.116 Cl
ATOM     11  C   UNL     1     -34.120  24.848   1.901  0.00  0.00    +0.072 C 
ENDBRANCH   9  11
ENDBRANCH   7   9
BRANCH   7  12
ATOM     12  C   UNL     1     -35.440  22.813   1.188  0.00  0.00    -0.059 C 
BRANCH  12  14
ATOM     13 CL   UNL     1     -35.516  20.649   2.820  0.00  0.00    -0.116 Cl
ATOM     14  C   UNL     1     -36.236  21.547   1.463  0.00  0.00    +0.072 C 
ENDBRANCH  12  14
ENDBRANCH   7  12
ENDBRANCH   2   7
BRANCH   3  15
ATOM     15  O   UNL     1     -39.836  23.142   1.572  0.00  0.00    -0.450 OA
BRANCH  15  17
ATOM     16  O   UNL     1     -40.409  20.955   1.093  0.00  0.00    -0.250 OA
ATOM     17  C   UNL     1     -39.996  22.058   0.759  0.00  0.00    +0.317 C 
ATOM     18  C   UNL     1     -39.585  22.411  -0.639  0.00  0.00    +0.121 C 
ENDBRANCH  15  17
ENDBRANCH   3  15
BRANCH   4  19
ATOM     19  O   UNL     1     -38.303  26.387   0.888  0.00  0.00    -0.446 OA
BRANCH  19  21
ATOM     20  O   UNL     1     -39.656  28.173   0.323  0.00  0.00    -0.250 OA
ATOM     21  C   UNL     1     -38.837  27.312   0.034  0.00  0.00    +0.318 C 
ATOM     22  C   UNL     1     -38.265  27.124  -1.338  0.00  0.00    +0.121 C 
ENDBRANCH  19  21
ENDBRANCH   4  19
BRANCH   6  23
ATOM     23  O   UNL     1     -36.871  23.516   4.326  0.00  0.00    -0.426 OA
BRANCH  23  25
ATOM     24  O   UNL     1     -35.980  25.278   5.526  0.00  0.00    -0.250 OA
ATOM     25  C   UNL     1     -35.982  24.104   5.179  0.00  0.00    +0.319 C 
ATOM     26  C   UNL     1     -34.983  23.089   5.647  0.00  0.00    +0.121 C 
ENDBRANCH  23  25
ENDBRANCH   6  23
BRANCH   5  27
ATOM     27  C   UNL     1     -40.826  25.898   3.404  0.00  0.00    +0.242 C 
BRANCH  27  28
ATOM     28  O   UNL     1     -41.288  27.194   3.069  0.00  0.00    -0.446 OA
BRANCH  28  30
ATOM     29  O   UNL     1     -41.961  28.740   4.648  0.00  0.00    -0.250 OA
ATOM     30  C   UNL     1     -42.175  27.761   3.946  0.00  0.00    +0.318 C 
ATOM     31  C   UNL     1     -43.470  27.007   3.930  0.00  0.00    +0.121 C 
ENDBRANCH  28  30
ENDBRANCH  27  28
ENDBRANCH   5  27
TORSDOF 14
ENDMDL
MODEL 2
REMARK VINA RESULT:      -5.2      3.060      7.100
REMARK  Name = 21140892
REMARK  14 active torsions:
REMARK  status: ('A' for Active; 'I' for Inactive)
REMARK    1  A    between atoms: C_2  and  N_7
REMARK    2  A    between atoms: C_3  and  O_15
REMARK    3  A    between atoms: C_4  and  O_19
REMARK    4  A    between atoms: C_5  and  C_27
REMARK    5  A    between atoms: C_6  and  O_23
REMARK    6  A    between atoms: N_7  and  C_9
REMARK    7  A    between atoms: N_7  and  C_12
REMARK    8  A    between atoms: C_9  and  C_11
REMARK    9  A    between atoms: C_12  and  C_14
REMARK   10  A    between atoms: O_15  and  C_17
REMARK   11  A    between atoms: O_19  and  C_21
REMARK   12  A    between atoms: O_23  and  C_25
REMARK   13  A    between atoms: C_27  and  O_28
REMARK   14  A    between atoms: O_28  and  C_30
REMARK                            x       y       z     vdW  Elec       q    Type
REMARK                         _______ _______ _______ _____ _____    ______ ____
ROOT
ATOM      1  O   UNL     1     -37.297  21.429   2.105  0.00  0.00    -0.317 OA
ATOM      2  C   UNL     1     -37.881  23.695   2.761  0.00  0.00    +0.058 C 
ATOM      3  C   UNL     1     -36.454  23.648   3.341  0.00  0.00    +0.199 C 
ATOM      4  C   UNL     1     -35.445  23.042   2.360  0.00  0.00    +0.237 C 
ATOM      5  C   UNL     1     -35.922  21.690   1.790  0.00  0.00    +0.206 C 
ATOM      6  C   UNL     1     -38.147  22.528   1.789  0.00  0.00    +0.275 C 
ENDROOT
BRANCH   2   7
ATOM      7  N   UNL     1     -38.102  24.954   2.043  0.00  0.00    +0.397 N 
ATOM      8  H   UNL     1     -37.740  24.858   1.094  0.00  0.00    -0.079 HD
BRANCH   7   9
ATOM      9  C   UNL     1     -39.531  25.247   1.964  0.00  0.00    -0.059 C 
BRANCH   9  11
ATOM     10 CL   UNL     1     -41.479  26.457   3.413  0.00  0.00    -0.116 Cl
ATOM     11  C   UNL     1     -40.131  25.297   3.361  0.00  0.00    +0.072 C 
ENDBRANCH   9  11
ENDBRANCH   7   9
BRANCH   7  12
ATOM     12  C   UNL     1     -37.388  26.046   2.701  0.00  0.00    -0.059 C 
BRANCH  12  14
ATOM     13 CL   UNL     1     -35.526  27.980   2.317  0.00  0.00    -0.116 Cl
ATOM     14  C   UNL     1     -36.890  27.040   1.665  0.00  0.00    +0.072 C 
ENDBRANCH  12  14
ENDBRANCH   7  12
ENDBRANCH   2   7
BRANCH   3  15
ATOM     15  O   UNL     1     -36.489  22.851   4.527  0.00  0.00    -0.450 OA
BRANCH  15  17
ATOM     16  O   UNL     1     -35.020  24.251   5.631  0.00  0.00    -0.250 OA
ATOM     17  C   UNL     1     -35.557  23.163   5.474  0.00  0.00    +0.317 C 
ATOM     18  C   UNL     1     -35.272  21.957   6.317  0.00  0.00    +0.121 C 
ENDBRANCH  15  17
ENDBRANCH   3  15
BRANCH   4  19
ATOM     19  O   UNL     1     -35.219  23.955   1.284  0.00  0.00    -0.446 OA
BRANCH  19  21
ATOM     20  O   UNL     1     -33.436  25.304   1.868  0.00  0.00    -0.250 OA
ATOM     21  C   UNL     1     -33.943  24.434   1.174  0.00  0.00    +0.318 C 
ATOM     22  C   UNL     1     -33.232  23.730   0.058  0.00  0.00    +0.121 C 
ENDBRANCH  19  21
ENDBRANCH   4  19
BRANCH   6  23
ATOM     23  O   UNL     1     -39.516  22.150   1.909  0.00  0.00    -0.426 OA
BRANCH  23  25
ATOM     24  O   UNL     1     -40.922  20.749   0.726  0.00  0.00    -0.250 OA
ATOM     25  C   UNL     1     -40.090  21.646   0.777  0.00  0.00    +0.319 C 
ATOM     26  C   UNL     1     -39.549  22.358  -0.426  0.00  0.00    +0.121 C 
ENDBRANCH  23  25
ENDBRANCH   6  23
BRANCH   5  27
ATOM     27  C   UNL     1     -35.121  20.527   2.368  0.00  0.00    +0.242 C 
BRANCH  27  28
ATOM     28  O   UNL     1     -34.045  20.241   1.493  0.00  0.00    -0.446 OA
BRANCH  28  30
ATOM     29  O   UNL     1     -34.884  18.486   0.247  0.00  0.00    -0.250 OA
ATOM     30  C   UNL     1     -34.021  18.979   0.961  0.00  0.00    +0.318 C 
ATOM     31  C   UNL     1     -32.771  18.266   1.379  0.00  0.00    +0.121 C 
ENDBRANCH  28  30
ENDBRANCH  27  28
ENDBRANCH   5  27
TORSDOF 14
ENDMDL
MODEL 3
REMARK VINA RESULT:      -5.1      2.390      6.252
REMARK  Name = 21140892
REMARK  14 active torsions:
REMARK  status: ('A' for Active; 'I' for Inactive)
REMARK    1  A    between atoms: C_2  and  N_7
REMARK    2  A    between atoms: C_3  and  O_15
REMARK    3  A    between atoms: C_4  and  O_19
REMARK    4  A    between atoms: C_5  and  C_27
REMARK    5  A    between atoms: C_6  and  O_23
REMARK    6  A    between atoms: N_7  and  C_9
REMARK    7  A    between atoms: N_7  and  C_12
REMARK    8  A    between atoms: C_9  and  C_11
REMARK    9  A    between atoms: C_12  and  C_14
REMARK   10  A    between atoms: O_15  and  C_17
REMARK   11  A    between atoms: O_19  and  C_21
REMARK   12  A    between atoms: O_23  and  C_25
REMARK   13  A    between atoms: C_27  and  O_28
REMARK   14  A    between atoms: O_28  and  C_30
REMARK                            x       y       z     vdW  Elec       q    Type
REMARK                         _______ _______ _______ _____ _____    ______ ____
ROOT
ATOM      1  O   UNL     1     -37.184  25.711   3.513  0.00  0.00    -0.317 OA
ATOM      2  C   UNL     1     -36.757  23.977   1.865  0.00  0.00    +0.058 C 
ATOM      3  C   UNL     1     -35.444  23.864   2.664  0.00  0.00    +0.199 C 
ATOM      4  C   UNL     1     -35.679  23.869   4.177  0.00  0.00    +0.237 C 
ATOM      5  C   UNL     1     -36.573  25.043   4.627  0.00  0.00    +0.206 C 
ATOM      6  C   UNL     1     -37.819  24.803   2.616  0.00  0.00    +0.275 C 
ENDROOT
BRANCH   2   7
ATOM      7  N   UNL     1     -37.311  22.646   1.597  0.00  0.00    +0.397 N 
ATOM      8  H   UNL     1     -37.603  22.228   2.481  0.00  0.00    -0.079 HD
BRANCH   7   9
ATOM      9  C   UNL     1     -38.480  22.750   0.728  0.00  0.00    -0.059 C 
BRANCH   9  11
ATOM     10 CL   UNL     1     -40.685  21.439  -0.152  0.00  0.00    -0.116 Cl
ATOM     11  C   UNL     1     -39.553  21.772   1.180  0.00  0.00    +0.072 C 
ENDBRANCH   9  11
ENDBRANCH   7   9
BRANCH   7  12
ATOM     12  C   UNL     1     -36.295  21.785   0.994  0.00  0.00    -0.059 C 
BRANCH  12  14
ATOM     13 CL   UNL     1     -34.596  19.778   1.655  0.00  0.00    -0.116 Cl
ATOM     14  C   UNL     1     -36.240  20.455   1.727  0.00  0.00    +0.072 C 
ENDBRANCH  12  14
ENDBRANCH   7  12
ENDBRANCH   2   7
BRANCH   3  15
ATOM     15  O   UNL     1     -34.621  24.980   2.315  0.00  0.00    -0.450 OA
BRANCH  15  17
ATOM     16  O   UNL     1     -33.587  23.721   0.676  0.00  0.00    -0.250 OA
ATOM     17  C   UNL     1     -33.741  24.766   1.294  0.00  0.00    +0.317 C 
ATOM     18  C   UNL     1     -32.967  26.021   1.025  0.00  0.00    +0.121 C 
ENDBRANCH  15  17
ENDBRANCH   3  15
BRANCH   4  19
ATOM     19  O   UNL     1     -36.285  22.636   4.570  0.00  0.00    -0.446 OA
BRANCH  19  21
ATOM     20  O   UNL     1     -34.995  20.740   4.848  0.00  0.00    -0.250 OA
ATOM     21  C   UNL     1     -35.483  21.779   5.270  0.00  0.00    +0.318 C 
ATOM     22  C   UNL     1     -35.278  22.299   6.660  0.00  0.00    +0.121 C 
ENDBRANCH  19  21
ENDBRANCH   4  19
BRANCH   6  23
ATOM     23  O   UNL     1     -38.595  25.514   1.654  0.00  0.00    -0.426 OA
BRANCH  23  25
ATOM     24  O   UNL     1     -40.315  27.052   1.778  0.00  0.00    -0.250 OA
ATOM     25  C   UNL     1     -39.794  25.992   2.100  0.00  0.00    +0.319 C 
ATOM     26  C   UNL     1     -40.402  25.016   3.062  0.00  0.00    +0.121 C 
ENDBRANCH  23  25
ENDBRANCH   6  23
BRANCH   5  27
ATOM     27  C   UNL     1     -35.769  26.103   5.373  0.00  0.00    +0.242 C 
BRANCH  27  28
ATOM     28  O   UNL     1     -34.484  25.580   5.654  0.00  0.00    -0.446 OA
BRANCH  28  30
ATOM     29  O   UNL     1     -32.935  26.828   4.479  0.00  0.00    -0.250 OA
ATOM     30  C   UNL     1     -33.438  26.457   5.530  0.00  0.00    +0.318 C 
ATOM     31  C   UNL     1     -32.983  26.911   6.884  0.00  0.00    +0.121 C 
ENDBRANCH  28  30
ENDBRANCH  27  28
ENDBRANCH   5  27
TORSDOF 14
ENDMDL
MODEL 4
REMARK VINA RESULT:      -5.0      1.405      4.171
REMARK  Name = 21140892
REMARK  14 active torsions:
REMARK  status: ('A' for Active; 'I' for Inactive)
REMARK    1  A    between atoms: C_2  and  N_7
REMARK    2  A    between atoms: C_3  and  O_15
REMARK    3  A    between atoms: C_4  and  O_19
REMARK    4  A    between atoms: C_5  and  C_27
REMARK    5  A    between atoms: C_6  and  O_23
REMARK    6  A    between atoms: N_7  and  C_9
REMARK    7  A    between atoms: N_7  and  C_12
REMARK    8  A    between atoms: C_9  and  C_11
REMARK    9  A    between atoms: C_12  and  C_14
REMARK   10  A    between atoms: O_15  and  C_17
REMARK   11  A    between atoms: O_19  and  C_21
REMARK   12  A    between atoms: O_23  and  C_25
REMARK   13  A    between atoms: C_27  and  O_28
REMARK   14  A    between atoms: O_28  and  C_30
REMARK                            x       y       z     vdW  Elec       q    Type
REMARK                         _______ _______ _______ _____ _____    ______ ____
ROOT
ATOM      1  O   UNL     1     -38.426  26.593   2.470  0.00  0.00    -0.317 OA
ATOM      2  C   UNL     1     -36.381  25.280   2.471  0.00  0.00    +0.058 C 
ATOM      3  C   UNL     1     -37.264  24.331   3.303  0.00  0.00    +0.199 C 
ATOM      4  C   UNL     1     -38.657  24.145   2.693  0.00  0.00    +0.237 C 
ATOM      5  C   UNL     1     -39.338  25.490   2.366  0.00  0.00    +0.206 C 
ATOM      6  C   UNL     1     -37.213  26.365   1.758  0.00  0.00    +0.275 C 
ENDROOT
BRANCH   2   7
ATOM      7  N   UNL     1     -35.634  24.530   1.457  0.00  0.00    +0.397 N 
ATOM      8  H   UNL     1     -36.234  24.391   0.644  0.00  0.00    -0.079 HD
BRANCH   7   9
ATOM      9  C   UNL     1     -34.455  25.283   1.036  0.00  0.00    -0.059 C 
BRANCH   9  11
ATOM     10 CL   UNL     1     -31.906  25.924   1.705  0.00  0.00    -0.116 Cl
ATOM     11  C   UNL     1     -33.567  25.575   2.237  0.00  0.00    +0.072 C 
ENDBRANCH   9  11
ENDBRANCH   7   9
BRANCH   7  12
ATOM     12  C   UNL     1     -35.249  23.219   1.977  0.00  0.00    -0.059 C 
BRANCH  12  14
ATOM     13 CL   UNL     1     -34.560  20.651   1.444  0.00  0.00    -0.116 Cl
ATOM     14  C   UNL     1     -34.921  22.280   0.826  0.00  0.00    +0.072 C 
ENDBRANCH  12  14
ENDBRANCH   7  12
ENDBRANCH   2   7
BRANCH   3  15
ATOM     15  O   UNL     1     -37.399  24.891   4.611  0.00  0.00    -0.450 OA
BRANCH  15  17
ATOM     16  O   UNL     1     -35.848  26.394   5.436  0.00  0.00    -0.250 OA
ATOM     17  C   UNL     1     -36.231  25.251   5.220  0.00  0.00    +0.317 C 
ATOM     18  C   UNL     1     -35.461  24.023   5.599  0.00  0.00    +0.121 C 
ENDBRANCH  15  17
ENDBRANCH   3  15
BRANCH   4  19
ATOM     19  O   UNL     1     -38.554  23.365   1.500  0.00  0.00    -0.446 OA
BRANCH  19  21
ATOM     20  O   UNL     1     -40.224  21.902   2.138  0.00  0.00    -0.250 OA
ATOM     21  C   UNL     1     -39.199  22.160   1.523  0.00  0.00    +0.318 C 
ATOM     22  C   UNL     1     -38.461  21.174   0.671  0.00  0.00    +0.121 C 
ENDBRANCH  19  21
ENDBRANCH   4  19
BRANCH   6  23
ATOM     23  O   UNL     1     -36.436  27.559   1.701  0.00  0.00    -0.426 OA
BRANCH  23  25
ATOM     24  O   UNL     1     -37.166  29.622   0.959  0.00  0.00    -0.250 OA
ATOM     25  C   UNL     1     -36.816  28.467   0.755  0.00  0.00    +0.319 C 
ATOM     26  C   UNL     1     -36.746  27.839  -0.605  0.00  0.00    +0.121 C 
ENDBRANCH  23  25
ENDBRANCH   6  23
BRANCH   5  27
ATOM     27  C   UNL     1     -40.480  25.786   3.333  0.00  0.00    +0.242 C 
BRANCH  27  28
ATOM     28  O   UNL     1     -41.125  26.977   2.919  0.00  0.00    -0.446 OA
BRANCH  28  30
ATOM     29  O   UNL     1     -41.737  28.486   4.558  0.00  0.00    -0.250 OA
ATOM     30  C   UNL     1     -41.987  27.540   3.823  0.00  0.00    +0.318 C 
ATOM     31  C   UNL     1     -43.305  26.828   3.792  0.00  0.00    +0.121 C 
ENDBRANCH  28  30
ENDBRANCH  27  28
ENDBRANCH   5  27
TORSDOF 14
ENDMDL
MODEL 5
REMARK VINA RESULT:      -5.0      2.859      5.752
REMARK  Name = 21140892
REMARK  14 active torsions:
REMARK  status: ('A' for Active; 'I' for Inactive)
REMARK    1  A    between atoms: C_2  and  N_7
REMARK    2  A    between atoms: C_3  and  O_15
REMARK    3  A    between atoms: C_4  and  O_19
REMARK    4  A    between atoms: C_5  and  C_27
REMARK    5  A    between atoms: C_6  and  O_23
REMARK    6  A    between atoms: N_7  and  C_9
REMARK    7  A    between atoms: N_7  and  C_12
REMARK    8  A    between atoms: C_9  and  C_11
REMARK    9  A    between atoms: C_12  and  C_14
REMARK   10  A    between atoms: O_15  and  C_17
REMARK   11  A    between atoms: O_19  and  C_21
REMARK   12  A    between atoms: O_23  and  C_25
REMARK   13  A    between atoms: C_27  and  O_28
REMARK   14  A    between atoms: O_28  and  C_30
REMARK                            x       y       z     vdW  Elec       q    Type
REMARK                         _______ _______ _______ _____ _____    ______ ____
ROOT
ATOM      1  O   UNL     1     -35.017  24.602   4.619  0.00  0.00    -0.317 OA
ATOM      2  C   UNL     1     -36.063  24.082   2.488  0.00  0.00    +0.058 C 
ATOM      3  C   UNL     1     -35.739  25.566   2.229  0.00  0.00    +0.199 C 
ATOM      4  C   UNL     1     -34.317  25.936   2.663  0.00  0.00    +0.237 C 
ATOM      5  C   UNL     1     -34.007  25.482   4.104  0.00  0.00    +0.206 C 
ATOM      6  C   UNL     1     -35.319  23.536   3.723  0.00  0.00    +0.275 C 
ENDROOT
BRANCH   2   7
ATOM      7  N   UNL     1     -35.695  23.265   1.328  0.00  0.00    +0.397 N 
ATOM      8  H   UNL     1     -35.245  23.865   0.635  0.00  0.00    -0.079 HD
BRANCH   7   9
ATOM      9  C   UNL     1     -34.749  22.224   1.720  0.00  0.00    -0.059 C 
BRANCH   9  11
ATOM     10 CL   UNL     1     -34.045  19.606   1.636  0.00  0.00    -0.116 Cl
ATOM     11  C   UNL     1     -35.218  20.872   1.204  0.00  0.00    +0.072 C 
ENDBRANCH   9  11
ENDBRANCH   7   9
BRANCH   7  12
ATOM     12  C   UNL     1     -36.888  22.676   0.723  0.00  0.00    -0.059 C 
BRANCH  12  14
ATOM     13 CL   UNL     1     -38.986  21.565   2.034  0.00  0.00    -0.116 Cl
ATOM     14  C   UNL     1     -38.118  23.038   1.540  0.00  0.00    +0.072 C 
ENDBRANCH  12  14
ENDBRANCH   7  12
ENDBRANCH   2   7
BRANCH   3  15
ATOM     15  O   UNL     1     -36.674  26.354   2.969  0.00  0.00    -0.450 OA
BRANCH  15  17
ATOM     16  O   UNL     1     -38.983  26.337   2.908  0.00  0.00    -0.250 OA
ATOM     17  C   UNL     1     -37.894  26.524   2.383  0.00  0.00    +0.317 C 
ATOM     18  C   UNL     1     -37.714  26.984   0.967  0.00  0.00    +0.121 C 
ENDBRANCH  15  17
ENDBRANCH   3  15
BRANCH   4  19
ATOM     19  O   UNL     1     -33.375  25.342   1.767  0.00  0.00    -0.446 OA
BRANCH  19  21
ATOM     20  O   UNL     1     -31.149  25.782   2.203  0.00  0.00    -0.250 OA
ATOM     21  C   UNL     1     -32.196  26.017   1.616  0.00  0.00    +0.318 C 
ATOM     22  C   UNL     1     -32.365  27.113   0.608  0.00  0.00    +0.121 C 
ENDBRANCH  19  21
ENDBRANCH   4  19
BRANCH   6  23
ATOM     23  O   UNL     1     -36.154  22.572   4.359  0.00  0.00    -0.426 OA
BRANCH  23  25
ATOM     24  O   UNL     1     -34.988  20.622   4.777  0.00  0.00    -0.250 OA
ATOM     25  C   UNL     1     -35.511  21.663   5.150  0.00  0.00    +0.319 C 
ATOM     26  C   UNL     1     -35.534  22.129   6.575  0.00  0.00    +0.121 C 
ENDBRANCH  23  25
ENDBRANCH   6  23
BRANCH   5  27
ATOM     27  C   UNL     1     -33.943  26.668   5.062  0.00  0.00    +0.242 C 
BRANCH  27  28
ATOM     28  O   UNL     1     -33.403  27.778   4.369  0.00  0.00    -0.446 OA
BRANCH  28  30
ATOM     29  O   UNL     1     -31.534  27.778   5.728  0.00  0.00    -0.250 OA
ATOM     30  C   UNL     1     -32.135  28.153   4.730  0.00  0.00    +0.318 C 
ATOM     31  C   UNL     1     -31.569  29.101   3.717  0.00  0.00    +0.121 C 
ENDBRANCH  28  30
ENDBRANCH  27  28
ENDBRANCH   5  27
TORSDOF 14
ENDMDL
MODEL 6
REMARK VINA RESULT:      -4.9      3.100      5.580
REMARK  Name = 21140892
REMARK  14 active torsions:
REMARK  status: ('A' for Active; 'I' for Inactive)
REMARK    1  A    between atoms: C_2  and  N_7
REMARK    2  A    between atoms: C_3  and  O_15
REMARK    3  A    between atoms: C_4  and  O_19
REMARK    4  A    between atoms: C_5  and  C_27
REMARK    5  A    between atoms: C_6  and  O_23
REMARK    6  A    between atoms: N_7  and  C_9
REMARK    7  A    between atoms: N_7  and  C_12
REMARK    8  A    between atoms: C_9  and  C_11
REMARK    9  A    between atoms: C_12  and  C_14
REMARK   10  A    between atoms: O_15  and  C_17
REMARK   11  A    between atoms: O_19  and  C_21
REMARK   12  A    between atoms: O_23  and  C_25
REMARK   13  A    between atoms: C_27  and  O_28
REMARK   14  A    between atoms: O_28  and  C_30
REMARK                            x       y       z     vdW  Elec       q    Type
REMARK                         _______ _______ _______ _____ _____    ______ ____
ROOT
ATOM      1  O   UNL     1     -35.056  24.499   1.999  0.00  0.00    -0.317 OA
ATOM      2  C   UNL     1     -35.564  22.123   2.031  0.00  0.00    +0.058 C 
ATOM      3  C   UNL     1     -36.295  22.532   3.325  0.00  0.00    +0.199 C 
ATOM      4  C   UNL     1     -37.129  23.804   3.146  0.00  0.00    +0.237 C 
ATOM      5  C   UNL     1     -36.319  24.951   2.509  0.00  0.00    +0.206 C 
ATOM      6  C   UNL     1     -35.184  23.345   1.173  0.00  0.00    +0.275 C 
ENDROOT
BRANCH   2   7
ATOM      7  N   UNL     1     -36.406  21.235   1.225  0.00  0.00    +0.397 N 
ATOM      8  H   UNL     1     -37.296  21.099   1.707  0.00  0.00    -0.079 HD
BRANCH   7   9
ATOM      9  C   UNL     1     -36.676  21.837  -0.078  0.00  0.00    -0.059 C 
BRANCH   9  11
ATOM     10 CL   UNL     1     -39.117  20.825   0.531  0.00  0.00    -0.116 Cl
ATOM     11  C   UNL     1     -37.896  21.185  -0.712  0.00  0.00    +0.072 C 
ENDBRANCH   9  11
ENDBRANCH   7   9
BRANCH   7  12
ATOM     12  C   UNL     1     -35.764  19.931   1.067  0.00  0.00    -0.059 C 
BRANCH  12  14
ATOM     13 CL   UNL     1     -33.396  18.621   1.241  0.00  0.00    -0.116 Cl
ATOM     14  C   UNL     1     -34.477  19.885   1.875  0.00  0.00    +0.072 C 
ENDBRANCH  12  14
ENDBRANCH   7  12
ENDBRANCH   2   7
BRANCH   3  15
ATOM     15  O   UNL     1     -35.307  22.759   4.333  0.00  0.00    -0.450 OA
BRANCH  15  17
ATOM     16  O   UNL     1     -34.986  20.612   5.125  0.00  0.00    -0.250 OA
ATOM     17  C   UNL     1     -35.223  21.800   5.301  0.00  0.00    +0.317 C 
ATOM     18  C   UNL     1     -35.466  22.417   6.645  0.00  0.00    +0.121 C 
ENDBRANCH  15  17
ENDBRANCH   3  15
BRANCH   4  19
ATOM     19  O   UNL     1     -38.266  23.517   2.329  0.00  0.00    -0.446 OA
BRANCH  19  21
ATOM     20  O   UNL     1     -39.670  24.631   3.786  0.00  0.00    -0.250 OA
ATOM     21  C   UNL     1     -39.429  24.136   2.695  0.00  0.00    +0.318 C 
ATOM     22  C   UNL     1     -40.392  24.125   1.547  0.00  0.00    +0.121 C 
ENDBRANCH  19  21
ENDBRANCH   4  19
BRANCH   6  23
ATOM     23  O   UNL     1     -33.951  23.064   0.515  0.00  0.00    -0.426 OA
BRANCH  23  25
ATOM     24  O   UNL     1     -34.383  24.320  -1.375  0.00  0.00    -0.250 OA
ATOM     25  C   UNL     1     -33.624  23.905  -0.510  0.00  0.00    +0.319 C 
ATOM     26  C   UNL     1     -32.169  24.259  -0.429  0.00  0.00    +0.121 C 
ENDBRANCH  23  25
ENDBRANCH   6  23
BRANCH   5  27
ATOM     27  C   UNL     1     -36.005  26.044   3.526  0.00  0.00    +0.242 C 
BRANCH  27  28
ATOM     28  O   UNL     1     -34.621  26.337   3.461  0.00  0.00    -0.446 OA
BRANCH  28  30
ATOM     29  O   UNL     1     -33.324  27.757   4.740  0.00  0.00    -0.250 OA
ATOM     30  C   UNL     1     -34.044  26.775   4.624  0.00  0.00    +0.318 C 
ATOM     31  C   UNL     1     -34.420  25.872   5.759  0.00  0.00    +0.121 C 
ENDBRANCH  28  30
ENDBRANCH  27  28
ENDBRANCH   5  27
TORSDOF 14
ENDMDL
MODEL 7
REMARK VINA RESULT:      -4.9      4.354      7.526
REMARK  Name = 21140892
REMARK  14 active torsions:
REMARK  status: ('A' for Active; 'I' for Inactive)
REMARK    1  A    between atoms: C_2  and  N_7
REMARK    2  A    between atoms: C_3  and  O_15
REMARK    3  A    between atoms: C_4  and  O_19
REMARK    4  A    between atoms: C_5  and  C_27
REMARK    5  A    between atoms: C_6  and  O_23
REMARK    6  A    between atoms: N_7  and  C_9
REMARK    7  A    between atoms: N_7  and  C_12
REMARK    8  A    between atoms: C_9  and  C_11
REMARK    9  A    between atoms: C_12  and  C_14
REMARK   10  A    between atoms: O_15  and  C_17
REMARK   11  A    between atoms: O_19  and  C_21
REMARK   12  A    between atoms: O_23  and  C_25
REMARK   13  A    between atoms: C_27  and  O_28
REMARK   14  A    between atoms: O_28  and  C_30
REMARK                            x       y       z     vdW  Elec       q    Type
REMARK                         _______ _______ _______ _____ _____    ______ ____
ROOT
ATOM      1  O   UNL     1     -34.207  26.757   5.315  0.00  0.00    -0.317 OA
ATOM      2  C   UNL     1     -35.009  26.886   3.025  0.00  0.00    +0.058 C 
ATOM      3  C   UNL     1     -33.975  28.027   2.971  0.00  0.00    +0.199 C 
ATOM      4  C   UNL     1     -32.643  27.638   3.620  0.00  0.00    +0.237 C 
ATOM      5  C   UNL     1     -32.830  27.044   5.031  0.00  0.00    +0.206 C 
ATOM      6  C   UNL     1     -34.831  26.006   4.278  0.00  0.00    +0.275 C 
ENDROOT
BRANCH   2   7
ATOM      7  N   UNL     1     -34.893  26.032   1.839  0.00  0.00    +0.397 N 
ATOM      8  H   UNL     1     -34.282  26.492   1.163  0.00  0.00    -0.079 HD
BRANCH   7   9
ATOM      9  C   UNL     1     -34.300  24.746   2.196  0.00  0.00    -0.059 C 
BRANCH   9  11
ATOM     10 CL   UNL     1     -34.948  22.126   1.933  0.00  0.00    -0.116 Cl
ATOM     11  C   UNL     1     -34.660  23.699   1.153  0.00  0.00    +0.072 C 
ENDBRANCH   9  11
ENDBRANCH   7   9
BRANCH   7  12
ATOM     12  C   UNL     1     -36.204  25.841   1.221  0.00  0.00    -0.059 C 
BRANCH  12  14
ATOM     13 CL   UNL     1     -38.616  26.240   2.394  0.00  0.00    -0.116 Cl
ATOM     14  C   UNL     1     -37.153  26.943   1.665  0.00  0.00    +0.072 C 
ENDBRANCH  12  14
ENDBRANCH   7  12
ENDBRANCH   2   7
BRANCH   3  15
ATOM     15  O   UNL     1     -34.523  29.149   3.667  0.00  0.00    -0.450 OA
BRANCH  15  17
ATOM     16  O   UNL     1     -35.854  30.289   2.162  0.00  0.00    -0.250 OA
ATOM     17  C   UNL     1     -34.872  30.213   2.887  0.00  0.00    +0.317 C 
ATOM     18  C   UNL     1     -33.858  31.306   3.044  0.00  0.00    +0.121 C 
ENDBRANCH  15  17
ENDBRANCH   3  15
BRANCH   4  19
ATOM     19  O   UNL     1     -31.969  26.688   2.792  0.00  0.00    -0.446 OA
BRANCH  19  21
ATOM     20  O   UNL     1     -29.760  26.042   2.594  0.00  0.00    -0.250 OA
ATOM     21  C   UNL     1     -30.630  26.900   2.616  0.00  0.00    +0.318 C 
ATOM     22  C   UNL     1     -30.368  28.366   2.450  0.00  0.00    +0.121 C 
ENDBRANCH  19  21
ENDBRANCH   4  19
BRANCH   6  23
ATOM     23  O   UNL     1     -36.119  25.556   4.694  0.00  0.00    -0.426 OA
BRANCH  23  25
ATOM     24  O   UNL     1     -37.145  23.568   4.116  0.00  0.00    -0.250 OA
ATOM     25  C   UNL     1     -36.290  24.201   4.721  0.00  0.00    +0.319 C 
ATOM     26  C   UNL     1     -35.261  23.579   5.616  0.00  0.00    +0.121 C 
ENDBRANCH  23  25
ENDBRANCH   6  23
BRANCH   5  27
ATOM     27  C   UNL     1     -32.362  28.014   6.112  0.00  0.00    +0.242 C 
BRANCH  27  28
ATOM     28  O   UNL     1     -30.947  28.036   6.117  0.00  0.00    -0.446 OA
BRANCH  28  30
ATOM     29  O   UNL     1     -29.191  29.500   6.453  0.00  0.00    -0.250 OA
ATOM     30  C   UNL     1     -30.365  29.274   6.190  0.00  0.00    +0.318 C 
ATOM     31  C   UNL     1     -31.379  30.339   5.897  0.00  0.00    +0.121 C 
ENDBRANCH  28  30
ENDBRANCH  27  28
ENDBRANCH   5  27
TORSDOF 14
ENDMDL
MODEL 8
REMARK VINA RESULT:      -4.8      1.538      2.121
REMARK  Name = 21140892
REMARK  14 active torsions:
REMARK  status: ('A' for Active; 'I' for Inactive)
REMARK    1  A    between atoms: C_2  and  N_7
REMARK    2  A    between atoms: C_3  and  O_15
REMARK    3  A    between atoms: C_4  and  O_19
REMARK    4  A    between atoms: C_5  and  C_27
REMARK    5  A    between atoms: C_6  and  O_23
REMARK    6  A    between atoms: N_7  and  C_9
REMARK    7  A    between atoms: N_7  and  C_12
REMARK    8  A    between atoms: C_9  and  C_11
REMARK    9  A    between atoms: C_12  and  C_14
REMARK   10  A    between atoms: O_15  and  C_17
REMARK   11  A    between atoms: O_19  and  C_21
REMARK   12  A    between atoms: O_23  and  C_25
REMARK   13  A    between atoms: C_27  and  O_28
REMARK   14  A    between atoms: O_28  and  C_30
REMARK                            x       y       z     vdW  Elec       q    Type
REMARK                         _______ _______ _______ _____ _____    ______ ____
ROOT
ATOM      1  O   UNL     1     -38.537  24.340   3.706  0.00  0.00    -0.317 OA
ATOM      2  C   UNL     1     -37.374  23.140   1.942  0.00  0.00    +0.058 C 
ATOM      3  C   UNL     1     -38.583  23.635   1.125  0.00  0.00    +0.199 C 
ATOM      4  C   UNL     1     -38.901  25.110   1.389  0.00  0.00    +0.237 C 
ATOM      5  C   UNL     1     -39.006  25.426   2.895  0.00  0.00    +0.206 C 
ATOM      6  C   UNL     1     -37.257  23.867   3.296  0.00  0.00    +0.275 C 
ENDROOT
BRANCH   2   7
ATOM      7  N   UNL     1     -36.130  23.350   1.196  0.00  0.00    +0.397 N 
ATOM      8  H   UNL     1     -35.794  24.297   1.379  0.00  0.00    -0.079 HD
BRANCH   7   9
ATOM      9  C   UNL     1     -35.108  22.405   1.638  0.00  0.00    -0.059 C 
BRANCH   9  11
ATOM     10 CL   UNL     1     -34.356  19.816   1.936  0.00  0.00    -0.116 Cl
ATOM     11  C   UNL     1     -35.505  20.989   1.251  0.00  0.00    +0.072 C 
ENDBRANCH   9  11
ENDBRANCH   7   9
BRANCH   7  12
ATOM     12  C   UNL     1     -36.369  23.216  -0.239  0.00  0.00    -0.059 C 
BRANCH  12  14
ATOM     13 CL   UNL     1     -35.431  23.654  -2.746  0.00  0.00    -0.116 Cl
ATOM     14  C   UNL     1     -35.372  24.062  -1.014  0.00  0.00    +0.072 C 
ENDBRANCH  12  14
ENDBRANCH   7  12
ENDBRANCH   2   7
BRANCH   3  15
ATOM     15  O   UNL     1     -39.714  22.840   1.491  0.00  0.00    -0.450 OA
BRANCH  15  17
ATOM     16  O   UNL     1     -39.680  20.703   0.614  0.00  0.00    -0.250 OA
ATOM     17  C   UNL     1     -40.061  21.865   0.601  0.00  0.00    +0.317 C 
ATOM     18  C   UNL     1     -41.000  22.430  -0.422  0.00  0.00    +0.121 C 
ENDBRANCH  15  17
ENDBRANCH   3  15
BRANCH   4  19
ATOM     19  O   UNL     1     -37.887  25.928   0.803  0.00  0.00    -0.446 OA
BRANCH  19  21
ATOM     20  O   UNL     1     -37.655  28.214   1.044  0.00  0.00    -0.250 OA
ATOM     21  C   UNL     1     -38.230  27.235   0.592  0.00  0.00    +0.318 C 
ATOM     22  C   UNL     1     -39.438  27.305  -0.292  0.00  0.00    +0.121 C 
ENDBRANCH  19  21
ENDBRANCH   4  19
BRANCH   6  23
ATOM     23  O   UNL     1     -36.735  22.948   4.254  0.00  0.00    -0.426 OA
BRANCH  23  25
ATOM     24  O   UNL     1     -35.641  24.668   5.340  0.00  0.00    -0.250 OA
ATOM     25  C   UNL     1     -35.884  23.479   5.179  0.00  0.00    +0.319 C 
ATOM     26  C   UNL     1     -35.273  22.380   5.994  0.00  0.00    +0.121 C 
ENDBRANCH  23  25
ENDBRANCH   6  23
BRANCH   5  27
ATOM     27  C   UNL     1     -40.451  25.681   3.312  0.00  0.00    +0.242 C 
BRANCH  27  28
ATOM     28  O   UNL     1     -40.739  27.055   3.129  0.00  0.00    -0.446 OA
BRANCH  28  30
ATOM     29  O   UNL     1     -41.821  28.533   4.536  0.00  0.00    -0.250 OA
ATOM     30  C   UNL     1     -41.818  27.541   3.819  0.00  0.00    +0.318 C 
ATOM     31  C   UNL     1     -43.019  26.680   3.573  0.00  0.00    +0.121 C 
ENDBRANCH  28  30
ENDBRANCH  27  28
ENDBRANCH   5  27
TORSDOF 14
ENDMDL
MODEL 9
REMARK VINA RESULT:      -4.8      4.165      6.061
REMARK  Name = 21140892
REMARK  14 active torsions:
REMARK  status: ('A' for Active; 'I' for Inactive)
REMARK    1  A    between atoms: C_2  and  N_7
REMARK    2  A    between atoms: C_3  and  O_15
REMARK    3  A    between atoms: C_4  and  O_19
REMARK    4  A    between atoms: C_5  and  C_27
REMARK    5  A    between atoms: C_6  and  O_23
REMARK    6  A    between atoms: N_7  and  C_9
REMARK    7  A    between atoms: N_7  and  C_12
REMARK    8  A    between atoms: C_9  and  C_11
REMARK    9  A    between atoms: C_12  and  C_14
REMARK   10  A    between atoms: O_15  and  C_17
REMARK   11  A    between atoms: O_19  and  C_21
REMARK   12  A    between atoms: O_23  and  C_25
REMARK   13  A    between atoms: C_27  and  O_28
REMARK   14  A    between atoms: O_28  and  C_30
REMARK                            x       y       z     vdW  Elec       q    Type
REMARK                         _______ _______ _______ _____ _____    ______ ____
ROOT
ATOM      1  O   UNL     1     -34.295  26.332   4.868  0.00  0.00    -0.317 OA
ATOM      2  C   UNL     1     -33.058  26.972   2.876  0.00  0.00    +0.058 C 
ATOM      3  C   UNL     1     -34.170  26.145   2.201  0.00  0.00    +0.199 C 
ATOM      4  C   UNL     1     -35.560  26.478   2.752  0.00  0.00    +0.237 C 
ATOM      5  C   UNL     1     -35.606  26.428   4.294  0.00  0.00    +0.206 C 
ATOM      6  C   UNL     1     -33.398  27.306   4.342  0.00  0.00    +0.275 C 
ENDROOT
BRANCH   2   7
ATOM      7  N   UNL     1     -32.841  28.228   2.153  0.00  0.00    +0.397 N 
ATOM      8  H   UNL     1     -33.484  28.266   1.362  0.00  0.00    -0.079 HD
BRANCH   7   9
ATOM      9  C   UNL     1     -33.114  29.368   3.024  0.00  0.00    -0.059 C 
BRANCH   9  11
ATOM     10 CL   UNL     1     -35.298  30.968   3.195  0.00  0.00    -0.116 Cl
ATOM     11  C   UNL     1     -33.881  30.436   2.259  0.00  0.00    +0.072 C 
ENDBRANCH   9  11
ENDBRANCH   7   9
BRANCH   7  12
ATOM     12  C   UNL     1     -31.474  28.289   1.640  0.00  0.00    -0.059 C 
BRANCH  12  14
ATOM     13 CL   UNL     1     -29.352  28.052   3.311  0.00  0.00    -0.116 Cl
ATOM     14  C   UNL     1     -30.598  29.094   2.586  0.00  0.00    +0.072 C 
ENDBRANCH  12  14
ENDBRANCH   7  12
ENDBRANCH   2   7
BRANCH   3  15
ATOM     15  O   UNL     1     -33.893  24.763   2.436  0.00  0.00    -0.450 OA
BRANCH  15  17
ATOM     16  O   UNL     1     -35.068  23.027   1.465  0.00  0.00    -0.250 OA
ATOM     17  C   UNL     1     -34.227  23.915   1.420  0.00  0.00    +0.317 C 
ATOM     18  C   UNL     1     -33.400  24.228   0.210  0.00  0.00    +0.121 C 
ENDBRANCH  15  17
ENDBRANCH   3  15
BRANCH   4  19
ATOM     19  O   UNL     1     -35.949  27.780   2.310  0.00  0.00    -0.446 OA
BRANCH  19  21
ATOM     20  O   UNL     1     -38.014  27.259   1.413  0.00  0.00    -0.250 OA
ATOM     21  C   UNL     1     -36.925  27.812   1.353  0.00  0.00    +0.318 C 
ATOM     22  C   UNL     1     -36.466  28.638   0.190  0.00  0.00    +0.121 C 
ENDBRANCH  19  21
ENDBRANCH   4  19
BRANCH   6  23
ATOM     23  O   UNL     1     -32.184  27.322   5.090  0.00  0.00    -0.426 OA
BRANCH  23  25
ATOM     24  O   UNL     1     -32.736  27.171   7.329  0.00  0.00    -0.250 OA
ATOM     25  C   UNL     1     -32.286  27.785   6.371  0.00  0.00    +0.319 C 
ATOM     26  C   UNL     1     -31.756  29.186   6.445  0.00  0.00    +0.121 C 
ENDBRANCH  23  25
ENDBRANCH   6  23
BRANCH   5  27
ATOM     27  C   UNL     1     -36.382  25.211   4.789  0.00  0.00    +0.242 C 
BRANCH  27  28
ATOM     28  O   UNL     1     -35.463  24.283   5.337  0.00  0.00    -0.446 OA
BRANCH  28  30
ATOM     29  O   UNL     1     -36.483  22.484   4.308  0.00  0.00    -0.250 OA
ATOM     30  C   UNL     1     -35.788  22.960   5.196  0.00  0.00    +0.318 C 
ATOM     31  C   UNL     1     -35.165  22.155   6.295  0.00  0.00    +0.121 C 
ENDBRANCH  28  30
ENDBRANCH  27  28
ENDBRANCH   5  27
TORSDOF 14
ENDMDL
