MODEL 1
REMARK VINA RESULT:      -6.0      0.000      0.000
REMARK  Name = 53672
REMARK  10 active torsions:
REMARK  status: ('A' for Active; 'I' for Inactive)
REMARK    1  A    between atoms: C_1  and  C_11
REMARK    2  A    between atoms: C_2  and  O_19
REMARK    3  A    between atoms: C_4  and  N_9
REMARK    4  A    between atoms: C_11  and  O_12
REMARK    5  A    between atoms: O_12  and  C_13
REMARK    6  A    between atoms: C_13  and  C_15
REMARK    7  A    between atoms: C_15  and  O_16
REMARK    8  A    between atoms: O_16  and  C_17
REMARK    9  A    between atoms: O_19  and  C_21
REMARK   10  A    between atoms: C_22  and  C_30
REMARK                            x       y       z     vdW  Elec       q    Type
REMARK                         _______ _______ _______ _____ _____    ______ ____
ROOT
ATOM      1  C   UNL     1     -38.331  20.986   1.106  0.00  0.00    +0.101 C 
ATOM      2  C   UNL     1     -36.194  20.605   2.167  0.00  0.00    +0.146 C 
ATOM      3  C   UNL     1     -37.447  21.217   2.161  0.00  0.00    +0.046 C 
ATOM      4  C   UNL     1     -37.962  20.142   0.058  0.00  0.00    +0.149 C 
ATOM      5  C   UNL     1     -35.825  19.761   1.118  0.00  0.00    +0.039 C 
ATOM      6  C   UNL     1     -36.709  19.530   0.064  0.00  0.00    +0.027 C 
ENDROOT
BRANCH   4   9
ATOM      7  O   UNL     1     -39.612  18.902  -0.970  0.00  0.00    -0.126 OA
ATOM      8  O   UNL     1     -38.828  20.667  -2.013  0.00  0.00    -0.126 OA
ATOM      9  N   UNL     1     -38.844  19.892  -1.029  0.00  0.00    +0.058 N 
ENDBRANCH   4   9
BRANCH   1  11
ATOM     10  O   UNL     1     -40.709  21.053   1.272  0.00  0.00    -0.245 OA
ATOM     11  C   UNL     1     -39.632  21.644   1.134  0.00  0.00    +0.343 C 
BRANCH  11  12
ATOM     12  O   UNL     1     -39.511  22.998   0.991  0.00  0.00    -0.433 OA
BRANCH  12  13
ATOM     13  C   UNL     1     -40.198  23.811   1.949  0.00  0.00    +0.317 C 
BRANCH  13  15
ATOM     14  O   UNL     1     -38.531  24.226   3.660  0.00  0.00    -0.246 OA
ATOM     15  C   UNL     1     -39.185  24.628   2.708  0.00  0.00    +0.362 C 
BRANCH  15  16
ATOM     16  O   UNL     1     -39.121  25.877   2.159  0.00  0.00    -0.446 OA
BRANCH  16  17
ATOM     17  C   UNL     1     -37.804  26.416   2.004  0.00  0.00    +0.209 C 
ATOM     18  C   UNL     1     -37.227  25.938   0.690  0.00  0.00    +0.051 C 
ENDBRANCH  16  17
ENDBRANCH  15  16
ENDBRANCH  13  15
ENDBRANCH  12  13
ENDBRANCH  11  12
ENDBRANCH   1  11
BRANCH   2  19
ATOM     19  O   UNL     1     -35.331  20.830   3.195  0.00  0.00    -0.453 OA
BRANCH  19  21
ATOM     20 CL   UNL     1     -35.610  21.044   6.189  0.00  0.00    -0.079 Cl
ATOM     21  C   UNL     1     -35.268  22.113   3.712  0.00  0.00    +0.156 C 
ATOM     22  C   UNL     1     -35.134  24.719   4.698  0.00  0.00    +0.072 C 
ATOM     23  C   UNL     1     -35.384  22.348   5.082  0.00  0.00    +0.092 C 
ATOM     24  C   UNL     1     -35.085  23.182   2.834  0.00  0.00    +0.038 C 
ATOM     25  C   UNL     1     -35.317  23.651   5.575  0.00  0.00    +0.018 C 
ATOM     26  C   UNL     1     -35.018  24.486   3.328  0.00  0.00    +0.007 C 
BRANCH  22  30
ATOM     27  F   UNL     1     -36.252  26.579   5.705  0.00  0.00    -0.166 F 
ATOM     28  F   UNL     1     -34.179  26.262   6.257  0.00  0.00    -0.166 F 
ATOM     29  F   UNL     1     -34.671  27.013   4.276  0.00  0.00    -0.166 F 
ATOM     30  C   UNL     1     -35.061  26.113   5.225  0.00  0.00    +0.419 C 
ENDBRANCH  22  30
ENDBRANCH  19  21
ENDBRANCH   2  19
TORSDOF 10
ENDMDL
MODEL 2
REMARK VINA RESULT:      -6.0      5.352      7.379
REMARK  Name = 53672
REMARK  10 active torsions:
REMARK  status: ('A' for Active; 'I' for Inactive)
REMARK    1  A    between atoms: C_1  and  C_11
REMARK    2  A    between atoms: C_2  and  O_19
REMARK    3  A    between atoms: C_4  and  N_9
REMARK    4  A    between atoms: C_11  and  O_12
REMARK    5  A    between atoms: O_12  and  C_13
REMARK    6  A    between atoms: C_13  and  C_15
REMARK    7  A    between atoms: C_15  and  O_16
REMARK    8  A    between atoms: O_16  and  C_17
REMARK    9  A    between atoms: O_19  and  C_21
REMARK   10  A    between atoms: C_22  and  C_30
REMARK                            x       y       z     vdW  Elec       q    Type
REMARK                         _______ _______ _______ _____ _____    ______ ____
ROOT
ATOM      1  C   UNL     1     -34.979  23.474   2.598  0.00  0.00    +0.101 C 
ATOM      2  C   UNL     1     -34.815  21.324   1.507  0.00  0.00    +0.146 C 
ATOM      3  C   UNL     1     -34.611  22.704   1.494  0.00  0.00    +0.046 C 
ATOM      4  C   UNL     1     -35.549  22.864   3.715  0.00  0.00    +0.149 C 
ATOM      5  C   UNL     1     -35.386  20.714   2.625  0.00  0.00    +0.039 C 
ATOM      6  C   UNL     1     -35.753  21.484   3.728  0.00  0.00    +0.027 C 
ENDROOT
BRANCH   4   9
ATOM      7  O   UNL     1     -36.949  24.358   4.776  0.00  0.00    -0.126 OA
ATOM      8  O   UNL     1     -35.248  23.542   5.898  0.00  0.00    -0.126 OA
ATOM      9  N   UNL     1     -35.934  23.626   4.853  0.00  0.00    +0.058 N 
ENDBRANCH   4   9
BRANCH   1  11
ATOM     10  O   UNL     1     -35.530  25.725   2.036  0.00  0.00    -0.245 OA
ATOM     11  C   UNL     1     -34.751  24.913   2.547  0.00  0.00    +0.343 C 
BRANCH  11  12
ATOM     12  O   UNL     1     -33.566  25.252   3.138  0.00  0.00    -0.433 OA
BRANCH  12  13
ATOM     13  C   UNL     1     -33.378  26.635   3.459  0.00  0.00    +0.317 C 
BRANCH  13  15
ATOM     14  O   UNL     1     -34.668  26.684   5.512  0.00  0.00    -0.246 OA
ATOM     15  C   UNL     1     -33.598  26.825   4.937  0.00  0.00    +0.362 C 
BRANCH  15  16
ATOM     16  O   UNL     1     -32.413  27.174   5.520  0.00  0.00    -0.446 OA
BRANCH  16  17
ATOM     17  C   UNL     1     -31.822  28.384   5.036  0.00  0.00    +0.209 C 
ATOM     18  C   UNL     1     -31.779  29.397   6.159  0.00  0.00    +0.051 C 
ENDBRANCH  16  17
ENDBRANCH  15  16
ENDBRANCH  13  15
ENDBRANCH  12  13
ENDBRANCH  11  12
ENDBRANCH   1  11
BRANCH   2  19
ATOM     19  O   UNL     1     -34.458  20.573   0.429  0.00  0.00    -0.453 OA
BRANCH  19  21
ATOM     20 CL   UNL     1     -32.144  21.934  -0.944  0.00  0.00    -0.079 Cl
ATOM     21  C   UNL     1     -33.249  19.901   0.486  0.00  0.00    +0.156 C 
ATOM     22  C   UNL     1     -30.839  18.503   0.632  0.00  0.00    +0.072 C 
ATOM     23  C   UNL     1     -32.101  20.424  -0.110  0.00  0.00    +0.092 C 
ATOM     24  C   UNL     1     -33.191  18.679   1.156  0.00  0.00    +0.038 C 
ATOM     25  C   UNL     1     -30.897  19.725  -0.037  0.00  0.00    +0.018 C 
ATOM     26  C   UNL     1     -31.986  17.979   1.228  0.00  0.00    +0.007 C 
BRANCH  22  30
ATOM     27  F   UNL     1     -29.594  16.526   0.117  0.00  0.00    -0.166 F 
ATOM     28  F   UNL     1     -28.506  18.402   0.114  0.00  0.00    -0.166 F 
ATOM     29  F   UNL     1     -29.154  17.528   1.996  0.00  0.00    -0.166 F 
ATOM     30  C   UNL     1     -29.551  17.756   0.711  0.00  0.00    +0.419 C 
ENDBRANCH  22  30
ENDBRANCH  19  21
ENDBRANCH   2  19
TORSDOF 10
ENDMDL
MODEL 3
REMARK VINA RESULT:      -6.0      1.065      1.498
REMARK  Name = 53672
REMARK  10 active torsions:
REMARK  status: ('A' for Active; 'I' for Inactive)
REMARK    1  A    between atoms: C_1  and  C_11
REMARK    2  A    between atoms: C_2  and  O_19
REMARK    3  A    between atoms: C_4  and  N_9
REMARK    4  A    between atoms: C_11  and  O_12
REMARK    5  A    between atoms: O_12  and  C_13
REMARK    6  A    between atoms: C_13  and  C_15
REMARK    7  A    between atoms: C_15  and  O_16
REMARK    8  A    between atoms: O_16  and  C_17
REMARK    9  A    between atoms: O_19  and  C_21
REMARK   10  A    between atoms: C_22  and  C_30
REMARK                            x       y       z     vdW  Elec       q    Type
REMARK                         _______ _______ _______ _____ _____    ______ ____
ROOT
ATOM      1  C   UNL     1     -38.333  20.918   1.040  0.00  0.00    +0.101 C 
ATOM      2  C   UNL     1     -36.196  20.468   2.074  0.00  0.00    +0.146 C 
ATOM      3  C   UNL     1     -37.425  21.127   2.079  0.00  0.00    +0.046 C 
ATOM      4  C   UNL     1     -38.012  20.049  -0.003  0.00  0.00    +0.149 C 
ATOM      5  C   UNL     1     -35.875  19.599   1.030  0.00  0.00    +0.039 C 
ATOM      6  C   UNL     1     -36.783  19.390  -0.008  0.00  0.00    +0.027 C 
ENDROOT
BRANCH   4   9
ATOM      7  O   UNL     1     -38.902  20.596  -2.059  0.00  0.00    -0.126 OA
ATOM      8  O   UNL     1     -39.707  18.848  -1.003  0.00  0.00    -0.126 OA
ATOM      9  N   UNL     1     -38.919  19.819  -1.074  0.00  0.00    +0.058 N 
ENDBRANCH   4   9
BRANCH   1  11
ATOM     10  O   UNL     1     -40.702  21.080   1.259  0.00  0.00    -0.245 OA
ATOM     11  C   UNL     1     -39.608  21.625   1.079  0.00  0.00    +0.343 C 
BRANCH  11  12
ATOM     12  O   UNL     1     -39.439  22.969   0.893  0.00  0.00    -0.433 OA
BRANCH  12  13
ATOM     13  C   UNL     1     -40.179  23.836   1.759  0.00  0.00    +0.317 C 
BRANCH  13  15
ATOM     14  O   UNL     1     -38.456  23.933   3.462  0.00  0.00    -0.246 OA
ATOM     15  C   UNL     1     -39.221  24.513   2.705  0.00  0.00    +0.362 C 
BRANCH  15  16
ATOM     16  O   UNL     1     -39.349  25.866   2.573  0.00  0.00    -0.446 OA
BRANCH  16  17
ATOM     17  C   UNL     1     -38.675  26.442   1.449  0.00  0.00    +0.209 C 
ATOM     18  C   UNL     1     -37.263  26.805   1.853  0.00  0.00    +0.051 C 
ENDBRANCH  16  17
ENDBRANCH  15  16
ENDBRANCH  13  15
ENDBRANCH  12  13
ENDBRANCH  11  12
ENDBRANCH   1  11
BRANCH   2  19
ATOM     19  O   UNL     1     -35.310  20.673   3.086  0.00  0.00    -0.453 OA
BRANCH  19  21
ATOM     20 CL   UNL     1     -34.533  22.910   1.220  0.00  0.00    -0.079 Cl
ATOM     21  C   UNL     1     -35.260  21.935   3.652  0.00  0.00    +0.156 C 
ATOM     22  C   UNL     1     -35.177  24.455   4.847  0.00  0.00    +0.072 C 
ATOM     23  C   UNL     1     -34.913  23.055   2.897  0.00  0.00    +0.092 C 
ATOM     24  C   UNL     1     -35.565  22.075   5.007  0.00  0.00    +0.038 C 
ATOM     25  C   UNL     1     -34.872  24.314   3.494  0.00  0.00    +0.018 C 
ATOM     26  C   UNL     1     -35.523  23.336   5.604  0.00  0.00    +0.007 C 
BRANCH  22  30
ATOM     27  F   UNL     1     -36.261  26.110   6.192  0.00  0.00    -0.166 F 
ATOM     28  F   UNL     1     -34.105  25.953   6.373  0.00  0.00    -0.166 F 
ATOM     29  F   UNL     1     -34.983  26.809   4.577  0.00  0.00    -0.166 F 
ATOM     30  C   UNL     1     -35.133  25.802   5.486  0.00  0.00    +0.419 C 
ENDBRANCH  22  30
ENDBRANCH  19  21
ENDBRANCH   2  19
TORSDOF 10
ENDMDL
MODEL 4
REMARK VINA RESULT:      -6.0      4.858      6.702
REMARK  Name = 53672
REMARK  10 active torsions:
REMARK  status: ('A' for Active; 'I' for Inactive)
REMARK    1  A    between atoms: C_1  and  C_11
REMARK    2  A    between atoms: C_2  and  O_19
REMARK    3  A    between atoms: C_4  and  N_9
REMARK    4  A    between atoms: C_11  and  O_12
REMARK    5  A    between atoms: O_12  and  C_13
REMARK    6  A    between atoms: C_13  and  C_15
REMARK    7  A    between atoms: C_15  and  O_16
REMARK    8  A    between atoms: O_16  and  C_17
REMARK    9  A    between atoms: O_19  and  C_21
REMARK   10  A    between atoms: C_22  and  C_30
REMARK                            x       y       z     vdW  Elec       q    Type
REMARK                         _______ _______ _______ _____ _____    ______ ____
ROOT
ATOM      1  C   UNL     1     -35.218  23.748   2.560  0.00  0.00    +0.101 C 
ATOM      2  C   UNL     1     -35.060  21.465   1.784  0.00  0.00    +0.146 C 
ATOM      3  C   UNL     1     -34.991  22.835   1.529  0.00  0.00    +0.046 C 
ATOM      4  C   UNL     1     -35.513  23.291   3.844  0.00  0.00    +0.149 C 
ATOM      5  C   UNL     1     -35.356  21.008   3.069  0.00  0.00    +0.039 C 
ATOM      6  C   UNL     1     -35.582  21.921   4.099  0.00  0.00    +0.027 C 
ENDROOT
BRANCH   4   9
ATOM      7  O   UNL     1     -34.791  24.534   5.647  0.00  0.00    -0.126 OA
ATOM      8  O   UNL     1     -36.910  24.642   5.085  0.00  0.00    -0.126 OA
ATOM      9  N   UNL     1     -35.751  24.200   4.912  0.00  0.00    +0.058 N 
ENDBRANCH   4   9
BRANCH   1  11
ATOM     10  O   UNL     1     -34.207  25.907   2.604  0.00  0.00    -0.245 OA
ATOM     11  C   UNL     1     -35.138  25.171   2.256  0.00  0.00    +0.343 C 
BRANCH  11  12
ATOM     12  O   UNL     1     -36.221  25.590   1.535  0.00  0.00    -0.433 OA
BRANCH  12  13
ATOM     13  C   UNL     1     -37.069  26.564   2.154  0.00  0.00    +0.317 C 
BRANCH  13  15
ATOM     14  O   UNL     1     -39.395  26.545   2.837  0.00  0.00    -0.246 OA
ATOM     15  C   UNL     1     -38.448  25.979   2.309  0.00  0.00    +0.362 C 
BRANCH  15  16
ATOM     16  O   UNL     1     -38.462  24.726   1.766  0.00  0.00    -0.446 OA
BRANCH  16  17
ATOM     17  C   UNL     1     -39.135  23.727   2.539  0.00  0.00    +0.209 C 
ATOM     18  C   UNL     1     -38.730  22.358   2.036  0.00  0.00    +0.051 C 
ENDBRANCH  16  17
ENDBRANCH  15  16
ENDBRANCH  13  15
ENDBRANCH  12  13
ENDBRANCH  11  12
ENDBRANCH   1  11
BRANCH   2  19
ATOM     19  O   UNL     1     -34.839  20.574   0.778  0.00  0.00    -0.453 OA
BRANCH  19  21
ATOM     20 CL   UNL     1     -32.798  22.037  -0.890  0.00  0.00    -0.079 Cl
ATOM     21  C   UNL     1     -33.590  19.982   0.706  0.00  0.00    +0.156 C 
ATOM     22  C   UNL     1     -31.092  18.745   0.596  0.00  0.00    +0.072 C 
ATOM     23  C   UNL     1     -32.558  20.558  -0.034  0.00  0.00    +0.092 C 
ATOM     24  C   UNL     1     -33.373  18.786   1.391  0.00  0.00    +0.038 C 
ATOM     25  C   UNL     1     -31.309  19.940  -0.089  0.00  0.00    +0.018 C 
ATOM     26  C   UNL     1     -32.124  18.167   1.336  0.00  0.00    +0.007 C 
BRANCH  22  30
ATOM     27  F   UNL     1     -29.429  17.410   1.680  0.00  0.00    -0.166 F 
ATOM     28  F   UNL     1     -29.648  17.159  -0.463  0.00  0.00    -0.166 F 
ATOM     29  F   UNL     1     -28.740  18.969   0.330  0.00  0.00    -0.166 F 
ATOM     30  C   UNL     1     -29.757  18.083   0.537  0.00  0.00    +0.419 C 
ENDBRANCH  22  30
ENDBRANCH  19  21
ENDBRANCH   2  19
TORSDOF 10
ENDMDL
MODEL 5
REMARK VINA RESULT:      -6.0      5.172      7.919
REMARK  Name = 53672
REMARK  10 active torsions:
REMARK  status: ('A' for Active; 'I' for Inactive)
REMARK    1  A    between atoms: C_1  and  C_11
REMARK    2  A    between atoms: C_2  and  O_19
REMARK    3  A    between atoms: C_4  and  N_9
REMARK    4  A    between atoms: C_11  and  O_12
REMARK    5  A    between atoms: O_12  and  C_13
REMARK    6  A    between atoms: C_13  and  C_15
REMARK    7  A    between atoms: C_15  and  O_16
REMARK    8  A    between atoms: O_16  and  C_17
REMARK    9  A    between atoms: O_19  and  C_21
REMARK   10  A    between atoms: C_22  and  C_30
REMARK                            x       y       z     vdW  Elec       q    Type
REMARK                         _______ _______ _______ _____ _____    ______ ____
ROOT
ATOM      1  C   UNL     1     -33.751  27.585   4.013  0.00  0.00    +0.101 C 
ATOM      2  C   UNL     1     -35.128  25.736   4.739  0.00  0.00    +0.146 C 
ATOM      3  C   UNL     1     -34.794  26.689   3.776  0.00  0.00    +0.046 C 
ATOM      4  C   UNL     1     -33.041  27.528   5.213  0.00  0.00    +0.149 C 
ATOM      5  C   UNL     1     -34.418  25.680   5.939  0.00  0.00    +0.039 C 
ATOM      6  C   UNL     1     -33.375  26.576   6.176  0.00  0.00    +0.027 C 
ENDROOT
BRANCH   4   9
ATOM      7  O   UNL     1     -32.243  29.561   5.953  0.00  0.00    -0.126 OA
ATOM      8  O   UNL     1     -30.800  28.070   5.236  0.00  0.00    -0.126 OA
ATOM      9  N   UNL     1     -31.975  28.431   5.480  0.00  0.00    +0.058 N 
ENDBRANCH   4   9
BRANCH   1  11
ATOM     10  O   UNL     1     -34.102  29.579   2.754  0.00  0.00    -0.245 OA
ATOM     11  C   UNL     1     -33.432  28.566   2.983  0.00  0.00    +0.343 C 
BRANCH  11  12
ATOM     12  O   UNL     1     -32.296  28.225   2.303  0.00  0.00    -0.433 OA
BRANCH  12  13
ATOM     13  C   UNL     1     -32.443  27.277   1.240  0.00  0.00    +0.317 C 
BRANCH  13  15
ATOM     14  O   UNL     1     -30.936  25.905   2.555  0.00  0.00    -0.246 OA
ATOM     15  C   UNL     1     -31.542  26.100   1.510  0.00  0.00    +0.362 C 
BRANCH  15  16
ATOM     16  O   UNL     1     -31.519  25.297   0.406  0.00  0.00    -0.446 OA
BRANCH  16  17
ATOM     17  C   UNL     1     -32.713  24.547   0.164  0.00  0.00    +0.209 C 
ATOM     18  C   UNL     1     -32.345  23.223  -0.470  0.00  0.00    +0.051 C 
ENDBRANCH  16  17
ENDBRANCH  15  16
ENDBRANCH  13  15
ENDBRANCH  12  13
ENDBRANCH  11  12
ENDBRANCH   1  11
BRANCH   2  19
ATOM     19  O   UNL     1     -36.146  24.863   4.508  0.00  0.00    -0.453 OA
BRANCH  19  21
ATOM     20 CL   UNL     1     -35.673  22.411   6.198  0.00  0.00    -0.079 Cl
ATOM     21  C   UNL     1     -35.853  23.703   3.812  0.00  0.00    +0.156 C 
ATOM     22  C   UNL     1     -35.267  21.397   2.355  0.00  0.00    +0.072 C 
ATOM     23  C   UNL     1     -35.612  22.500   4.476  0.00  0.00    +0.092 C 
ATOM     24  C   UNL     1     -35.799  23.753   2.418  0.00  0.00    +0.038 C 
ATOM     25  C   UNL     1     -35.320  21.347   3.748  0.00  0.00    +0.018 C 
ATOM     26  C   UNL     1     -35.506  22.599   1.690  0.00  0.00    +0.007 C 
BRANCH  22  30
ATOM     27  F   UNL     1     -34.014  19.368   2.166  0.00  0.00    -0.166 F 
ATOM     28  F   UNL     1     -36.035  19.352   1.380  0.00  0.00    -0.166 F 
ATOM     29  F   UNL     1     -34.471  20.439   0.330  0.00  0.00    -0.166 F 
ATOM     30  C   UNL     1     -34.954  20.164   1.576  0.00  0.00    +0.419 C 
ENDBRANCH  22  30
ENDBRANCH  19  21
ENDBRANCH   2  19
TORSDOF 10
ENDMDL
MODEL 6
REMARK VINA RESULT:      -5.9      4.706      6.603
REMARK  Name = 53672
REMARK  10 active torsions:
REMARK  status: ('A' for Active; 'I' for Inactive)
REMARK    1  A    between atoms: C_1  and  C_11
REMARK    2  A    between atoms: C_2  and  O_19
REMARK    3  A    between atoms: C_4  and  N_9
REMARK    4  A    between atoms: C_11  and  O_12
REMARK    5  A    between atoms: O_12  and  C_13
REMARK    6  A    between atoms: C_13  and  C_15
REMARK    7  A    between atoms: C_15  and  O_16
REMARK    8  A    between atoms: O_16  and  C_17
REMARK    9  A    between atoms: O_19  and  C_21
REMARK   10  A    between atoms: C_22  and  C_30
REMARK                            x       y       z     vdW  Elec       q    Type
REMARK                         _______ _______ _______ _____ _____    ______ ____
ROOT
ATOM      1  C   UNL     1     -35.352  24.231   3.442  0.00  0.00    +0.101 C 
ATOM      2  C   UNL     1     -34.624  23.359   1.310  0.00  0.00    +0.146 C 
ATOM      3  C   UNL     1     -35.447  23.272   2.433  0.00  0.00    +0.046 C 
ATOM      4  C   UNL     1     -34.435  25.276   3.328  0.00  0.00    +0.149 C 
ATOM      5  C   UNL     1     -33.706  24.404   1.196  0.00  0.00    +0.039 C 
ATOM      6  C   UNL     1     -33.612  25.362   2.205  0.00  0.00    +0.027 C 
ENDROOT
BRANCH   4   9
ATOM      7  O   UNL     1     -33.507  26.074   5.283  0.00  0.00    -0.126 OA
ATOM      8  O   UNL     1     -35.023  27.297   4.269  0.00  0.00    -0.126 OA
ATOM      9  N   UNL     1     -34.316  26.265   4.344  0.00  0.00    +0.058 N 
ENDBRANCH   4   9
BRANCH   1  11
ATOM     10  O   UNL     1     -36.022  23.346   5.552  0.00  0.00    -0.245 OA
ATOM     11  C   UNL     1     -36.228  24.108   4.601  0.00  0.00    +0.343 C 
BRANCH  11  12
ATOM     12  O   UNL     1     -37.306  24.942   4.503  0.00  0.00    -0.433 OA
BRANCH  12  13
ATOM     13  C   UNL     1     -38.207  24.705   3.416  0.00  0.00    +0.317 C 
BRANCH  13  15
ATOM     14  O   UNL     1     -39.876  26.424   3.037  0.00  0.00    -0.246 OA
ATOM     15  C   UNL     1     -38.724  26.029   2.916  0.00  0.00    +0.362 C 
BRANCH  15  16
ATOM     16  O   UNL     1     -37.702  26.706   2.314  0.00  0.00    -0.446 OA
BRANCH  16  17
ATOM     17  C   UNL     1     -37.317  26.220   1.024  0.00  0.00    +0.209 C 
ATOM     18  C   UNL     1     -36.263  27.139   0.445  0.00  0.00    +0.051 C 
ENDBRANCH  16  17
ENDBRANCH  15  16
ENDBRANCH  13  15
ENDBRANCH  12  13
ENDBRANCH  11  12
ENDBRANCH   1  11
BRANCH   2  19
ATOM     19  O   UNL     1     -34.716  22.423   0.325  0.00  0.00    -0.453 OA
BRANCH  19  21
ATOM     20 CL   UNL     1     -35.952  20.033   1.684  0.00  0.00    -0.079 Cl
ATOM     21  C   UNL     1     -33.906  21.305   0.423  0.00  0.00    +0.156 C 
ATOM     22  C   UNL     1     -32.230  19.081   0.591  0.00  0.00    +0.072 C 
ATOM     23  C   UNL     1     -34.359  20.134   1.030  0.00  0.00    +0.092 C 
ATOM     24  C   UNL     1     -32.614  21.364  -0.101  0.00  0.00    +0.038 C 
ATOM     25  C   UNL     1     -33.521  19.022   1.114  0.00  0.00    +0.018 C 
ATOM     26  C   UNL     1     -31.776  20.252  -0.016  0.00  0.00    +0.007 C 
BRANCH  22  30
ATOM     27  F   UNL     1     -32.001  16.701   0.657  0.00  0.00    -0.166 F 
ATOM     28  F   UNL     1     -30.428  17.813  -0.339  0.00  0.00    -0.166 F 
ATOM     29  F   UNL     1     -30.596  17.876   1.828  0.00  0.00    -0.166 F 
ATOM     30  C   UNL     1     -31.334  17.892   0.680  0.00  0.00    +0.419 C 
ENDBRANCH  22  30
ENDBRANCH  19  21
ENDBRANCH   2  19
TORSDOF 10
ENDMDL
MODEL 7
REMARK VINA RESULT:      -5.9      5.225      7.805
REMARK  Name = 53672
REMARK  10 active torsions:
REMARK  status: ('A' for Active; 'I' for Inactive)
REMARK    1  A    between atoms: C_1  and  C_11
REMARK    2  A    between atoms: C_2  and  O_19
REMARK    3  A    between atoms: C_4  and  N_9
REMARK    4  A    between atoms: C_11  and  O_12
REMARK    5  A    between atoms: O_12  and  C_13
REMARK    6  A    between atoms: C_13  and  C_15
REMARK    7  A    between atoms: C_15  and  O_16
REMARK    8  A    between atoms: O_16  and  C_17
REMARK    9  A    between atoms: O_19  and  C_21
REMARK   10  A    between atoms: C_22  and  C_30
REMARK                            x       y       z     vdW  Elec       q    Type
REMARK                         _______ _______ _______ _____ _____    ______ ____
ROOT
ATOM      1  C   UNL     1     -33.817  27.579   4.033  0.00  0.00    +0.101 C 
ATOM      2  C   UNL     1     -35.161  25.708   4.762  0.00  0.00    +0.146 C 
ATOM      3  C   UNL     1     -34.862  26.682   3.810  0.00  0.00    +0.046 C 
ATOM      4  C   UNL     1     -33.069  27.500   5.208  0.00  0.00    +0.149 C 
ATOM      5  C   UNL     1     -34.413  25.630   5.938  0.00  0.00    +0.039 C 
ATOM      6  C   UNL     1     -33.368  26.526   6.160  0.00  0.00    +0.027 C 
ENDROOT
BRANCH   4   9
ATOM      7  O   UNL     1     -32.246  29.486   6.044  0.00  0.00    -0.126 OA
ATOM      8  O   UNL     1     -30.843  28.090   5.095  0.00  0.00    -0.126 OA
ATOM      9  N   UNL     1     -32.000  28.403   5.461  0.00  0.00    +0.058 N 
ENDBRANCH   4   9
BRANCH   1  11
ATOM     10  O   UNL     1     -32.816  28.393   2.028  0.00  0.00    -0.245 OA
ATOM     11  C   UNL     1     -33.535  28.584   3.015  0.00  0.00    +0.343 C 
BRANCH  11  12
ATOM     12  O   UNL     1     -34.168  29.764   3.289  0.00  0.00    -0.433 OA
BRANCH  12  13
ATOM     13  C   UNL     1     -34.582  30.548   2.165  0.00  0.00    +0.317 C 
BRANCH  13  15
ATOM     14  O   UNL     1     -36.549  29.300   1.492  0.00  0.00    -0.246 OA
ATOM     15  C   UNL     1     -36.054  30.328   1.934  0.00  0.00    +0.362 C 
BRANCH  15  16
ATOM     16  O   UNL     1     -36.734  31.455   2.298  0.00  0.00    -0.446 OA
BRANCH  16  17
ATOM     17  C   UNL     1     -37.572  32.024   1.287  0.00  0.00    +0.209 C 
ATOM     18  C   UNL     1     -38.207  33.288   1.824  0.00  0.00    +0.051 C 
ENDBRANCH  16  17
ENDBRANCH  15  16
ENDBRANCH  13  15
ENDBRANCH  12  13
ENDBRANCH  11  12
ENDBRANCH   1  11
BRANCH   2  19
ATOM     19  O   UNL     1     -36.181  24.834   4.545  0.00  0.00    -0.453 OA
BRANCH  19  21
ATOM     20 CL   UNL     1     -35.661  22.380   6.218  0.00  0.00    -0.079 Cl
ATOM     21  C   UNL     1     -35.898  23.677   3.839  0.00  0.00    +0.156 C 
ATOM     22  C   UNL     1     -35.334  21.376   2.366  0.00  0.00    +0.072 C 
ATOM     23  C   UNL     1     -35.638  22.474   4.496  0.00  0.00    +0.092 C 
ATOM     24  C   UNL     1     -35.876  23.730   2.445  0.00  0.00    +0.038 C 
ATOM     25  C   UNL     1     -35.356  21.324   3.759  0.00  0.00    +0.018 C 
ATOM     26  C   UNL     1     -35.593  22.579   1.709  0.00  0.00    +0.007 C 
BRANCH  22  30
ATOM     27  F   UNL     1     -36.114  19.331   1.400  0.00  0.00    -0.166 F 
ATOM     28  F   UNL     1     -34.570  20.404   0.318  0.00  0.00    -0.166 F 
ATOM     29  F   UNL     1     -34.079  19.367   2.165  0.00  0.00    -0.166 F 
ATOM     30  C   UNL     1     -35.032  20.146   1.577  0.00  0.00    +0.419 C 
ENDBRANCH  22  30
ENDBRANCH  19  21
ENDBRANCH   2  19
TORSDOF 10
ENDMDL
MODEL 8
REMARK VINA RESULT:      -5.9      3.789      6.102
REMARK  Name = 53672
REMARK  10 active torsions:
REMARK  status: ('A' for Active; 'I' for Inactive)
REMARK    1  A    between atoms: C_1  and  C_11
REMARK    2  A    between atoms: C_2  and  O_19
REMARK    3  A    between atoms: C_4  and  N_9
REMARK    4  A    between atoms: C_11  and  O_12
REMARK    5  A    between atoms: O_12  and  C_13
REMARK    6  A    between atoms: C_13  and  C_15
REMARK    7  A    between atoms: C_15  and  O_16
REMARK    8  A    between atoms: O_16  and  C_17
REMARK    9  A    between atoms: O_19  and  C_21
REMARK   10  A    between atoms: C_22  and  C_30
REMARK                            x       y       z     vdW  Elec       q    Type
REMARK                         _______ _______ _______ _____ _____    ______ ____
ROOT
ATOM      1  C   UNL     1     -38.038  24.646   2.423  0.00  0.00    +0.101 C 
ATOM      2  C   UNL     1     -38.501  22.323   1.944  0.00  0.00    +0.146 C 
ATOM      3  C   UNL     1     -37.608  23.321   2.332  0.00  0.00    +0.046 C 
ATOM      4  C   UNL     1     -39.362  24.971   2.127  0.00  0.00    +0.149 C 
ATOM      5  C   UNL     1     -39.826  22.648   1.648  0.00  0.00    +0.039 C 
ATOM      6  C   UNL     1     -40.255  23.972   1.739  0.00  0.00    +0.027 C 
ENDROOT
BRANCH   4   9
ATOM      7  O   UNL     1     -40.389  26.694   3.264  0.00  0.00    -0.126 OA
ATOM      8  O   UNL     1     -39.658  27.074   1.229  0.00  0.00    -0.126 OA
ATOM      9  N   UNL     1     -39.826  26.313   2.210  0.00  0.00    +0.058 N 
ENDBRANCH   4   9
BRANCH   1  11
ATOM     10  O   UNL     1     -36.439  26.373   2.046  0.00  0.00    -0.245 OA
ATOM     11  C   UNL     1     -37.076  25.661   2.831  0.00  0.00    +0.343 C 
BRANCH  11  12
ATOM     12  O   UNL     1     -36.967  25.729   4.192  0.00  0.00    -0.433 OA
BRANCH  12  13
ATOM     13  C   UNL     1     -35.718  26.193   4.716  0.00  0.00    +0.317 C 
BRANCH  13  15
ATOM     14  O   UNL     1     -33.659  24.921   4.871  0.00  0.00    -0.246 OA
ATOM     15  C   UNL     1     -34.865  25.001   5.064  0.00  0.00    +0.362 C 
BRANCH  15  16
ATOM     16  O   UNL     1     -35.654  24.039   5.625  0.00  0.00    -0.446 OA
BRANCH  16  17
ATOM     17  C   UNL     1     -35.447  22.709   5.137  0.00  0.00    +0.209 C 
ATOM     18  C   UNL     1     -35.080  21.809   6.296  0.00  0.00    +0.051 C 
ENDBRANCH  16  17
ENDBRANCH  15  16
ENDBRANCH  13  15
ENDBRANCH  12  13
ENDBRANCH  11  12
ENDBRANCH   1  11
BRANCH   2  19
ATOM     19  O   UNL     1     -38.081  21.031   1.855  0.00  0.00    -0.453 OA
BRANCH  19  21
ATOM     20 CL   UNL     1     -37.524  21.634  -1.046  0.00  0.00    -0.079 Cl
ATOM     21  C   UNL     1     -36.782  20.804   1.435  0.00  0.00    +0.156 C 
ATOM     22  C   UNL     1     -34.148  20.330   0.646  0.00  0.00    +0.072 C 
ATOM     23  C   UNL     1     -36.394  21.043   0.117  0.00  0.00    +0.092 C 
ATOM     24  C   UNL     1     -35.852  20.328   2.360  0.00  0.00    +0.038 C 
ATOM     25  C   UNL     1     -35.078  20.806  -0.278  0.00  0.00    +0.018 C 
ATOM     26  C   UNL     1     -34.535  20.090   1.965  0.00  0.00    +0.007 C 
BRANCH  22  30
ATOM     27  F   UNL     1     -32.000  21.215   0.077  0.00  0.00    -0.166 F 
ATOM     28  F   UNL     1     -32.036  19.306   1.106  0.00  0.00    -0.166 F 
ATOM     29  F   UNL     1     -32.659  19.429  -0.974  0.00  0.00    -0.166 F 
ATOM     30  C   UNL     1     -32.740  20.077   0.225  0.00  0.00    +0.419 C 
ENDBRANCH  22  30
ENDBRANCH  19  21
ENDBRANCH   2  19
TORSDOF 10
ENDMDL
MODEL 9
REMARK VINA RESULT:      -5.9      5.286      7.562
REMARK  Name = 53672
REMARK  10 active torsions:
REMARK  status: ('A' for Active; 'I' for Inactive)
REMARK    1  A    between atoms: C_1  and  C_11
REMARK    2  A    between atoms: C_2  and  O_19
REMARK    3  A    between atoms: C_4  and  N_9
REMARK    4  A    between atoms: C_11  and  O_12
REMARK    5  A    between atoms: O_12  and  C_13
REMARK    6  A    between atoms: C_13  and  C_15
REMARK    7  A    between atoms: C_15  and  O_16
REMARK    8  A    between atoms: O_16  and  C_17
REMARK    9  A    between atoms: O_19  and  C_21
REMARK   10  A    between atoms: C_22  and  C_30
REMARK                            x       y       z     vdW  Elec       q    Type
REMARK                         _______ _______ _______ _____ _____    ______ ____
ROOT
ATOM      1  C   UNL     1     -35.171  25.139   3.017  0.00  0.00    +0.101 C 
ATOM      2  C   UNL     1     -35.474  22.844   2.324  0.00  0.00    +0.146 C 
ATOM      3  C   UNL     1     -35.284  24.188   2.003  0.00  0.00    +0.046 C 
ATOM      4  C   UNL     1     -35.247  24.746   4.354  0.00  0.00    +0.149 C 
ATOM      5  C   UNL     1     -35.551  22.451   3.662  0.00  0.00    +0.039 C 
ATOM      6  C   UNL     1     -35.437  23.402   4.675  0.00  0.00    +0.027 C 
ENDROOT
BRANCH   4   9
ATOM      7  O   UNL     1     -36.160  26.323   5.766  0.00  0.00    -0.126 OA
ATOM      8  O   UNL     1     -34.019  25.876   5.944  0.00  0.00    -0.126 OA
ATOM      9  N   UNL     1     -35.136  25.695   5.407  0.00  0.00    +0.058 N 
ENDBRANCH   4   9
BRANCH   1  11
ATOM     10  O   UNL     1     -35.884  27.361   2.530  0.00  0.00    -0.245 OA
ATOM     11  C   UNL     1     -34.972  26.534   2.642  0.00  0.00    +0.343 C 
BRANCH  11  12
ATOM     12  O   UNL     1     -33.651  26.811   2.430  0.00  0.00    -0.433 OA
BRANCH  12  13
ATOM     13  C   UNL     1     -33.210  28.134   2.756  0.00  0.00    +0.317 C 
BRANCH  13  15
ATOM     14  O   UNL     1     -31.290  27.396   4.039  0.00  0.00    -0.246 OA
ATOM     15  C   UNL     1     -32.312  28.063   3.963  0.00  0.00    +0.362 C 
BRANCH  15  16
ATOM     16  O   UNL     1     -32.825  28.862   4.945  0.00  0.00    -0.446 OA
BRANCH  16  17
ATOM     17  C   UNL     1     -31.947  29.884   5.430  0.00  0.00    +0.209 C 
ATOM     18  C   UNL     1     -31.593  29.587   6.871  0.00  0.00    +0.051 C 
ENDBRANCH  16  17
ENDBRANCH  15  16
ENDBRANCH  13  15
ENDBRANCH  12  13
ENDBRANCH  11  12
ENDBRANCH   1  11
BRANCH   2  19
ATOM     19  O   UNL     1     -35.586  21.916   1.335  0.00  0.00    -0.453 OA
BRANCH  19  21
ATOM     20 CL   UNL     1     -33.522  23.000  -0.577  0.00  0.00    -0.079 Cl
ATOM     21  C   UNL     1     -34.498  21.093   1.099  0.00  0.00    +0.156 C 
ATOM     22  C   UNL     1     -32.329  19.394   0.660  0.00  0.00    +0.072 C 
ATOM     23  C   UNL     1     -33.474  21.478   0.234  0.00  0.00    +0.092 C 
ATOM     24  C   UNL     1     -34.438  19.858   1.745  0.00  0.00    +0.038 C 
ATOM     25  C   UNL     1     -32.390  20.629   0.015  0.00  0.00    +0.018 C 
ATOM     26  C   UNL     1     -33.354  19.008   1.525  0.00  0.00    +0.007 C 
BRANCH  22  30
ATOM     27  F   UNL     1     -31.372  17.589  -0.584  0.00  0.00    -0.166 F 
ATOM     28  F   UNL     1     -30.019  19.142   0.095  0.00  0.00    -0.166 F 
ATOM     29  F   UNL     1     -30.860  17.737   1.525  0.00  0.00    -0.166 F 
ATOM     30  C   UNL     1     -31.170  18.486   0.427  0.00  0.00    +0.419 C 
ENDBRANCH  22  30
ENDBRANCH  19  21
ENDBRANCH   2  19
TORSDOF 10
ENDMDL
