MODEL 1
REMARK VINA RESULT:      -6.3      0.000      0.000
REMARK  Name = 54685362
REMARK  6 active torsions:
REMARK  status: ('A' for Active; 'I' for Inactive)
REMARK    1  A    between atoms: C_4  and  O_18
REMARK    2  A    between atoms: C_5  and  C_21
REMARK    3  A    between atoms: C_6  and  C_10
REMARK    4  A    between atoms: C_15  and  O_16
REMARK    5  A    between atoms: C_21  and  C_23
REMARK    6  A    between atoms: C_23  and  O_24
REMARK                            x       y       z     vdW  Elec       q    Type
REMARK                         _______ _______ _______ _____ _____    ______ ____
ROOT
ATOM      1  O   UNL     1     -32.076  28.352   3.367  0.00  0.00    -0.270 OA
ATOM      2  N   UNL     1     -33.501  26.777   4.379  0.00  0.00    -0.278 N 
ATOM      3  C   UNL     1     -33.742  26.374   5.662  0.00  0.00    +0.085 C 
ATOM      4  C   UNL     1     -32.868  27.163   6.486  0.00  0.00    +0.155 C 
ATOM      5  C   UNL     1     -32.128  28.006   5.750  0.00  0.00    +0.134 C 
ATOM      6  C   UNL     1     -34.628  25.431   5.992  0.00  0.00    +0.018 C 
ATOM      7  C   UNL     1     -32.531  27.771   4.336  0.00  0.00    +0.256 C 
ATOM      8  H   UNL     1     -33.955  26.411   3.587  0.00  0.00    +0.155 HD
ENDROOT
BRANCH   6  10
ATOM      9 CL   UNL     1     -35.431  21.103   3.273  0.00  0.00    -0.079 Cl
ATOM     10  C   UNL     1     -35.480  24.679   5.054  0.00  0.00    +0.002 C 
ATOM     11  C   UNL     1     -35.108  23.397   4.646  0.00  0.00    +0.014 C 
ATOM     12  C   UNL     1     -36.659  25.248   4.574  0.00  0.00    +0.003 C 
ATOM     13  C   UNL     1     -35.914  22.686   3.758  0.00  0.00    +0.091 C 
ATOM     14  C   UNL     1     -37.466  24.536   3.685  0.00  0.00    +0.037 C 
ATOM     15  C   UNL     1     -37.093  23.256   3.277  0.00  0.00    +0.144 C 
BRANCH  15  16
ATOM     16  O   UNL     1     -37.900  22.584   2.410  0.00  0.00    -0.505 OA
ATOM     17  H   UNL     1     -38.739  22.274   2.692  0.00  0.00    +0.292 HD
ENDBRANCH  15  16
ENDBRANCH   6  10
BRANCH   4  18
ATOM     18  O   UNL     1     -32.825  27.040   7.847  0.00  0.00    -0.504 OA
ATOM     19  H   UNL     1     -32.756  26.192   8.238  0.00  0.00    +0.292 HD
ENDBRANCH   4  18
BRANCH   5  21
ATOM     20  O   UNL     1     -31.439  30.049   6.715  0.00  0.00    -0.279 OA
ATOM     21  C   UNL     1     -31.143  28.951   6.245  0.00  0.00    +0.278 C 
BRANCH  21  23
ATOM     22  O   UNL     1     -28.841  29.223   5.602  0.00  0.00    -0.241 OA
ATOM     23  C   UNL     1     -29.678  28.555   6.175  0.00  0.00    +0.378 C 
BRANCH  23  24
ATOM     24  O   UNL     1     -29.472  27.397   6.823  0.00  0.00    -0.475 OA
ATOM     25  H   UNL     1     -28.979  27.387   7.619  0.00  0.00    +0.296 HD
ENDBRANCH  23  24
ENDBRANCH  21  23
ENDBRANCH   5  21
TORSDOF 6
ENDMDL
MODEL 2
REMARK VINA RESULT:      -6.3      1.269      1.664
REMARK  Name = 54685362
REMARK  6 active torsions:
REMARK  status: ('A' for Active; 'I' for Inactive)
REMARK    1  A    between atoms: C_4  and  O_18
REMARK    2  A    between atoms: C_5  and  C_21
REMARK    3  A    between atoms: C_6  and  C_10
REMARK    4  A    between atoms: C_15  and  O_16
REMARK    5  A    between atoms: C_21  and  C_23
REMARK    6  A    between atoms: C_23  and  O_24
REMARK                            x       y       z     vdW  Elec       q    Type
REMARK                         _______ _______ _______ _____ _____    ______ ____
ROOT
ATOM      1  O   UNL     1     -32.189  28.298   3.126  0.00  0.00    -0.270 OA
ATOM      2  N   UNL     1     -33.510  26.728   4.277  0.00  0.00    -0.278 N 
ATOM      3  C   UNL     1     -33.690  26.389   5.588  0.00  0.00    +0.085 C 
ATOM      4  C   UNL     1     -32.821  27.259   6.334  0.00  0.00    +0.155 C 
ATOM      5  C   UNL     1     -32.143  28.087   5.526  0.00  0.00    +0.134 C 
ATOM      6  C   UNL     1     -34.523  25.433   6.003  0.00  0.00    +0.018 C 
ATOM      7  C   UNL     1     -32.585  27.755   4.142  0.00  0.00    +0.256 C 
ATOM      8  H   UNL     1     -33.977  26.300   3.524  0.00  0.00    +0.155 HD
ENDROOT
BRANCH   6  10
ATOM      9 CL   UNL     1     -38.858  24.960   3.219  0.00  0.00    -0.079 Cl
ATOM     10  C   UNL     1     -35.375  24.595   5.140  0.00  0.00    +0.002 C 
ATOM     11  C   UNL     1     -36.575  25.101   4.641  0.00  0.00    +0.014 C 
ATOM     12  C   UNL     1     -34.979  23.296   4.822  0.00  0.00    +0.003 C 
ATOM     13  C   UNL     1     -37.380  24.308   3.824  0.00  0.00    +0.091 C 
ATOM     14  C   UNL     1     -35.786  22.502   4.005  0.00  0.00    +0.037 C 
ATOM     15  C   UNL     1     -36.986  23.008   3.507  0.00  0.00    +0.144 C 
BRANCH  15  16
ATOM     16  O   UNL     1     -37.752  22.211   2.711  0.00  0.00    -0.505 OA
ATOM     17  H   UNL     1     -37.381  21.449   2.312  0.00  0.00    +0.292 HD
ENDBRANCH  15  16
ENDBRANCH   6  10
BRANCH   4  18
ATOM     18  O   UNL     1     -32.725  27.216   7.697  0.00  0.00    -0.504 OA
ATOM     19  H   UNL     1     -33.209  26.574   8.180  0.00  0.00    +0.292 HD
ENDBRANCH   4  18
BRANCH   5  21
ATOM     20  O   UNL     1     -31.418  30.304   5.898  0.00  0.00    -0.279 OA
ATOM     21  C   UNL     1     -31.181  29.097   5.930  0.00  0.00    +0.278 C 
BRANCH  21  23
ATOM     22  O   UNL     1     -29.170  27.780   5.838  0.00  0.00    -0.241 OA
ATOM     23  C   UNL     1     -29.819  28.630   6.414  0.00  0.00    +0.378 C 
BRANCH  23  24
ATOM     24  O   UNL     1     -29.468  29.284   7.532  0.00  0.00    -0.475 OA
ATOM     25  H   UNL     1     -29.894  30.088   7.758  0.00  0.00    +0.296 HD
ENDBRANCH  23  24
ENDBRANCH  21  23
ENDBRANCH   5  21
TORSDOF 6
ENDMDL
MODEL 3
REMARK VINA RESULT:      -6.2      2.425      3.309
REMARK  Name = 54685362
REMARK  6 active torsions:
REMARK  status: ('A' for Active; 'I' for Inactive)
REMARK    1  A    between atoms: C_4  and  O_18
REMARK    2  A    between atoms: C_5  and  C_21
REMARK    3  A    between atoms: C_6  and  C_10
REMARK    4  A    between atoms: C_15  and  O_16
REMARK    5  A    between atoms: C_21  and  C_23
REMARK    6  A    between atoms: C_23  and  O_24
REMARK                            x       y       z     vdW  Elec       q    Type
REMARK                         _______ _______ _______ _____ _____    ______ ____
ROOT
ATOM      1  O   UNL     1     -31.316  27.584   4.076  0.00  0.00    -0.270 OA
ATOM      2  N   UNL     1     -33.338  26.383   4.033  0.00  0.00    -0.278 N 
ATOM      3  C   UNL     1     -34.615  26.651   3.628  0.00  0.00    +0.085 C 
ATOM      4  C   UNL     1     -34.589  28.002   3.138  0.00  0.00    +0.155 C 
ATOM      5  C   UNL     1     -33.363  28.537   3.236  0.00  0.00    +0.134 C 
ATOM      6  C   UNL     1     -35.621  25.778   3.709  0.00  0.00    +0.018 C 
ATOM      7  C   UNL     1     -32.504  27.475   3.831  0.00  0.00    +0.256 C 
ATOM      8  H   UNL     1     -33.046  25.526   4.418  0.00  0.00    +0.155 HD
ENDROOT
BRANCH   6  10
ATOM      9 CL   UNL     1     -35.400  20.698   2.747  0.00  0.00    -0.079 Cl
ATOM     10  C   UNL     1     -35.532  24.403   4.235  0.00  0.00    +0.002 C 
ATOM     11  C   UNL     1     -35.511  23.319   3.357  0.00  0.00    +0.014 C 
ATOM     12  C   UNL     1     -35.468  24.188   5.611  0.00  0.00    +0.003 C 
ATOM     13  C   UNL     1     -35.426  22.020   3.856  0.00  0.00    +0.091 C 
ATOM     14  C   UNL     1     -35.384  22.887   6.110  0.00  0.00    +0.037 C 
ATOM     15  C   UNL     1     -35.363  21.804   5.232  0.00  0.00    +0.144 C 
BRANCH  15  16
ATOM     16  O   UNL     1     -35.279  20.545   5.747  0.00  0.00    -0.505 OA
ATOM     17  H   UNL     1     -34.610  19.960   5.451  0.00  0.00    +0.292 HD
ENDBRANCH  15  16
ENDBRANCH   6  10
BRANCH   4  18
ATOM     18  O   UNL     1     -35.698  28.630   2.642  0.00  0.00    -0.504 OA
ATOM     19  H   UNL     1     -35.780  29.561   2.714  0.00  0.00    +0.292 HD
ENDBRANCH   4  18
BRANCH   5  21
ATOM     20  O   UNL     1     -33.045  30.285   1.679  0.00  0.00    -0.279 OA
ATOM     21  C   UNL     1     -32.968  29.876   2.838  0.00  0.00    +0.278 C 
BRANCH  21  23
ATOM     22  O   UNL     1     -31.632  31.691   3.677  0.00  0.00    -0.241 OA
ATOM     23  C   UNL     1     -32.435  30.810   3.910  0.00  0.00    +0.378 C 
BRANCH  23  24
ATOM     24  O   UNL     1     -32.976  30.515   5.103  0.00  0.00    -0.475 OA
ATOM     25  H   UNL     1     -32.440  30.501   5.870  0.00  0.00    +0.296 HD
ENDBRANCH  23  24
ENDBRANCH  21  23
ENDBRANCH   5  21
TORSDOF 6
ENDMDL
MODEL 4
REMARK VINA RESULT:      -6.1      0.767      1.358
REMARK  Name = 54685362
REMARK  6 active torsions:
REMARK  status: ('A' for Active; 'I' for Inactive)
REMARK    1  A    between atoms: C_4  and  O_18
REMARK    2  A    between atoms: C_5  and  C_21
REMARK    3  A    between atoms: C_6  and  C_10
REMARK    4  A    between atoms: C_15  and  O_16
REMARK    5  A    between atoms: C_21  and  C_23
REMARK    6  A    between atoms: C_23  and  O_24
REMARK                            x       y       z     vdW  Elec       q    Type
REMARK                         _______ _______ _______ _____ _____    ______ ____
ROOT
ATOM      1  O   UNL     1     -32.269  28.180   2.946  0.00  0.00    -0.270 OA
ATOM      2  N   UNL     1     -33.653  26.617   4.029  0.00  0.00    -0.278 N 
ATOM      3  C   UNL     1     -33.848  26.229   5.325  0.00  0.00    +0.085 C 
ATOM      4  C   UNL     1     -32.946  27.031   6.107  0.00  0.00    +0.155 C 
ATOM      5  C   UNL     1     -32.234  27.865   5.334  0.00  0.00    +0.134 C 
ATOM      6  C   UNL     1     -34.719  25.290   5.699  0.00  0.00    +0.018 C 
ATOM      7  C   UNL     1     -32.687  27.611   3.938  0.00  0.00    +0.256 C 
ATOM      8  H   UNL     1     -34.135  26.240   3.259  0.00  0.00    +0.155 HD
ENDROOT
BRANCH   6  10
ATOM      9 CL   UNL     1     -35.603  20.932   3.053  0.00  0.00    -0.079 Cl
ATOM     10  C   UNL     1     -35.602  24.524   4.801  0.00  0.00    +0.002 C 
ATOM     11  C   UNL     1     -35.240  23.241   4.392  0.00  0.00    +0.014 C 
ATOM     12  C   UNL     1     -36.803  25.083   4.363  0.00  0.00    +0.003 C 
ATOM     13  C   UNL     1     -36.076  22.518   3.542  0.00  0.00    +0.091 C 
ATOM     14  C   UNL     1     -37.640  24.359   3.513  0.00  0.00    +0.037 C 
ATOM     15  C   UNL     1     -37.276  23.077   3.103  0.00  0.00    +0.144 C 
BRANCH  15  16
ATOM     16  O   UNL     1     -38.113  22.392   2.274  0.00  0.00    -0.505 OA
ATOM     17  H   UNL     1     -37.851  22.203   1.394  0.00  0.00    +0.292 HD
ENDBRANCH  15  16
ENDBRANCH   6  10
BRANCH   4  18
ATOM     18  O   UNL     1     -32.853  26.926   7.467  0.00  0.00    -0.504 OA
ATOM     19  H   UNL     1     -32.773  26.082   7.867  0.00  0.00    +0.292 HD
ENDBRANCH   4  18
BRANCH   5  21
ATOM     20  O   UNL     1     -30.045  28.741   5.469  0.00  0.00    -0.279 OA
ATOM     21  C   UNL     1     -31.233  28.817   5.781  0.00  0.00    +0.278 C 
BRANCH  21  23
ATOM     22  O   UNL     1     -32.083  31.020   6.239  0.00  0.00    -0.241 OA
ATOM     23  C   UNL     1     -31.684  29.959   6.675  0.00  0.00    +0.378 C 
BRANCH  23  24
ATOM     24  O   UNL     1     -31.575  29.615   7.968  0.00  0.00    -0.475 OA
ATOM     25  H   UNL     1     -31.567  28.711   8.213  0.00  0.00    +0.296 HD
ENDBRANCH  23  24
ENDBRANCH  21  23
ENDBRANCH   5  21
TORSDOF 6
ENDMDL
MODEL 5
REMARK VINA RESULT:      -6.0      4.853      7.059
REMARK  Name = 54685362
REMARK  6 active torsions:
REMARK  status: ('A' for Active; 'I' for Inactive)
REMARK    1  A    between atoms: C_4  and  O_18
REMARK    2  A    between atoms: C_5  and  C_21
REMARK    3  A    between atoms: C_6  and  C_10
REMARK    4  A    between atoms: C_15  and  O_16
REMARK    5  A    between atoms: C_21  and  C_23
REMARK    6  A    between atoms: C_23  and  O_24
REMARK                            x       y       z     vdW  Elec       q    Type
REMARK                         _______ _______ _______ _____ _____    ______ ____
ROOT
ATOM      1  O   UNL     1     -36.023  26.460   5.141  0.00  0.00    -0.270 OA
ATOM      2  N   UNL     1     -37.890  25.883   3.831  0.00  0.00    -0.278 N 
ATOM      3  C   UNL     1     -38.351  24.733   3.256  0.00  0.00    +0.085 C 
ATOM      4  C   UNL     1     -37.392  23.718   3.600  0.00  0.00    +0.155 C 
ATOM      5  C   UNL     1     -36.396  24.217   4.347  0.00  0.00    +0.134 C 
ATOM      6  C   UNL     1     -39.473  24.657   2.537  0.00  0.00    +0.018 C 
ATOM      7  C   UNL     1     -36.702  25.664   4.518  0.00  0.00    +0.256 C 
ATOM      8  H   UNL     1     -38.341  26.755   3.768  0.00  0.00    +0.155 HD
ENDROOT
BRANCH   6  10
ATOM      9 CL   UNL     1     -43.349  27.702   4.111  0.00  0.00    -0.079 Cl
ATOM     10  C   UNL     1     -40.389  25.774   2.245  0.00  0.00    +0.002 C 
ATOM     11  C   UNL     1     -41.330  26.172   3.195  0.00  0.00    +0.014 C 
ATOM     12  C   UNL     1     -40.314  26.434   1.018  0.00  0.00    +0.003 C 
ATOM     13  C   UNL     1     -42.196  27.229   2.918  0.00  0.00    +0.091 C 
ATOM     14  C   UNL     1     -41.181  27.491   0.741  0.00  0.00    +0.037 C 
ATOM     15  C   UNL     1     -42.122  27.889   1.691  0.00  0.00    +0.144 C 
BRANCH  15  16
ATOM     16  O   UNL     1     -42.955  28.925   1.394  0.00  0.00    -0.505 OA
ATOM     17  H   UNL     1     -42.747  29.508   0.690  0.00  0.00    +0.292 HD
ENDBRANCH  15  16
ENDBRANCH   6  10
BRANCH   4  18
ATOM     18  O   UNL     1     -37.516  22.417   3.197  0.00  0.00    -0.504 OA
ATOM     19  H   UNL     1     -38.358  22.005   3.199  0.00  0.00    +0.292 HD
ENDBRANCH   4  18
BRANCH   5  21
ATOM     20  O   UNL     1     -34.096  23.875   4.764  0.00  0.00    -0.279 OA
ATOM     21  C   UNL     1     -35.258  23.484   4.873  0.00  0.00    +0.278 C 
BRANCH  21  23
ATOM     22  O   UNL     1     -35.897  22.121   6.749  0.00  0.00    -0.241 OA
ATOM     23  C   UNL     1     -35.526  22.174   5.594  0.00  0.00    +0.378 C 
BRANCH  23  24
ATOM     24  O   UNL     1     -35.296  21.133   4.778  0.00  0.00    -0.475 OA
ATOM     25  H   UNL     1     -35.918  20.914   4.112  0.00  0.00    +0.296 HD
ENDBRANCH  23  24
ENDBRANCH  21  23
ENDBRANCH   5  21
TORSDOF 6
ENDMDL
MODEL 6
REMARK VINA RESULT:      -6.0      3.602      5.327
REMARK  Name = 54685362
REMARK  6 active torsions:
REMARK  status: ('A' for Active; 'I' for Inactive)
REMARK    1  A    between atoms: C_4  and  O_18
REMARK    2  A    between atoms: C_5  and  C_21
REMARK    3  A    between atoms: C_6  and  C_10
REMARK    4  A    between atoms: C_15  and  O_16
REMARK    5  A    between atoms: C_21  and  C_23
REMARK    6  A    between atoms: C_23  and  O_24
REMARK                            x       y       z     vdW  Elec       q    Type
REMARK                         _______ _______ _______ _____ _____    ______ ____
ROOT
ATOM      1  O   UNL     1     -34.582  25.506   2.121  0.00  0.00    -0.270 OA
ATOM      2  N   UNL     1     -35.038  23.219   2.434  0.00  0.00    -0.278 N 
ATOM      3  C   UNL     1     -35.405  22.441   3.495  0.00  0.00    +0.085 C 
ATOM      4  C   UNL     1     -35.502  23.338   4.615  0.00  0.00    +0.155 C 
ATOM      5  C   UNL     1     -35.210  24.598   4.262  0.00  0.00    +0.134 C 
ATOM      6  C   UNL     1     -35.610  21.125   3.419  0.00  0.00    +0.018 C 
ATOM      7  C   UNL     1     -34.896  24.550   2.807  0.00  0.00    +0.256 C 
ATOM      8  H   UNL     1     -34.892  22.881   1.521  0.00  0.00    +0.155 HD
ENDROOT
BRANCH   6  10
ATOM      9 CL   UNL     1     -37.894  18.869  -0.639  0.00  0.00    -0.079 Cl
ATOM     10  C   UNL     1     -35.480  20.299   2.204  0.00  0.00    +0.002 C 
ATOM     11  C   UNL     1     -36.607  20.001   1.438  0.00  0.00    +0.014 C 
ATOM     12  C   UNL     1     -34.229  19.818   1.820  0.00  0.00    +0.003 C 
ATOM     13  C   UNL     1     -36.484  19.220   0.290  0.00  0.00    +0.091 C 
ATOM     14  C   UNL     1     -34.105  19.036   0.671  0.00  0.00    +0.037 C 
ATOM     15  C   UNL     1     -35.232  18.737  -0.094  0.00  0.00    +0.144 C 
BRANCH  15  16
ATOM     16  O   UNL     1     -35.082  17.973  -1.212  0.00  0.00    -0.505 OA
ATOM     17  H   UNL     1     -35.751  17.364  -1.458  0.00  0.00    +0.292 HD
ENDBRANCH  15  16
ENDBRANCH   6  10
BRANCH   4  18
ATOM     18  O   UNL     1     -35.851  22.919   5.869  0.00  0.00    -0.504 OA
ATOM     19  H   UNL     1     -35.789  22.011   6.093  0.00  0.00    +0.292 HD
ENDBRANCH   4  18
BRANCH   5  21
ATOM     20  O   UNL     1     -36.185  26.113   5.790  0.00  0.00    -0.279 OA
ATOM     21  C   UNL     1     -35.207  25.762   5.130  0.00  0.00    +0.278 C 
BRANCH  21  23
ATOM     22  O   UNL     1     -33.065  26.359   6.047  0.00  0.00    -0.241 OA
ATOM     23  C   UNL     1     -33.929  26.579   5.223  0.00  0.00    +0.378 C 
BRANCH  23  24
ATOM     24  O   UNL     1     -33.915  27.538   4.283  0.00  0.00    -0.475 OA
ATOM     25  H   UNL     1     -34.462  27.460   3.526  0.00  0.00    +0.296 HD
ENDBRANCH  23  24
ENDBRANCH  21  23
ENDBRANCH   5  21
TORSDOF 6
ENDMDL
MODEL 7
REMARK VINA RESULT:      -5.9      3.670      5.350
REMARK  Name = 54685362
REMARK  6 active torsions:
REMARK  status: ('A' for Active; 'I' for Inactive)
REMARK    1  A    between atoms: C_4  and  O_18
REMARK    2  A    between atoms: C_5  and  C_21
REMARK    3  A    between atoms: C_6  and  C_10
REMARK    4  A    between atoms: C_15  and  O_16
REMARK    5  A    between atoms: C_21  and  C_23
REMARK    6  A    between atoms: C_23  and  O_24
REMARK                            x       y       z     vdW  Elec       q    Type
REMARK                         _______ _______ _______ _____ _____    ______ ____
ROOT
ATOM      1  O   UNL     1     -34.479  25.440   1.990  0.00  0.00    -0.270 OA
ATOM      2  N   UNL     1     -34.974  23.164   2.318  0.00  0.00    -0.278 N 
ATOM      3  C   UNL     1     -35.408  22.409   3.371  0.00  0.00    +0.085 C 
ATOM      4  C   UNL     1     -35.559  23.327   4.467  0.00  0.00    +0.155 C 
ATOM      5  C   UNL     1     -35.236  24.578   4.109  0.00  0.00    +0.134 C 
ATOM      6  C   UNL     1     -35.622  21.093   3.307  0.00  0.00    +0.018 C 
ATOM      7  C   UNL     1     -34.840  24.500   2.675  0.00  0.00    +0.256 C 
ATOM      8  H   UNL     1     -34.781  22.807   1.421  0.00  0.00    +0.155 HD
ENDROOT
BRANCH   6  10
ATOM      9 CL   UNL     1     -32.428  18.269   0.374  0.00  0.00    -0.079 Cl
ATOM     10  C   UNL     1     -35.432  20.244   2.117  0.00  0.00    +0.002 C 
ATOM     11  C   UNL     1     -34.174  19.715   1.830  0.00  0.00    +0.014 C 
ATOM     12  C   UNL     1     -36.512  19.969   1.278  0.00  0.00    +0.003 C 
ATOM     13  C   UNL     1     -33.995  18.912   0.704  0.00  0.00    +0.091 C 
ATOM     14  C   UNL     1     -36.333  19.166   0.151  0.00  0.00    +0.037 C 
ATOM     15  C   UNL     1     -35.075  18.638  -0.136  0.00  0.00    +0.144 C 
BRANCH  15  16
ATOM     16  O   UNL     1     -34.929  17.855  -1.242  0.00  0.00    -0.505 OA
ATOM     17  H   UNL     1     -34.337  17.129  -1.229  0.00  0.00    +0.292 HD
ENDBRANCH  15  16
ENDBRANCH   6  10
BRANCH   4  18
ATOM     18  O   UNL     1     -35.982  22.934   5.707  0.00  0.00    -0.504 OA
ATOM     19  H   UNL     1     -36.462  23.530   6.248  0.00  0.00    +0.292 HD
ENDBRANCH   4  18
BRANCH   5  21
ATOM     20  O   UNL     1     -36.251  26.077   5.625  0.00  0.00    -0.279 OA
ATOM     21  C   UNL     1     -35.270  25.758   4.954  0.00  0.00    +0.278 C 
BRANCH  21  23
ATOM     22  O   UNL     1     -33.105  26.421   5.767  0.00  0.00    -0.241 OA
ATOM     23  C   UNL     1     -34.029  26.633   5.008  0.00  0.00    +0.378 C 
BRANCH  23  24
ATOM     24  O   UNL     1     -34.120  27.632   4.116  0.00  0.00    -0.475 OA
ATOM     25  H   UNL     1     -34.843  27.665   3.521  0.00  0.00    +0.296 HD
ENDBRANCH  23  24
ENDBRANCH  21  23
ENDBRANCH   5  21
TORSDOF 6
ENDMDL
MODEL 8
REMARK VINA RESULT:      -5.9      2.366      3.137
REMARK  Name = 54685362
REMARK  6 active torsions:
REMARK  status: ('A' for Active; 'I' for Inactive)
REMARK    1  A    between atoms: C_4  and  O_18
REMARK    2  A    between atoms: C_5  and  C_21
REMARK    3  A    between atoms: C_6  and  C_10
REMARK    4  A    between atoms: C_15  and  O_16
REMARK    5  A    between atoms: C_21  and  C_23
REMARK    6  A    between atoms: C_23  and  O_24
REMARK                            x       y       z     vdW  Elec       q    Type
REMARK                         _______ _______ _______ _____ _____    ______ ____
ROOT
ATOM      1  O   UNL     1     -31.122  27.582   4.036  0.00  0.00    -0.270 OA
ATOM      2  N   UNL     1     -33.218  26.549   3.760  0.00  0.00    -0.278 N 
ATOM      3  C   UNL     1     -34.484  26.985   3.487  0.00  0.00    +0.085 C 
ATOM      4  C   UNL     1     -34.382  28.414   3.363  0.00  0.00    +0.155 C 
ATOM      5  C   UNL     1     -33.122  28.834   3.549  0.00  0.00    +0.134 C 
ATOM      6  C   UNL     1     -35.542  26.179   3.376  0.00  0.00    +0.018 C 
ATOM      7  C   UNL     1     -32.320  27.607   3.816  0.00  0.00    +0.256 C 
ATOM      8  H   UNL     1     -32.973  25.606   3.899  0.00  0.00    +0.155 HD
ENDROOT
BRANCH   6  10
ATOM      9 CL   UNL     1     -35.634  22.069   6.519  0.00  0.00    -0.079 Cl
ATOM     10  C   UNL     1     -35.530  24.712   3.525  0.00  0.00    +0.002 C 
ATOM     11  C   UNL     1     -35.581  24.139   4.796  0.00  0.00    +0.014 C 
ATOM     12  C   UNL     1     -35.470  23.898   2.394  0.00  0.00    +0.003 C 
ATOM     13  C   UNL     1     -35.569  22.751   4.936  0.00  0.00    +0.091 C 
ATOM     14  C   UNL     1     -35.458  22.509   2.535  0.00  0.00    +0.037 C 
ATOM     15  C   UNL     1     -35.508  21.937   3.805  0.00  0.00    +0.144 C 
BRANCH  15  16
ATOM     16  O   UNL     1     -35.496  20.578   3.912  0.00  0.00    -0.505 OA
ATOM     17  H   UNL     1     -36.203  20.073   3.561  0.00  0.00    +0.292 HD
ENDBRANCH  15  16
ENDBRANCH   6  10
BRANCH   4  18
ATOM     18  O   UNL     1     -35.459  29.210   3.088  0.00  0.00    -0.504 OA
ATOM     19  H   UNL     1     -35.955  29.072   2.305  0.00  0.00    +0.292 HD
ENDBRANCH   4  18
BRANCH   5  21
ATOM     20  O   UNL     1     -32.716  30.903   2.483  0.00  0.00    -0.279 OA
ATOM     21  C   UNL     1     -32.650  30.206   3.496  0.00  0.00    +0.278 C 
BRANCH  21  23
ATOM     22  O   UNL     1     -32.444  30.524   5.871  0.00  0.00    -0.241 OA
ATOM     23  C   UNL     1     -32.049  30.802   4.757  0.00  0.00    +0.378 C 
BRANCH  23  24
ATOM     24  O   UNL     1     -31.052  31.646   4.449  0.00  0.00    -0.475 OA
ATOM     25  H   UNL     1     -30.288  31.687   4.990  0.00  0.00    +0.296 HD
ENDBRANCH  23  24
ENDBRANCH  21  23
ENDBRANCH   5  21
TORSDOF 6
ENDMDL
MODEL 9
REMARK VINA RESULT:      -5.9      3.181      8.787
REMARK  Name = 54685362
REMARK  6 active torsions:
REMARK  status: ('A' for Active; 'I' for Inactive)
REMARK    1  A    between atoms: C_4  and  O_18
REMARK    2  A    between atoms: C_5  and  C_21
REMARK    3  A    between atoms: C_6  and  C_10
REMARK    4  A    between atoms: C_15  and  O_16
REMARK    5  A    between atoms: C_21  and  C_23
REMARK    6  A    between atoms: C_23  and  O_24
REMARK                            x       y       z     vdW  Elec       q    Type
REMARK                         _______ _______ _______ _____ _____    ______ ____
ROOT
ATOM      1  O   UNL     1     -39.321  24.200   0.738  0.00  0.00    -0.270 OA
ATOM      2  N   UNL     1     -37.520  23.816   2.202  0.00  0.00    -0.278 N 
ATOM      3  C   UNL     1     -36.915  22.707   2.723  0.00  0.00    +0.085 C 
ATOM      4  C   UNL     1     -37.630  21.585   2.178  0.00  0.00    +0.155 C 
ATOM      5  C   UNL     1     -38.621  21.982   1.366  0.00  0.00    +0.134 C 
ATOM      6  C   UNL     1     -35.876  22.749   3.560  0.00  0.00    +0.018 C 
ATOM      7  C   UNL     1     -38.572  23.470   1.363  0.00  0.00    +0.256 C 
ATOM      8  H   UNL     1     -37.247  24.741   2.397  0.00  0.00    +0.155 HD
ENDROOT
BRANCH   6  10
ATOM      9 CL   UNL     1     -32.481  26.567   2.744  0.00  0.00    -0.079 Cl
ATOM     10  C   UNL     1     -35.217  23.970   4.058  0.00  0.00    +0.002 C 
ATOM     11  C   UNL     1     -34.270  24.623   3.269  0.00  0.00    +0.014 C 
ATOM     12  C   UNL     1     -35.541  24.472   5.318  0.00  0.00    +0.003 C 
ATOM     13  C   UNL     1     -33.647  25.778   3.741  0.00  0.00    +0.091 C 
ATOM     14  C   UNL     1     -34.917  25.627   5.790  0.00  0.00    +0.037 C 
ATOM     15  C   UNL     1     -33.970  26.280   5.002  0.00  0.00    +0.144 C 
BRANCH  15  16
ATOM     16  O   UNL     1     -33.377  27.407   5.487  0.00  0.00    -0.505 OA
ATOM     17  H   UNL     1     -32.894  27.375   6.290  0.00  0.00    +0.292 HD
ENDBRANCH  15  16
ENDBRANCH   6  10
BRANCH   4  18
ATOM     18  O   UNL     1     -37.308  20.289   2.474  0.00  0.00    -0.504 OA
ATOM     19  H   UNL     1     -37.620  19.594   1.929  0.00  0.00    +0.292 HD
ENDBRANCH   4  18
BRANCH   5  21
ATOM     20  O   UNL     1     -40.737  21.025   0.933  0.00  0.00    -0.279 OA
ATOM     21  C   UNL     1     -39.544  21.125   0.644  0.00  0.00    +0.278 C 
BRANCH  21  23
ATOM     22  O   UNL     1     -38.951  20.749  -1.656  0.00  0.00    -0.241 OA
ATOM     23  C   UNL     1     -39.003  20.317  -0.523  0.00  0.00    +0.378 C 
BRANCH  23  24
ATOM     24  O   UNL     1     -38.609  19.102  -0.110  0.00  0.00    -0.475 OA
ATOM     25  H   UNL     1     -37.867  19.017   0.456  0.00  0.00    +0.296 HD
ENDBRANCH  23  24
ENDBRANCH  21  23
ENDBRANCH   5  21
TORSDOF 6
ENDMDL
