MODEL 1
REMARK VINA RESULT:      -5.9      0.000      0.000
REMARK  Name = 5332
REMARK  4 active torsions:
REMARK  status: ('A' for Active; 'I' for Inactive)
REMARK    1  A    between atoms: S_1  and  C_4
REMARK    2  A    between atoms: S_1  and  N_13
REMARK    3  A    between atoms: C_7  and  N_10
REMARK    4  A    between atoms: C_19  and  O_21
REMARK                            x       y       z     vdW  Elec       q    Type
REMARK                         _______ _______ _______ _____ _____    ______ ____
ROOT
ATOM      1  S   UNL     1     -34.410  21.260   0.341  0.00  0.00    +0.074 S 
ATOM      2  O   UNL     1     -35.066  21.005  -0.936  0.00  0.00    -0.150 OA
ATOM      3  O   UNL     1     -33.863  22.587   0.598  0.00  0.00    -0.150 OA
ENDROOT
BRANCH   1   4
ATOM      4  N   UNL     1     -35.506  20.836   1.600  0.00  0.00    -0.202 N 
ATOM      5  H   UNL     1     -35.755  19.897   1.760  0.00  0.00    +0.175 HD
ATOM      6  N   UNL     1     -36.885  22.740   1.784  0.00  0.00    -0.232 NA
ATOM      7  N   UNL     1     -37.118  23.921   3.873  0.00  0.00    -0.214 NA
ATOM      8  C   UNL     1     -36.049  21.893   2.410  0.00  0.00    +0.130 C 
ATOM      9  C   UNL     1     -35.699  21.982   3.736  0.00  0.00    +0.146 C 
ATOM     10  C   UNL     1     -36.271  23.030   4.427  0.00  0.00    +0.205 C 
ATOM     11  C   UNL     1     -37.379  23.719   2.567  0.00  0.00    +0.254 C 
BRANCH  10  12
ATOM     12  O   UNL     1     -35.976  23.194   5.755  0.00  0.00    -0.459 OA
ATOM     13  C   UNL     1     -35.286  22.126   6.395  0.00  0.00    +0.254 C 
ENDBRANCH  10  12
ENDBRANCH   1   4
BRANCH   1  14
ATOM     14  C   UNL     1     -33.133  20.084   0.528  0.00  0.00    +0.125 C 
ATOM     15  C   UNL     1     -31.895  20.295  -0.080  0.00  0.00    +0.021 C 
ATOM     16  C   UNL     1     -33.351  18.931   1.283  0.00  0.00    +0.021 C 
ATOM     17  C   UNL     1     -31.094  18.203   0.824  0.00  0.00    +0.042 C 
ATOM     18  C   UNL     1     -30.876  19.355   0.067  0.00  0.00    +0.015 C 
ATOM     19  C   UNL     1     -32.331  17.992   1.432  0.00  0.00    +0.015 C 
BRANCH  17  20
ATOM     20  N   UNL     1     -30.063  17.253   0.975  0.00  0.00    -0.357 N 
ATOM     21  H   UNL     1     -29.335  17.414   1.618  0.00  0.00    +0.142 HD
ATOM     22  H   UNL     1     -30.071  16.428   0.437  0.00  0.00    +0.142 HD
ENDBRANCH  17  20
ENDBRANCH   1  14
TORSDOF 4
ENDMDL
MODEL 2
REMARK VINA RESULT:      -5.8      6.430      8.204
REMARK  Name = 5332
REMARK  4 active torsions:
REMARK  status: ('A' for Active; 'I' for Inactive)
REMARK    1  A    between atoms: S_1  and  C_4
REMARK    2  A    between atoms: S_1  and  N_13
REMARK    3  A    between atoms: C_7  and  N_10
REMARK    4  A    between atoms: C_19  and  O_21
REMARK                            x       y       z     vdW  Elec       q    Type
REMARK                         _______ _______ _______ _____ _____    ______ ____
ROOT
ATOM      1  S   UNL     1     -33.436  27.133   3.996  0.00  0.00    +0.074 S 
ATOM      2  O   UNL     1     -34.451  28.064   3.517  0.00  0.00    -0.150 OA
ATOM      3  O   UNL     1     -32.235  26.930   3.196  0.00  0.00    -0.150 OA
ENDROOT
BRANCH   1   4
ATOM      4  N   UNL     1     -32.993  27.602   5.593  0.00  0.00    -0.202 N 
ATOM      5  H   UNL     1     -33.437  27.209   6.378  0.00  0.00    +0.175 HD
ATOM      6  N   UNL     1     -32.253  29.825   5.322  0.00  0.00    -0.232 NA
ATOM      7  N   UNL     1     -30.041  30.501   6.002  0.00  0.00    -0.214 NA
ATOM      8  C   UNL     1     -31.953  28.584   5.746  0.00  0.00    +0.130 C 
ATOM      9  C   UNL     1     -30.750  28.220   6.299  0.00  0.00    +0.146 C 
ATOM     10  C   UNL     1     -29.818  29.233   6.403  0.00  0.00    +0.205 C 
ATOM     11  C   UNL     1     -31.263  30.724   5.478  0.00  0.00    +0.254 C 
BRANCH  10  12
ATOM     12  O   UNL     1     -28.589  28.958   6.943  0.00  0.00    -0.459 OA
ATOM     13  C   UNL     1     -28.196  27.590   6.975  0.00  0.00    +0.254 C 
ENDBRANCH  10  12
ENDBRANCH   1   4
BRANCH   1  14
ATOM     14  C   UNL     1     -34.208  25.587   4.247  0.00  0.00    +0.125 C 
ATOM     15  C   UNL     1     -34.591  25.198   5.531  0.00  0.00    +0.021 C 
ATOM     16  C   UNL     1     -34.442  24.740   3.163  0.00  0.00    +0.021 C 
ATOM     17  C   UNL     1     -35.440  23.117   4.647  0.00  0.00    +0.042 C 
ATOM     18  C   UNL     1     -35.206  23.963   5.732  0.00  0.00    +0.015 C 
ATOM     19  C   UNL     1     -35.059  23.505   3.363  0.00  0.00    +0.015 C 
BRANCH  17  20
ATOM     20  N   UNL     1     -36.065  21.868   4.849  0.00  0.00    -0.357 N 
ATOM     21  H   UNL     1     -35.635  21.189   5.419  0.00  0.00    +0.142 HD
ATOM     22  H   UNL     1     -36.930  21.675   4.420  0.00  0.00    +0.142 HD
ENDBRANCH  17  20
ENDBRANCH   1  14
TORSDOF 4
ENDMDL
MODEL 3
REMARK VINA RESULT:      -5.7      1.849      2.208
REMARK  Name = 5332
REMARK  4 active torsions:
REMARK  status: ('A' for Active; 'I' for Inactive)
REMARK    1  A    between atoms: S_1  and  C_4
REMARK    2  A    between atoms: S_1  and  N_13
REMARK    3  A    between atoms: C_7  and  N_10
REMARK    4  A    between atoms: C_19  and  O_21
REMARK                            x       y       z     vdW  Elec       q    Type
REMARK                         _______ _______ _______ _____ _____    ______ ____
ROOT
ATOM      1  S   UNL     1     -36.315  20.817   1.030  0.00  0.00    +0.074 S 
ATOM      2  O   UNL     1     -37.567  20.353   0.445  0.00  0.00    -0.150 OA
ATOM      3  O   UNL     1     -35.732  22.062   0.544  0.00  0.00    -0.150 OA
ENDROOT
BRANCH   1   4
ATOM      4  N   UNL     1     -36.522  20.905   2.737  0.00  0.00    -0.202 N 
ATOM      5  H   UNL     1     -36.588  20.088   3.282  0.00  0.00    +0.175 HD
ATOM      6  N   UNL     1     -37.685  22.934   3.041  0.00  0.00    -0.232 NA
ATOM      7  N   UNL     1     -36.809  24.680   4.453  0.00  0.00    -0.214 NA
ATOM      8  C   UNL     1     -36.595  22.206   3.345  0.00  0.00    +0.130 C 
ATOM      9  C   UNL     1     -35.585  22.627   4.175  0.00  0.00    +0.146 C 
ATOM     10  C   UNL     1     -35.747  23.889   4.708  0.00  0.00    +0.205 C 
ATOM     11  C   UNL     1     -37.727  24.147   3.624  0.00  0.00    +0.254 C 
BRANCH  10  12
ATOM     12  O   UNL     1     -34.786  24.388   5.548  0.00  0.00    -0.459 OA
ATOM     13  C   UNL     1     -34.693  25.805   5.644  0.00  0.00    +0.254 C 
ENDBRANCH  10  12
ENDBRANCH   1   4
BRANCH   1  14
ATOM     14  C   UNL     1     -35.138  19.541   0.847  0.00  0.00    +0.125 C 
ATOM     15  C   UNL     1     -35.362  18.510  -0.066  0.00  0.00    +0.021 C 
ATOM     16  C   UNL     1     -33.973  19.549   1.616  0.00  0.00    +0.021 C 
ATOM     17  C   UNL     1     -33.258  17.499   0.557  0.00  0.00    +0.042 C 
ATOM     18  C   UNL     1     -34.423  17.489  -0.211  0.00  0.00    +0.015 C 
ATOM     19  C   UNL     1     -33.033  18.530   1.470  0.00  0.00    +0.015 C 
BRANCH  17  20
ATOM     20  N   UNL     1     -32.307  16.469   0.410  0.00  0.00    -0.357 N 
ATOM     21  H   UNL     1     -32.053  16.158  -0.489  0.00  0.00    +0.142 HD
ATOM     22  H   UNL     1     -31.898  16.059   1.207  0.00  0.00    +0.142 HD
ENDBRANCH  17  20
ENDBRANCH   1  14
TORSDOF 4
ENDMDL
MODEL 4
REMARK VINA RESULT:      -5.6      4.381      5.765
REMARK  Name = 5332
REMARK  4 active torsions:
REMARK  status: ('A' for Active; 'I' for Inactive)
REMARK    1  A    between atoms: S_1  and  C_4
REMARK    2  A    between atoms: S_1  and  N_13
REMARK    3  A    between atoms: C_7  and  N_10
REMARK    4  A    between atoms: C_19  and  O_21
REMARK                            x       y       z     vdW  Elec       q    Type
REMARK                         _______ _______ _______ _____ _____    ______ ____
ROOT
ATOM      1  S   UNL     1     -35.831  22.077   3.152  0.00  0.00    +0.074 S 
ATOM      2  O   UNL     1     -34.923  22.853   2.316  0.00  0.00    -0.150 OA
ATOM      3  O   UNL     1     -35.388  20.783   3.657  0.00  0.00    -0.150 OA
ENDROOT
BRANCH   1   4
ATOM      4  N   UNL     1     -36.328  23.071   4.468  0.00  0.00    -0.202 N 
ATOM      5  H   UNL     1     -36.941  22.729   5.158  0.00  0.00    +0.175 HD
ATOM      6  N   UNL     1     -36.249  25.248   3.564  0.00  0.00    -0.232 NA
ATOM      7  N   UNL     1     -34.907  26.976   4.576  0.00  0.00    -0.214 NA
ATOM      8  C   UNL     1     -35.820  24.415   4.530  0.00  0.00    +0.130 C 
ATOM      9  C   UNL     1     -34.954  24.769   5.536  0.00  0.00    +0.146 C 
ATOM     10  C   UNL     1     -34.524  26.080   5.508  0.00  0.00    +0.205 C 
ATOM     11  C   UNL     1     -35.759  26.500   3.647  0.00  0.00    +0.254 C 
BRANCH  10  12
ATOM     12  O   UNL     1     -33.657  26.519   6.475  0.00  0.00    -0.459 OA
ATOM     13  C   UNL     1     -32.627  27.408   6.056  0.00  0.00    +0.254 C 
ENDBRANCH  10  12
ENDBRANCH   1   4
BRANCH   1  14
ATOM     14  C   UNL     1     -37.314  21.850   2.258  0.00  0.00    +0.125 C 
ATOM     15  C   UNL     1     -38.439  22.615   2.566  0.00  0.00    +0.021 C 
ATOM     16  C   UNL     1     -37.374  20.903   1.235  0.00  0.00    +0.021 C 
ATOM     17  C   UNL     1     -39.683  21.486   0.830  0.00  0.00    +0.042 C 
ATOM     18  C   UNL     1     -39.624  22.433   1.853  0.00  0.00    +0.015 C 
ATOM     19  C   UNL     1     -38.558  20.721   0.521  0.00  0.00    +0.015 C 
BRANCH  17  20
ATOM     20  N   UNL     1     -40.880  21.302   0.107  0.00  0.00    -0.357 N 
ATOM     21  H   UNL     1     -40.889  21.426  -0.870  0.00  0.00    +0.142 HD
ATOM     22  H   UNL     1     -41.707  21.051   0.579  0.00  0.00    +0.142 HD
ENDBRANCH  17  20
ENDBRANCH   1  14
TORSDOF 4
ENDMDL
MODEL 5
REMARK VINA RESULT:      -5.6      4.153      6.013
REMARK  Name = 5332
REMARK  4 active torsions:
REMARK  status: ('A' for Active; 'I' for Inactive)
REMARK    1  A    between atoms: S_1  and  C_4
REMARK    2  A    between atoms: S_1  and  N_13
REMARK    3  A    between atoms: C_7  and  N_10
REMARK    4  A    between atoms: C_19  and  O_21
REMARK                            x       y       z     vdW  Elec       q    Type
REMARK                         _______ _______ _______ _____ _____    ______ ____
ROOT
ATOM      1  S   UNL     1     -35.997  23.574   4.644  0.00  0.00    +0.074 S 
ATOM      2  O   UNL     1     -35.903  22.879   5.922  0.00  0.00    -0.150 OA
ATOM      3  O   UNL     1     -36.893  24.719   4.530  0.00  0.00    -0.150 OA
ENDROOT
BRANCH   1   4
ATOM      4  N   UNL     1     -34.408  24.036   4.169  0.00  0.00    -0.202 N 
ATOM      5  H   UNL     1     -33.831  23.420   3.660  0.00  0.00    +0.175 HD
ATOM      6  N   UNL     1     -33.757  25.555   5.851  0.00  0.00    -0.232 NA
ATOM      7  N   UNL     1     -33.072  27.803   5.312  0.00  0.00    -0.214 NA
ATOM      8  C   UNL     1     -33.945  25.348   4.535  0.00  0.00    +0.130 C 
ATOM      9  C   UNL     1     -33.727  26.289   3.559  0.00  0.00    +0.146 C 
ATOM     10  C   UNL     1     -33.285  27.516   4.012  0.00  0.00    +0.205 C 
ATOM     11  C   UNL     1     -33.323  26.791   6.166  0.00  0.00    +0.254 C 
BRANCH  10  12
ATOM     12  O   UNL     1     -33.043  28.514   3.106  0.00  0.00    -0.459 OA
ATOM     13  C   UNL     1     -32.586  29.757   3.629  0.00  0.00    +0.254 C 
ENDBRANCH  10  12
ENDBRANCH   1   4
BRANCH   1  14
ATOM     14  C   UNL     1     -36.437  22.398   3.431  0.00  0.00    +0.125 C 
ATOM     15  C   UNL     1     -37.634  22.536   2.726  0.00  0.00    +0.021 C 
ATOM     16  C   UNL     1     -35.594  21.318   3.167  0.00  0.00    +0.021 C 
ATOM     17  C   UNL     1     -37.142  20.517   1.494  0.00  0.00    +0.042 C 
ATOM     18  C   UNL     1     -37.986  21.596   1.758  0.00  0.00    +0.015 C 
ATOM     19  C   UNL     1     -35.946  20.378   2.198  0.00  0.00    +0.015 C 
BRANCH  17  20
ATOM     20  N   UNL     1     -37.497  19.567   0.515  0.00  0.00    -0.357 N 
ATOM     21  H   UNL     1     -38.432  19.270   0.432  0.00  0.00    +0.142 HD
ATOM     22  H   UNL     1     -36.809  19.199  -0.087  0.00  0.00    +0.142 HD
ENDBRANCH  17  20
ENDBRANCH   1  14
TORSDOF 4
ENDMDL
MODEL 6
REMARK VINA RESULT:      -5.5      1.912      2.595
REMARK  Name = 5332
REMARK  4 active torsions:
REMARK  status: ('A' for Active; 'I' for Inactive)
REMARK    1  A    between atoms: S_1  and  C_4
REMARK    2  A    between atoms: S_1  and  N_13
REMARK    3  A    between atoms: C_7  and  N_10
REMARK    4  A    between atoms: C_19  and  O_21
REMARK                            x       y       z     vdW  Elec       q    Type
REMARK                         _______ _______ _______ _____ _____    ______ ____
ROOT
ATOM      1  S   UNL     1     -35.932  20.448   1.018  0.00  0.00    +0.074 S 
ATOM      2  O   UNL     1     -36.932  19.980   1.970  0.00  0.00    -0.150 OA
ATOM      3  O   UNL     1     -36.371  20.901  -0.297  0.00  0.00    -0.150 OA
ENDROOT
BRANCH   1   4
ATOM      4  N   UNL     1     -35.010  21.689   1.777  0.00  0.00    -0.202 N 
ATOM      5  H   UNL     1     -34.277  22.139   1.300  0.00  0.00    +0.175 HD
ATOM      6  N   UNL     1     -35.099  21.112   4.062  0.00  0.00    -0.232 NA
ATOM      7  N   UNL     1     -35.946  22.652   5.711  0.00  0.00    -0.214 NA
ATOM      8  C   UNL     1     -35.344  22.049   3.129  0.00  0.00    +0.130 C 
ATOM      9  C   UNL     1     -35.876  23.288   3.391  0.00  0.00    +0.146 C 
ATOM     10  C   UNL     1     -36.162  23.538   4.717  0.00  0.00    +0.205 C 
ATOM     11  C   UNL     1     -35.420  21.476   5.318  0.00  0.00    +0.254 C 
BRANCH  10  12
ATOM     12  O   UNL     1     -36.697  24.750   5.069  0.00  0.00    -0.459 OA
ATOM     13  C   UNL     1     -35.819  25.869   5.040  0.00  0.00    +0.254 C 
ENDBRANCH  10  12
ENDBRANCH   1   4
BRANCH   1  14
ATOM     14  C   UNL     1     -34.761  19.170   0.806  0.00  0.00    +0.125 C 
ATOM     15  C   UNL     1     -35.034  18.108  -0.058  0.00  0.00    +0.021 C 
ATOM     16  C   UNL     1     -33.552  19.209   1.502  0.00  0.00    +0.021 C 
ATOM     17  C   UNL     1     -32.891  17.127   0.470  0.00  0.00    +0.042 C 
ATOM     18  C   UNL     1     -34.100  17.087  -0.225  0.00  0.00    +0.015 C 
ATOM     19  C   UNL     1     -32.617  18.188   1.333  0.00  0.00    +0.015 C 
BRANCH  17  20
ATOM     20  N   UNL     1     -31.945  16.096   0.299  0.00  0.00    -0.357 N 
ATOM     21  H   UNL     1     -31.479  15.720   1.081  0.00  0.00    +0.142 HD
ATOM     22  H   UNL     1     -31.748  15.752  -0.602  0.00  0.00    +0.142 HD
ENDBRANCH  17  20
ENDBRANCH   1  14
TORSDOF 4
ENDMDL
MODEL 7
REMARK VINA RESULT:      -5.5      2.857      6.503
REMARK  Name = 5332
REMARK  4 active torsions:
REMARK  status: ('A' for Active; 'I' for Inactive)
REMARK    1  A    between atoms: S_1  and  C_4
REMARK    2  A    between atoms: S_1  and  N_13
REMARK    3  A    between atoms: C_7  and  N_10
REMARK    4  A    between atoms: C_19  and  O_21
REMARK                            x       y       z     vdW  Elec       q    Type
REMARK                         _______ _______ _______ _____ _____    ______ ____
ROOT
ATOM      1  S   UNL     1     -35.791  22.424   3.605  0.00  0.00    +0.074 S 
ATOM      2  O   UNL     1     -37.216  22.685   3.436  0.00  0.00    -0.150 OA
ATOM      3  O   UNL     1     -35.375  21.350   4.498  0.00  0.00    -0.150 OA
ENDROOT
BRANCH   1   4
ATOM      4  N   UNL     1     -35.104  22.176   2.045  0.00  0.00    -0.202 N 
ATOM      5  H   UNL     1     -34.608  22.893   1.589  0.00  0.00    +0.175 HD
ATOM      6  N   UNL     1     -36.535  20.574   1.070  0.00  0.00    -0.232 NA
ATOM      7  N   UNL     1     -35.687  18.472   0.250  0.00  0.00    -0.214 NA
ATOM      8  C   UNL     1     -35.277  20.889   1.426  0.00  0.00    +0.130 C 
ATOM      9  C   UNL     1     -34.187  20.074   1.237  0.00  0.00    +0.146 C 
ATOM     10  C   UNL     1     -34.455  18.861   0.637  0.00  0.00    +0.205 C 
ATOM     11  C   UNL     1     -36.667  19.364   0.492  0.00  0.00    +0.254 C 
BRANCH  10  12
ATOM     12  O   UNL     1     -33.426  17.985   0.410  0.00  0.00    -0.459 OA
ATOM     13  C   UNL     1     -32.305  18.074   1.283  0.00  0.00    +0.254 C 
ENDBRANCH  10  12
ENDBRANCH   1   4
BRANCH   1  14
ATOM     14  C   UNL     1     -35.036  23.909   4.128  0.00  0.00    +0.125 C 
ATOM     15  C   UNL     1     -35.209  24.356   5.438  0.00  0.00    +0.021 C 
ATOM     16  C   UNL     1     -34.261  24.650   3.235  0.00  0.00    +0.021 C 
ATOM     17  C   UNL     1     -33.832  26.283   4.963  0.00  0.00    +0.042 C 
ATOM     18  C   UNL     1     -34.608  25.543   5.856  0.00  0.00    +0.015 C 
ATOM     19  C   UNL     1     -33.659  25.837   3.653  0.00  0.00    +0.015 C 
BRANCH  17  20
ATOM     20  N   UNL     1     -33.222  27.483   5.385  0.00  0.00    -0.357 N 
ATOM     21  H   UNL     1     -33.365  28.314   4.875  0.00  0.00    +0.142 HD
ATOM     22  H   UNL     1     -32.653  27.490   6.188  0.00  0.00    +0.142 HD
ENDBRANCH  17  20
ENDBRANCH   1  14
TORSDOF 4
ENDMDL
MODEL 8
REMARK VINA RESULT:      -5.5      4.369      5.848
REMARK  Name = 5332
REMARK  4 active torsions:
REMARK  status: ('A' for Active; 'I' for Inactive)
REMARK    1  A    between atoms: S_1  and  C_4
REMARK    2  A    between atoms: S_1  and  N_13
REMARK    3  A    between atoms: C_7  and  N_10
REMARK    4  A    between atoms: C_19  and  O_21
REMARK                            x       y       z     vdW  Elec       q    Type
REMARK                         _______ _______ _______ _____ _____    ______ ____
ROOT
ATOM      1  S   UNL     1     -35.791  21.943   2.799  0.00  0.00    +0.074 S 
ATOM      2  O   UNL     1     -35.476  20.770   3.605  0.00  0.00    -0.150 OA
ATOM      3  O   UNL     1     -35.313  21.999   1.423  0.00  0.00    -0.150 OA
ENDROOT
BRANCH   1   4
ATOM      4  N   UNL     1     -37.499  22.165   2.825  0.00  0.00    -0.202 N 
ATOM      5  H   UNL     1     -38.090  21.502   3.249  0.00  0.00    +0.175 HD
ATOM      6  N   UNL     1     -37.914  23.423   0.874  0.00  0.00    -0.232 NA
ATOM      7  N   UNL     1     -39.030  25.558   0.973  0.00  0.00    -0.214 NA
ATOM      8  C   UNL     1     -38.037  23.350   2.211  0.00  0.00    +0.130 C 
ATOM      9  C   UNL     1     -38.630  24.312   2.993  0.00  0.00    +0.146 C 
ATOM     10  C   UNL     1     -39.114  25.409   2.311  0.00  0.00    +0.205 C 
ATOM     11  C   UNL     1     -38.428  24.541   0.326  0.00  0.00    +0.254 C 
BRANCH  10  12
ATOM     12  O   UNL     1     -39.720  26.417   3.013  0.00  0.00    -0.459 OA
ATOM     13  C   UNL     1     -41.105  26.257   3.298  0.00  0.00    +0.254 C 
ENDBRANCH  10  12
ENDBRANCH   1   4
BRANCH   1  14
ATOM     14  C   UNL     1     -35.205  23.348   3.652  0.00  0.00    +0.125 C 
ATOM     15  C   UNL     1     -35.436  23.480   5.022  0.00  0.00    +0.021 C 
ATOM     16  C   UNL     1     -34.505  24.341   2.965  0.00  0.00    +0.021 C 
ATOM     17  C   UNL     1     -34.269  25.595   5.016  0.00  0.00    +0.042 C 
ATOM     18  C   UNL     1     -34.969  24.603   5.704  0.00  0.00    +0.015 C 
ATOM     19  C   UNL     1     -34.036  25.463   3.647  0.00  0.00    +0.015 C 
BRANCH  17  20
ATOM     20  N   UNL     1     -33.794  26.730   5.705  0.00  0.00    -0.357 N 
ATOM     21  H   UNL     1     -32.827  26.911   5.750  0.00  0.00    +0.142 HD
ATOM     22  H   UNL     1     -34.430  27.343   6.142  0.00  0.00    +0.142 HD
ENDBRANCH  17  20
ENDBRANCH   1  14
TORSDOF 4
ENDMDL
MODEL 9
REMARK VINA RESULT:      -5.5      4.158      7.580
REMARK  Name = 5332
REMARK  4 active torsions:
REMARK  status: ('A' for Active; 'I' for Inactive)
REMARK    1  A    between atoms: S_1  and  C_4
REMARK    2  A    between atoms: S_1  and  N_13
REMARK    3  A    between atoms: C_7  and  N_10
REMARK    4  A    between atoms: C_19  and  O_21
REMARK                            x       y       z     vdW  Elec       q    Type
REMARK                         _______ _______ _______ _____ _____    ______ ____
ROOT
ATOM      1  S   UNL     1     -34.496  26.047   4.300  0.00  0.00    +0.074 S 
ATOM      2  O   UNL     1     -34.473  26.624   5.639  0.00  0.00    -0.150 OA
ATOM      3  O   UNL     1     -33.291  25.400   3.793  0.00  0.00    -0.150 OA
ENDROOT
BRANCH   1   4
ATOM      4  N   UNL     1     -35.819  24.948   4.215  0.00  0.00    -0.202 N 
ATOM      5  H   UNL     1     -36.717  25.254   3.951  0.00  0.00    +0.175 HD
ATOM      6  N   UNL     1     -35.274  23.314   5.825  0.00  0.00    -0.232 NA
ATOM      7  N   UNL     1     -35.101  20.983   5.236  0.00  0.00    -0.214 NA
ATOM      8  C   UNL     1     -35.576  23.568   4.540  0.00  0.00    +0.130 C 
ATOM      9  C   UNL     1     -35.660  22.612   3.556  0.00  0.00    +0.146 C 
ATOM     10  C   UNL     1     -35.409  21.319   3.967  0.00  0.00    +0.205 C 
ATOM     11  C   UNL     1     -35.052  22.014   6.102  0.00  0.00    +0.254 C 
BRANCH  10  12
ATOM     12  O   UNL     1     -35.472  20.303   3.051  0.00  0.00    -0.459 OA
ATOM     13  C   UNL     1     -34.981  20.586   1.745  0.00  0.00    +0.254 C 
ENDBRANCH  10  12
ENDBRANCH   1   4
BRANCH   1  14
ATOM     14  C   UNL     1     -34.966  27.306   3.185  0.00  0.00    +0.125 C 
ATOM     15  C   UNL     1     -36.039  27.104   2.316  0.00  0.00    +0.021 C 
ATOM     16  C   UNL     1     -34.268  28.513   3.162  0.00  0.00    +0.021 C 
ATOM     17  C   UNL     1     -35.716  29.316   1.403  0.00  0.00    +0.042 C 
ATOM     18  C   UNL     1     -36.414  28.109   1.425  0.00  0.00    +0.015 C 
ATOM     19  C   UNL     1     -34.643  29.519   2.271  0.00  0.00    +0.015 C 
BRANCH  17  20
ATOM     20  N   UNL     1     -36.095  30.334   0.503  0.00  0.00    -0.357 N 
ATOM     21  H   UNL     1     -35.884  31.274   0.705  0.00  0.00    +0.142 HD
ATOM     22  H   UNL     1     -36.573  30.104  -0.327  0.00  0.00    +0.142 HD
ENDBRANCH  17  20
ENDBRANCH   1  14
TORSDOF 4
ENDMDL
