MODEL 1
REMARK VINA RESULT:      -5.9      0.000      0.000
REMARK  Name = 6087
REMARK  6 active torsions:
REMARK  status: ('A' for Active; 'I' for Inactive)
REMARK    1  A    between atoms: N_2  and  CA_11
REMARK    2  A    between atoms: C_3  and  C_19
REMARK    3  A    between atoms: CA_10  and  C_16
REMARK    4  A    between atoms: C_16  and  O_17
REMARK    5  A    between atoms: C_20  and  O_25
REMARK    6  A    between atoms: C_21  and  O_27
REMARK                            x       y       z     vdW  Elec       q    Type
REMARK                         _______ _______ _______ _____ _____    ______ ____
ROOT
ATOM      1  O   UNL     1     -35.521  19.723   0.962  0.00  0.00    -0.270 OA
ATOM      2  N   UNL     1     -34.813  21.566   2.174  0.00  0.00    -0.293 N 
ATOM      3  C   UNL     1     -34.663  20.554   1.251  0.00  0.00    +0.252 C 
ATOM      4  H   UNL     1     -34.062  22.182   2.333  0.00  0.00    +0.150 HD
ENDROOT
BRANCH   2  11
ATOM      5  S   UNL     1     -34.699  24.059   3.962  0.00  0.00    -0.118 S 
ATOM      6  O   UNL     1     -37.675  22.516   1.105  0.00  0.00    -0.273 OA
ATOM      7  N   UNL     1     -37.107  23.533   3.157  0.00  0.00    -0.260 N 
ATOM      8  C   UNL     1     -36.091  22.872   3.980  0.00  0.00    +0.151 C 
ATOM      9  C   UNL     1     -35.875  25.496   3.831  0.00  0.00    +0.068 C 
ATOM     10  CA  UNL     1     -37.006  24.960   2.927  0.00  0.00    +0.184 C 
ATOM     11  CA  UNL     1     -36.060  21.754   2.929  0.00  0.00    +0.178 C 
ATOM     12  C   UNL     1     -37.127  22.578   2.181  0.00  0.00    +0.247 C 
ATOM     13  C   UNL     1     -36.320  25.875   5.250  0.00  0.00    +0.013 C 
ATOM     14  C   UNL     1     -35.150  26.675   3.178  0.00  0.00    +0.013 C 
BRANCH  10  16
ATOM     15  OXT UNL     1     -38.767  26.597   2.709  0.00  0.00    -0.248 OA
ATOM     16  C   UNL     1     -38.359  25.546   3.180  0.00  0.00    +0.333 C 
BRANCH  16  17
ATOM     17  O   UNL     1     -39.078  24.750   4.009  0.00  0.00    -0.479 OA
ATOM     18  H   UNL     1     -39.998  24.643   3.874  0.00  0.00    +0.295 HD
ENDBRANCH  16  17
ENDBRANCH  10  16
ENDBRANCH   2  11
BRANCH   3  19
ATOM     19  C   UNL     1     -33.333  20.485   0.595  0.00  0.00    +0.121 C 
ATOM     20  C   UNL     1     -32.575  19.339   0.735  0.00  0.00    +0.146 C 
ATOM     21  C   UNL     1     -32.890  21.568  -0.139  0.00  0.00    +0.146 C 
ATOM     22  C   UNL     1     -31.325  19.274   0.119  0.00  0.00    +0.037 C 
ATOM     23  C   UNL     1     -31.640  21.503  -0.755  0.00  0.00    +0.037 C 
ATOM     24  C   UNL     1     -30.858  20.355  -0.625  0.00  0.00    +0.006 C 
BRANCH  20  25
ATOM     25  O   UNL     1     -33.013  18.269   1.459  0.00  0.00    -0.471 OA
ATOM     26  C   UNL     1     -33.225  17.051   0.750  0.00  0.00    +0.252 C 
ENDBRANCH  20  25
BRANCH  21  27
ATOM     27  O   UNL     1     -33.638  22.699  -0.277  0.00  0.00    -0.471 OA
ATOM     28  C   UNL     1     -32.992  23.940  -0.000  0.00  0.00    +0.252 C 
ENDBRANCH  21  27
ENDBRANCH   3  19
TORSDOF 6
ENDMDL
MODEL 2
REMARK VINA RESULT:      -5.9      0.160      2.520
REMARK  Name = 6087
REMARK  6 active torsions:
REMARK  status: ('A' for Active; 'I' for Inactive)
REMARK    1  A    between atoms: N_2  and  CA_11
REMARK    2  A    between atoms: C_3  and  C_19
REMARK    3  A    between atoms: CA_10  and  C_16
REMARK    4  A    between atoms: C_16  and  O_17
REMARK    5  A    between atoms: C_20  and  O_25
REMARK    6  A    between atoms: C_21  and  O_27
REMARK                            x       y       z     vdW  Elec       q    Type
REMARK                         _______ _______ _______ _____ _____    ______ ____
ROOT
ATOM      1  O   UNL     1     -35.539  19.927   0.657  0.00  0.00    -0.270 OA
ATOM      2  N   UNL     1     -34.814  21.595   2.093  0.00  0.00    -0.293 N 
ATOM      3  C   UNL     1     -34.662  20.681   1.074  0.00  0.00    +0.252 C 
ATOM      4  H   UNL     1     -34.046  22.154   2.352  0.00  0.00    +0.150 HD
ENDROOT
BRANCH   2  11
ATOM      5  S   UNL     1     -34.766  24.031   3.960  0.00  0.00    -0.118 S 
ATOM      6  O   UNL     1     -37.635  22.581   0.948  0.00  0.00    -0.273 OA
ATOM      7  N   UNL     1     -37.144  23.534   3.051  0.00  0.00    -0.260 N 
ATOM      8  C   UNL     1     -36.158  22.846   3.890  0.00  0.00    +0.151 C 
ATOM      9  C   UNL     1     -35.937  25.474   3.831  0.00  0.00    +0.068 C 
ATOM     10  CA  UNL     1     -37.034  24.967   2.869  0.00  0.00    +0.184 C 
ATOM     11  CA  UNL     1     -36.089  21.761   2.806  0.00  0.00    +0.178 C 
ATOM     12  C   UNL     1     -37.127  22.610   2.046  0.00  0.00    +0.247 C 
ATOM     13  C   UNL     1     -36.434  25.808   5.243  0.00  0.00    +0.013 C 
ATOM     14  C   UNL     1     -35.188  26.671   3.242  0.00  0.00    +0.013 C 
BRANCH  10  16
ATOM     15  OXT UNL     1     -38.790  26.605   2.624  0.00  0.00    -0.248 OA
ATOM     16  C   UNL     1     -38.395  25.546   3.090  0.00  0.00    +0.333 C 
BRANCH  16  17
ATOM     17  O   UNL     1     -39.137  24.736   3.883  0.00  0.00    -0.479 OA
ATOM     18  H   UNL     1     -40.071  24.810   3.884  0.00  0.00    +0.295 HD
ENDBRANCH  16  17
ENDBRANCH  10  16
ENDBRANCH   2  11
BRANCH   3  19
ATOM     19  C   UNL     1     -33.305  20.619   0.475  0.00  0.00    +0.121 C 
ATOM     20  C   UNL     1     -32.847  21.695  -0.261  0.00  0.00    +0.146 C 
ATOM     21  C   UNL     1     -32.536  19.488   0.670  0.00  0.00    +0.146 C 
ATOM     22  C   UNL     1     -31.572  21.637  -0.824  0.00  0.00    +0.037 C 
ATOM     23  C   UNL     1     -31.261  19.430   0.107  0.00  0.00    +0.037 C 
ATOM     24  C   UNL     1     -30.779  20.505  -0.641  0.00  0.00    +0.006 C 
BRANCH  20  25
ATOM     25  O   UNL     1     -33.605  22.812  -0.453  0.00  0.00    -0.471 OA
ATOM     26  C   UNL     1     -33.095  24.038   0.066  0.00  0.00    +0.252 C 
ENDBRANCH  20  25
BRANCH  21  27
ATOM     27  O   UNL     1     -32.988  18.426   1.396  0.00  0.00    -0.471 OA
ATOM     28  C   UNL     1     -33.215  17.208   0.688  0.00  0.00    +0.252 C 
ENDBRANCH  21  27
ENDBRANCH   3  19
TORSDOF 6
ENDMDL
MODEL 3
REMARK VINA RESULT:      -5.9      2.189      6.647
REMARK  Name = 6087
REMARK  6 active torsions:
REMARK  status: ('A' for Active; 'I' for Inactive)
REMARK    1  A    between atoms: N_2  and  CA_11
REMARK    2  A    between atoms: C_3  and  C_19
REMARK    3  A    between atoms: CA_10  and  C_16
REMARK    4  A    between atoms: C_16  and  O_17
REMARK    5  A    between atoms: C_20  and  O_25
REMARK    6  A    between atoms: C_21  and  O_27
REMARK                            x       y       z     vdW  Elec       q    Type
REMARK                         _______ _______ _______ _____ _____    ______ ____
ROOT
ATOM      1  O   UNL     1     -37.740  23.245   3.267  0.00  0.00    -0.270 OA
ATOM      2  N   UNL     1     -35.808  22.904   2.033  0.00  0.00    -0.293 N 
ATOM      3  C   UNL     1     -36.549  23.462   3.052  0.00  0.00    +0.252 C 
ATOM      4  H   UNL     1     -34.858  23.144   1.947  0.00  0.00    +0.150 HD
ENDROOT
BRANCH   2  11
ATOM      5  S   UNL     1     -33.740  21.936  -0.018  0.00  0.00    -0.118 S 
ATOM      6  O   UNL     1     -36.706  19.868   2.497  0.00  0.00    -0.273 OA
ATOM      7  N   UNL     1     -35.569  20.159   0.449  0.00  0.00    -0.260 N 
ATOM      8  C   UNL     1     -35.518  21.513  -0.108  0.00  0.00    +0.151 C 
ATOM      9  C   UNL     1     -33.263  20.153  -0.265  0.00  0.00    +0.068 C 
ATOM     10  CA  UNL     1     -34.351  19.376   0.508  0.00  0.00    +0.184 C 
ATOM     11  CA  UNL     1     -36.395  21.961   1.070  0.00  0.00    +0.178 C 
ATOM     12  C   UNL     1     -36.344  20.489   1.524  0.00  0.00    +0.247 C 
ATOM     13  C   UNL     1     -33.232  19.876  -1.773  0.00  0.00    +0.013 C 
ATOM     14  C   UNL     1     -31.877  19.921   0.340  0.00  0.00    +0.013 C 
BRANCH  10  16
ATOM     15  OXT UNL     1     -35.525  17.784  -0.877  0.00  0.00    -0.248 OA
ATOM     16  C   UNL     1     -34.672  18.019  -0.033  0.00  0.00    +0.333 C 
BRANCH  16  17
ATOM     17  O   UNL     1     -33.888  17.075   0.543  0.00  0.00    -0.479 OA
ATOM     18  H   UNL     1     -33.128  16.760   0.095  0.00  0.00    +0.295 HD
ENDBRANCH  16  17
ENDBRANCH  10  16
ENDBRANCH   2  11
BRANCH   3  19
ATOM     19  C   UNL     1     -35.815  24.415   3.922  0.00  0.00    +0.121 C 
ATOM     20  C   UNL     1     -35.580  24.075   5.241  0.00  0.00    +0.146 C 
ATOM     21  C   UNL     1     -35.385  25.615   3.390  0.00  0.00    +0.146 C 
ATOM     22  C   UNL     1     -34.891  24.970   6.058  0.00  0.00    +0.037 C 
ATOM     23  C   UNL     1     -34.695  26.510   4.208  0.00  0.00    +0.037 C 
ATOM     24  C   UNL     1     -34.449  26.187   5.542  0.00  0.00    +0.006 C 
BRANCH  20  25
ATOM     25  O   UNL     1     -36.004  22.890   5.765  0.00  0.00    -0.471 OA
ATOM     26  C   UNL     1     -35.007  21.906   6.030  0.00  0.00    +0.252 C 
ENDBRANCH  20  25
BRANCH  21  27
ATOM     27  O   UNL     1     -35.617  25.950   2.089  0.00  0.00    -0.471 OA
ATOM     28  C   UNL     1     -36.586  26.968   1.846  0.00  0.00    +0.252 C 
ENDBRANCH  21  27
ENDBRANCH   3  19
TORSDOF 6
ENDMDL
MODEL 4
REMARK VINA RESULT:      -5.8      2.192      7.017
REMARK  Name = 6087
REMARK  6 active torsions:
REMARK  status: ('A' for Active; 'I' for Inactive)
REMARK    1  A    between atoms: N_2  and  CA_11
REMARK    2  A    between atoms: C_3  and  C_19
REMARK    3  A    between atoms: CA_10  and  C_16
REMARK    4  A    between atoms: C_16  and  O_17
REMARK    5  A    between atoms: C_20  and  O_25
REMARK    6  A    between atoms: C_21  and  O_27
REMARK                            x       y       z     vdW  Elec       q    Type
REMARK                         _______ _______ _______ _____ _____    ______ ____
ROOT
ATOM      1  O   UNL     1     -37.710  23.273   3.321  0.00  0.00    -0.270 OA
ATOM      2  N   UNL     1     -35.794  22.922   2.065  0.00  0.00    -0.293 N 
ATOM      3  C   UNL     1     -36.522  23.488   3.090  0.00  0.00    +0.252 C 
ATOM      4  H   UNL     1     -34.844  23.161   1.966  0.00  0.00    +0.150 HD
ENDROOT
BRANCH   2  11
ATOM      5  S   UNL     1     -33.752  21.939  -0.005  0.00  0.00    -0.118 S 
ATOM      6  O   UNL     1     -36.688  19.890   2.561  0.00  0.00    -0.273 OA
ATOM      7  N   UNL     1     -35.577  20.166   0.497  0.00  0.00    -0.260 N 
ATOM      8  C   UNL     1     -35.531  21.517  -0.070  0.00  0.00    +0.151 C 
ATOM      9  C   UNL     1     -33.280  20.154  -0.245  0.00  0.00    +0.068 C 
ATOM     10  CA  UNL     1     -34.359  19.383   0.546  0.00  0.00    +0.184 C 
ATOM     11  CA  UNL     1     -36.393  21.973   1.116  0.00  0.00    +0.178 C 
ATOM     12  C   UNL     1     -36.338  20.504   1.579  0.00  0.00    +0.247 C 
ATOM     13  C   UNL     1     -33.267  19.866  -1.752  0.00  0.00    +0.013 C 
ATOM     14  C   UNL     1     -31.886  19.925   0.344  0.00  0.00    +0.013 C 
BRANCH  10  16
ATOM     15  OXT UNL     1     -35.598  17.772  -0.757  0.00  0.00    -0.248 OA
ATOM     16  C   UNL     1     -34.687  18.022   0.019  0.00  0.00    +0.333 C 
BRANCH  16  17
ATOM     17  O   UNL     1     -33.836  17.095   0.521  0.00  0.00    -0.479 OA
ATOM     18  H   UNL     1     -32.954  17.332   0.729  0.00  0.00    +0.295 HD
ENDBRANCH  16  17
ENDBRANCH  10  16
ENDBRANCH   2  11
BRANCH   3  19
ATOM     19  C   UNL     1     -35.776  24.446   3.944  0.00  0.00    +0.121 C 
ATOM     20  C   UNL     1     -35.338  25.635   3.393  0.00  0.00    +0.146 C 
ATOM     21  C   UNL     1     -35.541  24.124   5.266  0.00  0.00    +0.146 C 
ATOM     22  C   UNL     1     -34.637  26.536   4.195  0.00  0.00    +0.037 C 
ATOM     23  C   UNL     1     -34.840  25.025   6.068  0.00  0.00    +0.037 C 
ATOM     24  C   UNL     1     -34.388  26.231   5.532  0.00  0.00    +0.006 C 
BRANCH  20  25
ATOM     25  O   UNL     1     -35.572  25.953   2.087  0.00  0.00    -0.471 OA
ATOM     26  C   UNL     1     -36.559  26.950   1.830  0.00  0.00    +0.252 C 
ENDBRANCH  20  25
BRANCH  21  27
ATOM     27  O   UNL     1     -35.972  22.951   5.810  0.00  0.00    -0.471 OA
ATOM     28  C   UNL     1     -34.996  21.929   6.002  0.00  0.00    +0.252 C 
ENDBRANCH  21  27
ENDBRANCH   3  19
TORSDOF 6
ENDMDL
MODEL 5
REMARK VINA RESULT:      -5.7      2.674      6.447
REMARK  Name = 6087
REMARK  6 active torsions:
REMARK  status: ('A' for Active; 'I' for Inactive)
REMARK    1  A    between atoms: N_2  and  CA_11
REMARK    2  A    between atoms: C_3  and  C_19
REMARK    3  A    between atoms: CA_10  and  C_16
REMARK    4  A    between atoms: C_16  and  O_17
REMARK    5  A    between atoms: C_20  and  O_25
REMARK    6  A    between atoms: C_21  and  O_27
REMARK                            x       y       z     vdW  Elec       q    Type
REMARK                         _______ _______ _______ _____ _____    ______ ____
ROOT
ATOM      1  O   UNL     1     -38.063  24.713   2.940  0.00  0.00    -0.270 OA
ATOM      2  N   UNL     1     -36.316  23.634   1.866  0.00  0.00    -0.293 N 
ATOM      3  C   UNL     1     -36.870  24.438   2.838  0.00  0.00    +0.252 C 
ATOM      4  H   UNL     1     -35.345  23.476   1.873  0.00  0.00    +0.150 HD
ENDROOT
BRANCH   2  11
ATOM      5  S   UNL     1     -34.696  21.613   0.218  0.00  0.00    -0.118 S 
ATOM      6  O   UNL     1     -38.639  21.456   2.175  0.00  0.00    -0.273 OA
ATOM      7  N   UNL     1     -37.207  20.981   0.361  0.00  0.00    -0.260 N 
ATOM      8  C   UNL     1     -36.417  22.088  -0.184  0.00  0.00    +0.151 C 
ATOM      9  C   UNL     1     -35.119  19.806   0.068  0.00  0.00    +0.068 C 
ATOM     10  CA  UNL     1     -36.552  19.719   0.638  0.00  0.00    +0.184 C 
ATOM     11  CA  UNL     1     -37.132  23.006   0.817  0.00  0.00    +0.178 C 
ATOM     12  C   UNL     1     -37.877  21.737   1.279  0.00  0.00    +0.247 C 
ATOM     13  C   UNL     1     -34.996  19.413  -1.410  0.00  0.00    +0.013 C 
ATOM     14  C   UNL     1     -34.133  18.993   0.910  0.00  0.00    +0.013 C 
BRANCH  10  16
ATOM     15  OXT UNL     1     -38.252  18.806  -0.813  0.00  0.00    -0.248 OA
ATOM     16  C   UNL     1     -37.407  18.639   0.054  0.00  0.00    +0.333 C 
BRANCH  16  17
ATOM     17  O   UNL     1     -37.119  17.441   0.620  0.00  0.00    -0.479 OA
ATOM     18  H   UNL     1     -37.566  16.669   0.334  0.00  0.00    +0.295 HD
ENDBRANCH  16  17
ENDBRANCH  10  16
ENDBRANCH   2  11
BRANCH   3  19
ATOM     19  C   UNL     1     -35.905  25.018   3.807  0.00  0.00    +0.121 C 
ATOM     20  C   UNL     1     -35.640  24.335   4.979  0.00  0.00    +0.146 C 
ATOM     21  C   UNL     1     -35.298  26.222   3.511  0.00  0.00    +0.146 C 
ATOM     22  C   UNL     1     -34.735  24.880   5.890  0.00  0.00    +0.037 C 
ATOM     23  C   UNL     1     -34.392  26.767   4.421  0.00  0.00    +0.037 C 
ATOM     24  C   UNL     1     -34.111  26.095   5.611  0.00  0.00    +0.006 C 
BRANCH  20  25
ATOM     25  O   UNL     1     -36.239  23.145   5.271  0.00  0.00    -0.471 OA
ATOM     26  C   UNL     1     -35.480  22.208   6.032  0.00  0.00    +0.252 C 
ENDBRANCH  20  25
BRANCH  21  27
ATOM     27  O   UNL     1     -35.560  26.896   2.355  0.00  0.00    -0.471 OA
ATOM     28  C   UNL     1     -35.291  28.296   2.347  0.00  0.00    +0.252 C 
ENDBRANCH  21  27
ENDBRANCH   3  19
TORSDOF 6
ENDMDL
MODEL 6
REMARK VINA RESULT:      -5.6      3.001      5.546
REMARK  Name = 6087
REMARK  6 active torsions:
REMARK  status: ('A' for Active; 'I' for Inactive)
REMARK    1  A    between atoms: N_2  and  CA_11
REMARK    2  A    between atoms: C_3  and  C_19
REMARK    3  A    between atoms: CA_10  and  C_16
REMARK    4  A    between atoms: C_16  and  O_17
REMARK    5  A    between atoms: C_20  and  O_25
REMARK    6  A    between atoms: C_21  and  O_27
REMARK                            x       y       z     vdW  Elec       q    Type
REMARK                         _______ _______ _______ _____ _____    ______ ____
ROOT
ATOM      1  O   UNL     1     -36.301  23.115   5.060  0.00  0.00    -0.270 OA
ATOM      2  N   UNL     1     -35.305  24.163   3.250  0.00  0.00    -0.293 N 
ATOM      3  C   UNL     1     -36.236  23.348   3.855  0.00  0.00    +0.252 C 
ATOM      4  H   UNL     1     -35.340  24.285   2.274  0.00  0.00    +0.150 HD
ENDROOT
BRANCH   2  11
ATOM      5  S   UNL     1     -33.616  26.007   1.468  0.00  0.00    -0.118 S 
ATOM      6  O   UNL     1     -35.622  26.554   5.352  0.00  0.00    -0.273 OA
ATOM      7  N   UNL     1     -33.785  26.876   3.906  0.00  0.00    -0.260 N 
ATOM      8  C   UNL     1     -33.241  25.694   3.231  0.00  0.00    +0.151 C 
ATOM      9  C   UNL     1     -33.453  27.845   1.720  0.00  0.00    +0.068 C 
ATOM     10  CA  UNL     1     -34.040  28.073   3.130  0.00  0.00    +0.184 C 
ATOM     11  CA  UNL     1     -34.261  24.857   4.017  0.00  0.00    +0.178 C 
ATOM     12  C   UNL     1     -34.719  26.195   4.632  0.00  0.00    +0.247 C 
ATOM     13  C   UNL     1     -31.970  28.211   1.581  0.00  0.00    +0.013 C 
ATOM     14  C   UNL     1     -34.275  28.568   0.650  0.00  0.00    +0.013 C 
BRANCH  10  16
ATOM     15  OXT UNL     1     -33.720  30.400   3.687  0.00  0.00    -0.248 OA
ATOM     16  C   UNL     1     -33.457  29.223   3.887  0.00  0.00    +0.333 C 
BRANCH  16  17
ATOM     17  O   UNL     1     -32.588  28.785   4.830  0.00  0.00    -0.479 OA
ATOM     18  H   UNL     1     -32.649  27.907   5.152  0.00  0.00    +0.295 HD
ENDBRANCH  16  17
ENDBRANCH  10  16
ENDBRANCH   2  11
BRANCH   3  19
ATOM     19  C   UNL     1     -37.206  22.700   2.936  0.00  0.00    +0.121 C 
ATOM     20  C   UNL     1     -36.823  21.563   2.251  0.00  0.00    +0.146 C 
ATOM     21  C   UNL     1     -38.464  23.251   2.792  0.00  0.00    +0.146 C 
ATOM     22  C   UNL     1     -37.734  20.955   1.387  0.00  0.00    +0.037 C 
ATOM     23  C   UNL     1     -39.375  22.643   1.928  0.00  0.00    +0.037 C 
ATOM     24  C   UNL     1     -39.009  21.494   1.225  0.00  0.00    +0.006 C 
BRANCH  20  25
ATOM     25  O   UNL     1     -35.581  21.019   2.394  0.00  0.00    -0.471 OA
ATOM     26  C   UNL     1     -35.206  20.007   1.463  0.00  0.00    +0.252 C 
ENDBRANCH  20  25
BRANCH  21  27
ATOM     27  O   UNL     1     -38.842  24.373   3.468  0.00  0.00    -0.471 OA
ATOM     28  C   UNL     1     -39.007  25.565   2.702  0.00  0.00    +0.252 C 
ENDBRANCH  21  27
ENDBRANCH   3  19
TORSDOF 6
ENDMDL
MODEL 7
REMARK VINA RESULT:      -5.5      2.997      5.934
REMARK  Name = 6087
REMARK  6 active torsions:
REMARK  status: ('A' for Active; 'I' for Inactive)
REMARK    1  A    between atoms: N_2  and  CA_11
REMARK    2  A    between atoms: C_3  and  C_19
REMARK    3  A    between atoms: CA_10  and  C_16
REMARK    4  A    between atoms: C_16  and  O_17
REMARK    5  A    between atoms: C_20  and  O_25
REMARK    6  A    between atoms: C_21  and  O_27
REMARK                            x       y       z     vdW  Elec       q    Type
REMARK                         _______ _______ _______ _____ _____    ______ ____
ROOT
ATOM      1  O   UNL     1     -36.301  22.907   5.018  0.00  0.00    -0.270 OA
ATOM      2  N   UNL     1     -35.432  24.175   3.284  0.00  0.00    -0.293 N 
ATOM      3  C   UNL     1     -36.304  23.267   3.843  0.00  0.00    +0.252 C 
ATOM      4  H   UNL     1     -35.519  24.396   2.329  0.00  0.00    +0.150 HD
ENDROOT
BRANCH   2  11
ATOM      5  S   UNL     1     -33.636  25.949   1.536  0.00  0.00    -0.118 S 
ATOM      6  O   UNL     1     -35.685  26.574   5.385  0.00  0.00    -0.273 OA
ATOM      7  N   UNL     1     -33.811  26.820   3.973  0.00  0.00    -0.260 N 
ATOM      8  C   UNL     1     -33.306  25.617   3.305  0.00  0.00    +0.151 C 
ATOM      9  C   UNL     1     -33.401  27.777   1.795  0.00  0.00    +0.068 C 
ATOM     10  CA  UNL     1     -34.002  28.028   3.195  0.00  0.00    +0.184 C 
ATOM     11  CA  UNL     1     -34.373  24.823   4.071  0.00  0.00    +0.178 C 
ATOM     12  C   UNL     1     -34.785  26.178   4.680  0.00  0.00    +0.247 C 
ATOM     13  C   UNL     1     -31.901  28.082   1.682  0.00  0.00    +0.013 C 
ATOM     14  C   UNL     1     -34.172  28.536   0.712  0.00  0.00    +0.013 C 
BRANCH  10  16
ATOM     15  OXT UNL     1     -33.608  30.338   3.773  0.00  0.00    -0.248 OA
ATOM     16  C   UNL     1     -33.385  29.152   3.964  0.00  0.00    +0.333 C 
BRANCH  16  17
ATOM     17  O   UNL     1     -32.535  28.677   4.908  0.00  0.00    -0.479 OA
ATOM     18  H   UNL     1     -32.041  27.898   4.743  0.00  0.00    +0.295 HD
ENDBRANCH  16  17
ENDBRANCH  10  16
ENDBRANCH   2  11
BRANCH   3  19
ATOM     19  C   UNL     1     -37.298  22.683   2.906  0.00  0.00    +0.121 C 
ATOM     20  C   UNL     1     -38.534  23.287   2.778  0.00  0.00    +0.146 C 
ATOM     21  C   UNL     1     -36.960  21.553   2.188  0.00  0.00    +0.146 C 
ATOM     22  C   UNL     1     -39.468  22.738   1.899  0.00  0.00    +0.037 C 
ATOM     23  C   UNL     1     -37.893  21.004   1.308  0.00  0.00    +0.037 C 
ATOM     24  C   UNL     1     -39.148  21.597   1.164  0.00  0.00    +0.006 C 
BRANCH  20  25
ATOM     25  O   UNL     1     -38.867  24.403   3.487  0.00  0.00    -0.471 OA
ATOM     26  C   UNL     1     -38.964  25.626   2.760  0.00  0.00    +0.252 C 
ENDBRANCH  20  25
BRANCH  21  27
ATOM     27  O   UNL     1     -35.740  20.957   2.315  0.00  0.00    -0.471 OA
ATOM     28  C   UNL     1     -34.925  20.895   1.145  0.00  0.00    +0.252 C 
ENDBRANCH  21  27
ENDBRANCH   3  19
TORSDOF 6
ENDMDL
MODEL 8
REMARK VINA RESULT:      -5.5      4.204      6.454
REMARK  Name = 6087
REMARK  6 active torsions:
REMARK  status: ('A' for Active; 'I' for Inactive)
REMARK    1  A    between atoms: N_2  and  CA_11
REMARK    2  A    between atoms: C_3  and  C_19
REMARK    3  A    between atoms: CA_10  and  C_16
REMARK    4  A    between atoms: C_16  and  O_17
REMARK    5  A    between atoms: C_20  and  O_25
REMARK    6  A    between atoms: C_21  and  O_27
REMARK                            x       y       z     vdW  Elec       q    Type
REMARK                         _______ _______ _______ _____ _____    ______ ____
ROOT
ATOM      1  O   UNL     1     -36.086  26.467   5.440  0.00  0.00    -0.270 OA
ATOM      2  N   UNL     1     -35.919  25.164   3.532  0.00  0.00    -0.293 N 
ATOM      3  C   UNL     1     -35.574  26.215   4.352  0.00  0.00    +0.252 C 
ATOM      4  H   UNL     1     -35.446  25.050   2.676  0.00  0.00    +0.150 HD
ENDROOT
BRANCH   2  11
ATOM      5  S   UNL     1     -38.254  25.231   1.539  0.00  0.00    -0.118 S 
ATOM      6  O   UNL     1     -35.884  21.972   3.318  0.00  0.00    -0.273 OA
ATOM      7  N   UNL     1     -37.940  22.890   2.610  0.00  0.00    -0.260 N 
ATOM      8  C   UNL     1     -38.273  24.239   3.076  0.00  0.00    +0.151 C 
ATOM      9  C   UNL     1     -38.821  23.765   0.541  0.00  0.00    +0.068 C 
ATOM     10  CA  UNL     1     -38.103  22.571   1.206  0.00  0.00    +0.184 C 
ATOM     11  CA  UNL     1     -36.974  24.207   3.894  0.00  0.00    +0.178 C 
ATOM     12  C   UNL     1     -36.770  22.796   3.307  0.00  0.00    +0.247 C 
ATOM     13  C   UNL     1     -40.353  23.707   0.612  0.00  0.00    +0.013 C 
ATOM     14  C   UNL     1     -38.371  23.948  -0.911  0.00  0.00    +0.013 C 
BRANCH  10  16
ATOM     15  OXT UNL     1     -38.900  20.559   0.137  0.00  0.00    -0.248 OA
ATOM     16  C   UNL     1     -38.829  21.266   1.131  0.00  0.00    +0.333 C 
BRANCH  16  17
ATOM     17  O   UNL     1     -39.406  20.969   2.322  0.00  0.00    -0.479 OA
ATOM     18  H   UNL     1     -39.471  21.625   2.987  0.00  0.00    +0.295 HD
ENDBRANCH  16  17
ENDBRANCH  10  16
ENDBRANCH   2  11
BRANCH   3  19
ATOM     19  C   UNL     1     -34.508  27.106   3.827  0.00  0.00    +0.121 C 
ATOM     20  C   UNL     1     -33.285  27.138   4.470  0.00  0.00    +0.146 C 
ATOM     21  C   UNL     1     -34.766  27.877   2.711  0.00  0.00    +0.146 C 
ATOM     22  C   UNL     1     -32.283  27.975   3.978  0.00  0.00    +0.037 C 
ATOM     23  C   UNL     1     -33.764  28.714   2.219  0.00  0.00    +0.037 C 
ATOM     24  C   UNL     1     -32.523  28.762   2.853  0.00  0.00    +0.006 C 
BRANCH  20  25
ATOM     25  O   UNL     1     -33.030  26.376   5.571  0.00  0.00    -0.471 OA
ATOM     26  C   UNL     1     -32.794  27.066   6.796  0.00  0.00    +0.252 C 
ENDBRANCH  20  25
BRANCH  21  27
ATOM     27  O   UNL     1     -35.973  27.845   2.077  0.00  0.00    -0.471 OA
ATOM     28  C   UNL     1     -36.300  28.962   1.252  0.00  0.00    +0.252 C 
ENDBRANCH  21  27
ENDBRANCH   3  19
TORSDOF 6
ENDMDL
MODEL 9
REMARK VINA RESULT:      -5.5      3.489      6.171
REMARK  Name = 6087
REMARK  6 active torsions:
REMARK  status: ('A' for Active; 'I' for Inactive)
REMARK    1  A    between atoms: N_2  and  CA_11
REMARK    2  A    between atoms: C_3  and  C_19
REMARK    3  A    between atoms: CA_10  and  C_16
REMARK    4  A    between atoms: C_16  and  O_17
REMARK    5  A    between atoms: C_20  and  O_25
REMARK    6  A    between atoms: C_21  and  O_27
REMARK                            x       y       z     vdW  Elec       q    Type
REMARK                         _______ _______ _______ _____ _____    ______ ____
ROOT
ATOM      1  O   UNL     1     -35.781  25.121   2.314  0.00  0.00    -0.270 OA
ATOM      2  N   UNL     1     -37.915  24.677   3.100  0.00  0.00    -0.293 N 
ATOM      3  C   UNL     1     -36.547  24.523   3.067  0.00  0.00    +0.252 C 
ATOM      4  H   UNL     1     -38.440  24.148   3.743  0.00  0.00    +0.150 HD
ENDROOT
BRANCH   2  11
ATOM      5  S   UNL     1     -38.650  23.352   0.429  0.00  0.00    -0.118 S 
ATOM      6  O   UNL     1     -40.905  25.797   3.318  0.00  0.00    -0.273 OA
ATOM      7  N   UNL     1     -40.334  25.205   1.106  0.00  0.00    -0.260 N 
ATOM      8  C   UNL     1     -38.908  25.130   0.774  0.00  0.00    +0.151 C 
ATOM      9  C   UNL     1     -40.390  23.184  -0.213  0.00  0.00    +0.068 C 
ATOM     10  CA  UNL     1     -41.208  24.123   0.701  0.00  0.00    +0.184 C 
ATOM     11  CA  UNL     1     -38.617  25.608   2.203  0.00  0.00    +0.178 C 
ATOM     12  C   UNL     1     -40.146  25.626   2.391  0.00  0.00    +0.247 C 
ATOM     13  C   UNL     1     -40.387  23.581  -1.695  0.00  0.00    +0.013 C 
ATOM     14  C   UNL     1     -40.837  21.728  -0.061  0.00  0.00    +0.013 C 
BRANCH  10  16
ATOM     15  OXT UNL     1     -42.434  25.833  -0.481  0.00  0.00    -0.248 OA
ATOM     16  C   UNL     1     -42.413  24.741   0.067  0.00  0.00    +0.333 C 
BRANCH  16  17
ATOM     17  O   UNL     1     -43.488  23.924   0.184  0.00  0.00    -0.479 OA
ATOM     18  H   UNL     1     -43.370  23.026   0.423  0.00  0.00    +0.295 HD
ENDBRANCH  16  17
ENDBRANCH  10  16
ENDBRANCH   2  11
BRANCH   3  19
ATOM     19  C   UNL     1     -35.998  23.524   4.019  0.00  0.00    +0.121 C 
ATOM     20  C   UNL     1     -35.637  23.936   5.288  0.00  0.00    +0.146 C 
ATOM     21  C   UNL     1     -35.864  22.212   3.611  0.00  0.00    +0.146 C 
ATOM     22  C   UNL     1     -35.121  22.998   6.182  0.00  0.00    +0.037 C 
ATOM     23  C   UNL     1     -35.347  21.274   4.506  0.00  0.00    +0.037 C 
ATOM     24  C   UNL     1     -34.976  21.668   5.791  0.00  0.00    +0.006 C 
BRANCH  20  25
ATOM     25  O   UNL     1     -35.771  25.232   5.690  0.00  0.00    -0.471 OA
ATOM     26  C   UNL     1     -34.578  26.006   5.788  0.00  0.00    +0.252 C 
ENDBRANCH  20  25
BRANCH  21  27
ATOM     27  O   UNL     1     -36.219  21.806   2.359  0.00  0.00    -0.471 OA
ATOM     28  C   UNL     1     -36.222  20.401   2.110  0.00  0.00    +0.252 C 
ENDBRANCH  21  27
ENDBRANCH   3  19
TORSDOF 6
ENDMDL
