MODEL 1
REMARK VINA RESULT:      -5.7      0.000      0.000
REMARK  Name = 60004399
REMARK  8 active torsions:
REMARK  status: ('A' for Active; 'I' for Inactive)
REMARK    1  A    between atoms: C_2  and  O_15
REMARK    2  A    between atoms: C_3  and  O_19
REMARK    3  A    between atoms: C_4  and  C_23
REMARK    4  A    between atoms: C_5  and  N_8
REMARK    5  A    between atoms: O_15  and  C_17
REMARK    6  A    between atoms: O_19  and  C_21
REMARK    7  A    between atoms: C_23  and  O_24
REMARK    8  A    between atoms: O_24  and  C_26
REMARK                            x       y       z     vdW  Elec       q    Type
REMARK                         _______ _______ _______ _____ _____    ______ ____
ROOT
ATOM      1  O   UNL     1     -35.678  21.538   3.268  0.00  0.00    -0.329 OA
ATOM      2  C   UNL     1     -36.588  21.845   1.107  0.00  0.00    +0.243 C 
ATOM      3  C   UNL     1     -37.577  22.403   2.109  0.00  0.00    +0.258 C 
ATOM      4  C   UNL     1     -35.756  20.909   1.976  0.00  0.00    +0.204 C 
ATOM      5  C   UNL     1     -36.767  22.465   3.400  0.00  0.00    +0.244 C 
ENDROOT
BRANCH   5   8
ATOM      6  O   UNL     1     -38.305  24.760   3.987  0.00  0.00    -0.252 OA
ATOM      7  O   UNL     1     -34.554  27.421   4.295  0.00  0.00    -0.270 OA
ATOM      8  N   UNL     1     -36.217  23.772   3.640  0.00  0.00    -0.216 N 
ATOM      9  N   UNL     1     -36.436  26.083   4.140  0.00  0.00    -0.236 N 
ATOM     10  C   UNL     1     -37.078  24.857   3.925  0.00  0.00    +0.315 C 
ATOM     11  C   UNL     1     -34.841  23.964   3.589  0.00  0.00    +0.076 C 
ATOM     12  C   UNL     1     -34.245  25.140   3.797  0.00  0.00    +0.074 C 
ATOM     13  C   UNL     1     -35.071  26.325   4.100  0.00  0.00    +0.254 C 
ATOM     14  H   UNL     1     -37.015  26.854   4.341  0.00  0.00    +0.159 HD
ENDBRANCH   5   8
BRANCH   2  15
ATOM     15  O   UNL     1     -35.783  22.899   0.592  0.00  0.00    -0.446 OA
BRANCH  15  17
ATOM     16  O   UNL     1     -37.188  23.579  -1.111  0.00  0.00    -0.250 OA
ATOM     17  C   UNL     1     -36.434  23.822  -0.178  0.00  0.00    +0.318 C 
ATOM     18  C   UNL     1     -36.092  25.205   0.285  0.00  0.00    +0.121 C 
ENDBRANCH  15  17
ENDBRANCH   2  15
BRANCH   3  19
ATOM     19  O   UNL     1     -38.647  21.476   2.267  0.00  0.00    -0.444 OA
BRANCH  19  21
ATOM     20  O   UNL     1     -40.484  20.878   1.000  0.00  0.00    -0.250 OA
ATOM     21  C   UNL     1     -39.759  21.720   1.512  0.00  0.00    +0.318 C 
ATOM     22  C   UNL     1     -39.977  23.199   1.394  0.00  0.00    +0.121 C 
ENDBRANCH  19  21
ENDBRANCH   3  19
BRANCH   4  23
ATOM     23  C   UNL     1     -34.354  20.623   1.471  0.00  0.00    +0.242 C 
BRANCH  23  24
ATOM     24  O   UNL     1     -34.107  19.229   1.569  0.00  0.00    -0.446 OA
BRANCH  24  26
ATOM     25  O   UNL     1     -32.303  17.785   1.634  0.00  0.00    -0.250 OA
ATOM     26  C   UNL     1     -32.835  18.824   1.265  0.00  0.00    +0.318 C 
ATOM     27  C   UNL     1     -32.164  19.848   0.400  0.00  0.00    +0.121 C 
ENDBRANCH  24  26
ENDBRANCH  23  24
ENDBRANCH   4  23
TORSDOF 8
ENDMDL
MODEL 2
REMARK VINA RESULT:      -5.6      2.142      5.665
REMARK  Name = 60004399
REMARK  8 active torsions:
REMARK  status: ('A' for Active; 'I' for Inactive)
REMARK    1  A    between atoms: C_2  and  O_15
REMARK    2  A    between atoms: C_3  and  O_19
REMARK    3  A    between atoms: C_4  and  C_23
REMARK    4  A    between atoms: C_5  and  N_8
REMARK    5  A    between atoms: O_15  and  C_17
REMARK    6  A    between atoms: O_19  and  C_21
REMARK    7  A    between atoms: C_23  and  O_24
REMARK    8  A    between atoms: O_24  and  C_26
REMARK                            x       y       z     vdW  Elec       q    Type
REMARK                         _______ _______ _______ _____ _____    ______ ____
ROOT
ATOM      1  O   UNL     1     -35.853  23.372   0.924  0.00  0.00    -0.329 OA
ATOM      2  C   UNL     1     -36.661  23.220   3.141  0.00  0.00    +0.243 C 
ATOM      3  C   UNL     1     -37.527  22.332   2.271  0.00  0.00    +0.258 C 
ATOM      4  C   UNL     1     -36.044  24.160   2.112  0.00  0.00    +0.204 C 
ATOM      5  C   UNL     1     -36.734  22.238   0.972  0.00  0.00    +0.244 C 
ENDROOT
BRANCH   5   8
ATOM      6  O   UNL     1     -37.736  19.679   0.321  0.00  0.00    -0.252 OA
ATOM      7  O   UNL     1     -33.577  17.739   0.743  0.00  0.00    -0.270 OA
ATOM      8  N   UNL     1     -35.933  21.046   0.903  0.00  0.00    -0.216 N 
ATOM      9  N   UNL     1     -35.664  18.715   0.531  0.00  0.00    -0.236 N 
ATOM     10  C   UNL     1     -36.536  19.811   0.568  0.00  0.00    +0.315 C 
ATOM     11  C   UNL     1     -34.570  21.110   1.167  0.00  0.00    +0.076 C 
ATOM     12  C   UNL     1     -33.753  20.056   1.128  0.00  0.00    +0.074 C 
ATOM     13  C   UNL     1     -34.301  18.728   0.787  0.00  0.00    +0.254 C 
ATOM     14  H   UNL     1     -36.061  17.844   0.300  0.00  0.00    +0.159 HD
ENDBRANCH   5   8
BRANCH   2  15
ATOM     15  O   UNL     1     -35.655  22.436   3.771  0.00  0.00    -0.446 OA
BRANCH  15  17
ATOM     16  O   UNL     1     -36.106  23.374   5.834  0.00  0.00    -0.250 OA
ATOM     17  C   UNL     1     -35.631  22.487   5.137  0.00  0.00    +0.318 C 
ATOM     18  C   UNL     1     -34.926  21.281   5.680  0.00  0.00    +0.121 C 
ENDBRANCH  15  17
ENDBRANCH   2  15
BRANCH   3  19
ATOM     19  O   UNL     1     -38.764  22.994   2.022  0.00  0.00    -0.444 OA
BRANCH  19  21
ATOM     20  O   UNL     1     -40.197  21.185   2.115  0.00  0.00    -0.250 OA
ATOM     21  C   UNL     1     -39.780  22.199   1.573  0.00  0.00    +0.318 C 
ATOM     22  C   UNL     1     -40.329  22.753   0.293  0.00  0.00    +0.121 C 
ENDBRANCH  19  21
ENDBRANCH   3  19
BRANCH   4  23
ATOM     23  C   UNL     1     -34.724  24.792   2.514  0.00  0.00    +0.242 C 
BRANCH  23  24
ATOM     24  O   UNL     1     -34.951  25.678   3.599  0.00  0.00    -0.446 OA
BRANCH  24  26
ATOM     25  O   UNL     1     -32.737  26.300   3.829  0.00  0.00    -0.250 OA
ATOM     26  C   UNL     1     -33.840  26.059   4.302  0.00  0.00    +0.318 C 
ATOM     27  C   UNL     1     -34.162  26.141   5.764  0.00  0.00    +0.121 C 
ENDBRANCH  24  26
ENDBRANCH  23  24
ENDBRANCH   4  23
TORSDOF 8
ENDMDL
MODEL 3
REMARK VINA RESULT:      -5.5      3.421      6.215
REMARK  Name = 60004399
REMARK  8 active torsions:
REMARK  status: ('A' for Active; 'I' for Inactive)
REMARK    1  A    between atoms: C_2  and  O_15
REMARK    2  A    between atoms: C_3  and  O_19
REMARK    3  A    between atoms: C_4  and  C_23
REMARK    4  A    between atoms: C_5  and  N_8
REMARK    5  A    between atoms: O_15  and  C_17
REMARK    6  A    between atoms: O_19  and  C_21
REMARK    7  A    between atoms: C_23  and  O_24
REMARK    8  A    between atoms: O_24  and  C_26
REMARK                            x       y       z     vdW  Elec       q    Type
REMARK                         _______ _______ _______ _____ _____    ______ ____
ROOT
ATOM      1  O   UNL     1     -35.169  26.916   4.603  0.00  0.00    -0.329 OA
ATOM      2  C   UNL     1     -33.677  25.391   3.583  0.00  0.00    +0.243 C 
ATOM      3  C   UNL     1     -34.926  24.626   3.971  0.00  0.00    +0.258 C 
ATOM      4  C   UNL     1     -33.767  26.616   4.485  0.00  0.00    +0.204 C 
ATOM      5  C   UNL     1     -35.925  25.733   4.295  0.00  0.00    +0.244 C 
ENDROOT
BRANCH   5   8
ATOM      6  O   UNL     1     -38.339  24.374   3.750  0.00  0.00    -0.252 OA
ATOM      7  O   UNL     1     -39.164  26.953   0.020  0.00  0.00    -0.270 OA
ATOM      8  N   UNL     1     -36.792  26.030   3.187  0.00  0.00    -0.216 N 
ATOM      9  N   UNL     1     -38.748  25.659   1.893  0.00  0.00    -0.236 N 
ATOM     10  C   UNL     1     -37.980  25.287   3.004  0.00  0.00    +0.315 C 
ATOM     11  C   UNL     1     -36.458  27.047   2.300  0.00  0.00    +0.076 C 
ATOM     12  C   UNL     1     -37.202  27.390   1.246  0.00  0.00    +0.074 C 
ATOM     13  C   UNL     1     -38.459  26.663   0.981  0.00  0.00    +0.254 C 
ATOM     14  H   UNL     1     -39.582  25.156   1.744  0.00  0.00    +0.159 HD
ENDBRANCH   5   8
BRANCH   2  15
ATOM     15  O   UNL     1     -33.755  25.769   2.214  0.00  0.00    -0.446 OA
BRANCH  15  17
ATOM     16  O   UNL     1     -31.622  25.500   1.369  0.00  0.00    -0.250 OA
ATOM     17  C   UNL     1     -32.813  25.218   1.391  0.00  0.00    +0.318 C 
ATOM     18  C   UNL     1     -33.449  24.198   0.497  0.00  0.00    +0.121 C 
ENDBRANCH  15  17
ENDBRANCH   2  15
BRANCH   3  19
ATOM     19  O   UNL     1     -34.659  23.872   5.150  0.00  0.00    -0.444 OA
BRANCH  19  21
ATOM     20  O   UNL     1     -35.938  22.389   6.375  0.00  0.00    -0.250 OA
ATOM     21  C   UNL     1     -35.427  22.756   5.326  0.00  0.00    +0.318 C 
ATOM     22  C   UNL     1     -35.562  22.024   4.025  0.00  0.00    +0.121 C 
ENDBRANCH  19  21
ENDBRANCH   3  19
BRANCH   4  23
ATOM     23  C   UNL     1     -33.030  27.847   3.989  0.00  0.00    +0.242 C 
BRANCH  23  24
ATOM     24  O   UNL     1     -32.829  28.731   5.081  0.00  0.00    -0.446 OA
BRANCH  24  26
ATOM     25  O   UNL     1     -30.736  27.825   5.456  0.00  0.00    -0.250 OA
ATOM     26  C   UNL     1     -31.628  28.618   5.728  0.00  0.00    +0.318 C 
ATOM     27  C   UNL     1     -31.550  29.618   6.842  0.00  0.00    +0.121 C 
ENDBRANCH  24  26
ENDBRANCH  23  24
ENDBRANCH   4  23
TORSDOF 8
ENDMDL
MODEL 4
REMARK VINA RESULT:      -5.5      2.540      5.176
REMARK  Name = 60004399
REMARK  8 active torsions:
REMARK  status: ('A' for Active; 'I' for Inactive)
REMARK    1  A    between atoms: C_2  and  O_15
REMARK    2  A    between atoms: C_3  and  O_19
REMARK    3  A    between atoms: C_4  and  C_23
REMARK    4  A    between atoms: C_5  and  N_8
REMARK    5  A    between atoms: O_15  and  C_17
REMARK    6  A    between atoms: O_19  and  C_21
REMARK    7  A    between atoms: C_23  and  O_24
REMARK    8  A    between atoms: O_24  and  C_26
REMARK                            x       y       z     vdW  Elec       q    Type
REMARK                         _______ _______ _______ _____ _____    ______ ____
ROOT
ATOM      1  O   UNL     1     -36.499  25.775   3.065  0.00  0.00    -0.329 OA
ATOM      2  C   UNL     1     -36.806  23.636   4.026  0.00  0.00    +0.243 C 
ATOM      3  C   UNL     1     -37.168  23.540   2.558  0.00  0.00    +0.258 C 
ATOM      4  C   UNL     1     -36.925  25.134   4.280  0.00  0.00    +0.204 C 
ATOM      5  C   UNL     1     -36.623  24.842   1.980  0.00  0.00    +0.244 C 
ENDROOT
BRANCH   5   8
ATOM      6  O   UNL     1     -34.809  26.951   1.492  0.00  0.00    -0.252 OA
ATOM      7  O   UNL     1     -31.685  24.090  -0.326  0.00  0.00    -0.270 OA
ATOM      8  N   UNL     1     -35.327  24.676   1.381  0.00  0.00    -0.216 N 
ATOM      9  N   UNL     1     -33.255  25.524   0.588  0.00  0.00    -0.236 N 
ATOM     10  C   UNL     1     -34.494  25.801   1.180  0.00  0.00    +0.315 C 
ATOM     11  C   UNL     1     -34.896  23.410   1.000  0.00  0.00    +0.076 C 
ATOM     12  C   UNL     1     -33.712  23.163   0.437  0.00  0.00    +0.074 C 
ATOM     13  C   UNL     1     -32.782  24.283   0.191  0.00  0.00    +0.254 C 
ATOM     14  H   UNL     1     -32.657  26.293   0.437  0.00  0.00    +0.159 HD
ENDBRANCH   5   8
BRANCH   2  15
ATOM     15  O   UNL     1     -35.465  23.201   4.216  0.00  0.00    -0.446 OA
BRANCH  15  17
ATOM     16  O   UNL     1     -35.240  20.901   4.227  0.00  0.00    -0.250 OA
ATOM     17  C   UNL     1     -35.316  21.976   4.807  0.00  0.00    +0.318 C 
ATOM     18  C   UNL     1     -35.257  22.131   6.296  0.00  0.00    +0.121 C 
ENDBRANCH  15  17
ENDBRANCH   2  15
BRANCH   3  19
ATOM     19  O   UNL     1     -38.587  23.525   2.432  0.00  0.00    -0.444 OA
BRANCH  19  21
ATOM     20  O   UNL     1     -40.126  21.808   2.287  0.00  0.00    -0.250 OA
ATOM     21  C   UNL     1     -39.121  22.387   1.896  0.00  0.00    +0.318 C 
ATOM     22  C   UNL     1     -38.289  21.933   0.736  0.00  0.00    +0.121 C 
ENDBRANCH  19  21
ENDBRANCH   3  19
BRANCH   4  23
ATOM     23  C   UNL     1     -36.108  25.666   5.443  0.00  0.00    +0.242 C 
BRANCH  23  24
ATOM     24  O   UNL     1     -35.139  26.575   4.945  0.00  0.00    -0.446 OA
BRANCH  24  26
ATOM     25  O   UNL     1     -33.140  25.599   4.318  0.00  0.00    -0.250 OA
ATOM     26  C   UNL     1     -33.831  26.211   5.122  0.00  0.00    +0.318 C 
ATOM     27  C   UNL     1     -33.349  26.672   6.464  0.00  0.00    +0.121 C 
ENDBRANCH  24  26
ENDBRANCH  23  24
ENDBRANCH   4  23
TORSDOF 8
ENDMDL
MODEL 5
REMARK VINA RESULT:      -5.5      2.439      5.312
REMARK  Name = 60004399
REMARK  8 active torsions:
REMARK  status: ('A' for Active; 'I' for Inactive)
REMARK    1  A    between atoms: C_2  and  O_15
REMARK    2  A    between atoms: C_3  and  O_19
REMARK    3  A    between atoms: C_4  and  C_23
REMARK    4  A    between atoms: C_5  and  N_8
REMARK    5  A    between atoms: O_15  and  C_17
REMARK    6  A    between atoms: O_19  and  C_21
REMARK    7  A    between atoms: C_23  and  O_24
REMARK    8  A    between atoms: O_24  and  C_26
REMARK                            x       y       z     vdW  Elec       q    Type
REMARK                         _______ _______ _______ _____ _____    ______ ____
ROOT
ATOM      1  O   UNL     1     -36.449  25.768   3.097  0.00  0.00    -0.329 OA
ATOM      2  C   UNL     1     -36.762  23.772   4.325  0.00  0.00    +0.243 C 
ATOM      3  C   UNL     1     -37.335  23.556   2.940  0.00  0.00    +0.258 C 
ATOM      4  C   UNL     1     -36.741  25.293   4.423  0.00  0.00    +0.204 C 
ATOM      5  C   UNL     1     -36.790  24.743   2.150  0.00  0.00    +0.244 C 
ENDROOT
BRANCH   5   8
ATOM      6  O   UNL     1     -36.695  22.818   0.085  0.00  0.00    -0.252 OA
ATOM      7  O   UNL     1     -32.199  23.540  -0.630  0.00  0.00    -0.270 OA
ATOM      8  N   UNL     1     -35.607  24.408   1.406  0.00  0.00    -0.216 N 
ATOM      9  N   UNL     1     -34.456  23.179  -0.270  0.00  0.00    -0.236 N 
ATOM     10  C   UNL     1     -35.667  23.427   0.390  0.00  0.00    +0.315 C 
ATOM     11  C   UNL     1     -34.406  25.051   1.688  0.00  0.00    +0.076 C 
ATOM     12  C   UNL     1     -33.261  24.804   1.049  0.00  0.00    +0.074 C 
ATOM     13  C   UNL     1     -33.236  23.791  -0.025  0.00  0.00    +0.254 C 
ATOM     14  H   UNL     1     -34.473  22.499  -0.982  0.00  0.00    +0.159 HD
ENDBRANCH   5   8
BRANCH   2  15
ATOM     15  O   UNL     1     -35.442  23.248   4.383  0.00  0.00    -0.446 OA
BRANCH  15  17
ATOM     16  O   UNL     1     -35.209  20.950   4.325  0.00  0.00    -0.250 OA
ATOM     17  C   UNL     1     -35.319  22.004   4.937  0.00  0.00    +0.318 C 
ATOM     18  C   UNL     1     -35.338  22.108   6.432  0.00  0.00    +0.121 C 
ENDBRANCH  15  17
ENDBRANCH   2  15
BRANCH   3  19
ATOM     19  O   UNL     1     -38.755  23.648   3.007  0.00  0.00    -0.444 OA
BRANCH  19  21
ATOM     20  O   UNL     1     -39.395  21.602   2.144  0.00  0.00    -0.250 OA
ATOM     21  C   UNL     1     -39.442  22.825   2.160  0.00  0.00    +0.318 C 
ATOM     22  C   UNL     1     -40.283  23.644   1.228  0.00  0.00    +0.121 C 
ENDBRANCH  19  21
ENDBRANCH   3  19
BRANCH   4  23
ATOM     23  C   UNL     1     -35.732  25.871   5.398  0.00  0.00    +0.242 C 
BRANCH  23  24
ATOM     24  O   UNL     1     -34.917  26.808   4.713  0.00  0.00    -0.446 OA
BRANCH  24  26
ATOM     25  O   UNL     1     -32.677  26.777   4.149  0.00  0.00    -0.250 OA
ATOM     26  C   UNL     1     -33.576  26.741   4.978  0.00  0.00    +0.318 C 
ATOM     27  C   UNL     1     -33.351  26.613   6.454  0.00  0.00    +0.121 C 
ENDBRANCH  24  26
ENDBRANCH  23  24
ENDBRANCH   4  23
TORSDOF 8
ENDMDL
MODEL 6
REMARK VINA RESULT:      -5.5      2.696      4.492
REMARK  Name = 60004399
REMARK  8 active torsions:
REMARK  status: ('A' for Active; 'I' for Inactive)
REMARK    1  A    between atoms: C_2  and  O_15
REMARK    2  A    between atoms: C_3  and  O_19
REMARK    3  A    between atoms: C_4  and  C_23
REMARK    4  A    between atoms: C_5  and  N_8
REMARK    5  A    between atoms: O_15  and  C_17
REMARK    6  A    between atoms: O_19  and  C_21
REMARK    7  A    between atoms: C_23  and  O_24
REMARK    8  A    between atoms: O_24  and  C_26
REMARK                            x       y       z     vdW  Elec       q    Type
REMARK                         _______ _______ _______ _____ _____    ______ ____
ROOT
ATOM      1  O   UNL     1     -37.213  25.041   3.690  0.00  0.00    -0.329 OA
ATOM      2  C   UNL     1     -36.182  24.512   1.629  0.00  0.00    +0.243 C 
ATOM      3  C   UNL     1     -36.244  26.021   1.740  0.00  0.00    +0.258 C 
ATOM      4  C   UNL     1     -37.256  24.080   2.621  0.00  0.00    +0.204 C 
ATOM      5  C   UNL     1     -36.599  26.247   3.207  0.00  0.00    +0.244 C 
ENDROOT
BRANCH   5   8
ATOM      6  O   UNL     1     -34.739  28.309   2.694  0.00  0.00    -0.252 OA
ATOM      7  O   UNL     1     -32.199  27.184   6.372  0.00  0.00    -0.270 OA
ATOM      8  N   UNL     1     -35.442  26.517   4.016  0.00  0.00    -0.216 N 
ATOM      9  N   UNL     1     -33.476  27.747   4.526  0.00  0.00    -0.236 N 
ATOM     10  C   UNL     1     -34.571  27.575   3.670  0.00  0.00    +0.315 C 
ATOM     11  C   UNL     1     -35.183  25.735   5.136  0.00  0.00    +0.076 C 
ATOM     12  C   UNL     1     -34.134  25.912   5.942  0.00  0.00    +0.074 C 
ATOM     13  C   UNL     1     -33.174  26.996   5.652  0.00  0.00    +0.254 C 
ATOM     14  H   UNL     1     -32.855  28.479   4.305  0.00  0.00    +0.159 HD
ENDBRANCH   5   8
BRANCH   2  15
ATOM     15  O   UNL     1     -34.901  24.054   2.046  0.00  0.00    -0.446 OA
BRANCH  15  17
ATOM     16  O   UNL     1     -33.217  24.306   0.485  0.00  0.00    -0.250 OA
ATOM     17  C   UNL     1     -34.068  23.630   1.049  0.00  0.00    +0.318 C 
ATOM     18  C   UNL     1     -34.342  22.192   0.731  0.00  0.00    +0.121 C 
ENDBRANCH  15  17
ENDBRANCH   2  15
BRANCH   3  19
ATOM     19  O   UNL     1     -37.303  26.502   0.919  0.00  0.00    -0.444 OA
BRANCH  19  21
ATOM     20  O   UNL     1     -37.803  28.751   0.750  0.00  0.00    -0.250 OA
ATOM     21  C   UNL     1     -37.146  27.769   0.432  0.00  0.00    +0.318 C 
ATOM     22  C   UNL     1     -36.032  27.793  -0.570  0.00  0.00    +0.121 C 
ENDBRANCH  19  21
ENDBRANCH   3  19
BRANCH   4  23
ATOM     23  C   UNL     1     -37.093  22.684   3.193  0.00  0.00    +0.242 C 
BRANCH  23  24
ATOM     24  O   UNL     1     -36.600  22.786   4.519  0.00  0.00    -0.446 OA
BRANCH  24  26
ATOM     25  O   UNL     1     -35.190  20.992   4.157  0.00  0.00    -0.250 OA
ATOM     26  C   UNL     1     -35.635  21.880   4.870  0.00  0.00    +0.318 C 
ATOM     27  C   UNL     1     -35.189  22.128   6.280  0.00  0.00    +0.121 C 
ENDBRANCH  24  26
ENDBRANCH  23  24
ENDBRANCH   4  23
TORSDOF 8
ENDMDL
MODEL 7
REMARK VINA RESULT:      -5.3      2.579      6.455
REMARK  Name = 60004399
REMARK  8 active torsions:
REMARK  status: ('A' for Active; 'I' for Inactive)
REMARK    1  A    between atoms: C_2  and  O_15
REMARK    2  A    between atoms: C_3  and  O_19
REMARK    3  A    between atoms: C_4  and  C_23
REMARK    4  A    between atoms: C_5  and  N_8
REMARK    5  A    between atoms: O_15  and  C_17
REMARK    6  A    between atoms: O_19  and  C_21
REMARK    7  A    between atoms: C_23  and  O_24
REMARK    8  A    between atoms: O_24  and  C_26
REMARK                            x       y       z     vdW  Elec       q    Type
REMARK                         _______ _______ _______ _____ _____    ______ ____
ROOT
ATOM      1  O   UNL     1     -38.477  22.804   2.248  0.00  0.00    -0.329 OA
ATOM      2  C   UNL     1     -36.653  24.297   2.439  0.00  0.00    +0.243 C 
ATOM      3  C   UNL     1     -36.367  23.103   3.326  0.00  0.00    +0.258 C 
ATOM      4  C   UNL     1     -38.166  24.208   2.271  0.00  0.00    +0.204 C 
ATOM      5  C   UNL     1     -37.407  22.080   2.877  0.00  0.00    +0.244 C 
ENDROOT
BRANCH   5   8
ATOM      6  O   UNL     1     -35.213  20.370   3.370  0.00  0.00    -0.252 OA
ATOM      7  O   UNL     1     -35.461  18.533  -0.850  0.00  0.00    -0.270 OA
ATOM      8  N   UNL     1     -36.877  21.143   1.924  0.00  0.00    -0.216 N 
ATOM      9  N   UNL     1     -35.339  19.457   1.268  0.00  0.00    -0.236 N 
ATOM     10  C   UNL     1     -35.773  20.332   2.273  0.00  0.00    +0.315 C 
ATOM     11  C   UNL     1     -37.453  21.038   0.663  0.00  0.00    +0.076 C 
ATOM     12  C   UNL     1     -37.027  20.198  -0.282  0.00  0.00    +0.074 C 
ATOM     13  C   UNL     1     -35.878  19.316  -0.002  0.00  0.00    +0.254 C 
ATOM     14  H   UNL     1     -34.570  18.881   1.487  0.00  0.00    +0.159 HD
ENDBRANCH   5   8
BRANCH   2  15
ATOM     15  O   UNL     1     -35.999  24.130   1.188  0.00  0.00    -0.446 OA
BRANCH  15  17
ATOM     16  O   UNL     1     -33.932  24.930   1.838  0.00  0.00    -0.250 OA
ATOM     17  C   UNL     1     -34.633  24.136   1.226  0.00  0.00    +0.318 C 
ATOM     18  C   UNL     1     -34.094  23.010   0.395  0.00  0.00    +0.121 C 
ENDBRANCH  15  17
ENDBRANCH   2  15
BRANCH   3  19
ATOM     19  O   UNL     1     -36.616  23.464   4.682  0.00  0.00    -0.444 OA
BRANCH  19  21
ATOM     20  O   UNL     1     -34.721  24.452   5.560  0.00  0.00    -0.250 OA
ATOM     21  C   UNL     1     -35.515  23.524   5.489  0.00  0.00    +0.318 C 
ATOM     22  C   UNL     1     -35.410  22.267   6.298  0.00  0.00    +0.121 C 
ENDBRANCH  19  21
ENDBRANCH   3  19
BRANCH   4  23
ATOM     23  C   UNL     1     -38.724  24.868   1.024  0.00  0.00    +0.242 C 
BRANCH  23  24
ATOM     24  O   UNL     1     -39.665  25.857   1.410  0.00  0.00    -0.446 OA
BRANCH  24  26
ATOM     25  O   UNL     1     -41.496  24.448   1.445  0.00  0.00    -0.250 OA
ATOM     26  C   UNL     1     -40.858  25.391   1.893  0.00  0.00    +0.318 C 
ATOM     27  C   UNL     1     -41.289  26.211   3.072  0.00  0.00    +0.121 C 
ENDBRANCH  24  26
ENDBRANCH  23  24
ENDBRANCH   4  23
TORSDOF 8
ENDMDL
MODEL 8
REMARK VINA RESULT:      -5.3      2.729      5.563
REMARK  Name = 60004399
REMARK  8 active torsions:
REMARK  status: ('A' for Active; 'I' for Inactive)
REMARK    1  A    between atoms: C_2  and  O_15
REMARK    2  A    between atoms: C_3  and  O_19
REMARK    3  A    between atoms: C_4  and  C_23
REMARK    4  A    between atoms: C_5  and  N_8
REMARK    5  A    between atoms: O_15  and  C_17
REMARK    6  A    between atoms: O_19  and  C_21
REMARK    7  A    between atoms: C_23  and  O_24
REMARK    8  A    between atoms: O_24  and  C_26
REMARK                            x       y       z     vdW  Elec       q    Type
REMARK                         _______ _______ _______ _____ _____    ______ ____
ROOT
ATOM      1  O   UNL     1     -35.969  26.046   4.400  0.00  0.00    -0.329 OA
ATOM      2  C   UNL     1     -34.892  24.166   3.454  0.00  0.00    +0.243 C 
ATOM      3  C   UNL     1     -36.312  23.763   3.793  0.00  0.00    +0.258 C 
ATOM      4  C   UNL     1     -34.692  25.387   4.344  0.00  0.00    +0.204 C 
ATOM      5  C   UNL     1     -36.996  25.098   4.067  0.00  0.00    +0.244 C 
ENDROOT
BRANCH   5   8
ATOM      6  O   UNL     1     -39.509  24.133   3.212  0.00  0.00    -0.252 OA
ATOM      7  O   UNL     1     -39.634  27.068  -0.340  0.00  0.00    -0.270 OA
ATOM      8  N   UNL     1     -37.710  25.594   2.921  0.00  0.00    -0.216 N 
ATOM      9  N   UNL     1     -39.569  25.596   1.444  0.00  0.00    -0.236 N 
ATOM     10  C   UNL     1     -38.964  25.039   2.578  0.00  0.00    +0.315 C 
ATOM     11  C   UNL     1     -37.163  26.616   2.153  0.00  0.00    +0.076 C 
ATOM     12  C   UNL     1     -37.753  27.136   1.075  0.00  0.00    +0.074 C 
ATOM     13  C   UNL     1     -39.066  26.613   0.647  0.00  0.00    +0.254 C 
ATOM     14  H   UNL     1     -40.445  25.226   1.185  0.00  0.00    +0.159 HD
ENDBRANCH   5   8
BRANCH   2  15
ATOM     15  O   UNL     1     -34.812  24.528   2.081  0.00  0.00    -0.446 OA
BRANCH  15  17
ATOM     16  O   UNL     1     -34.386  22.425   1.224  0.00  0.00    -0.250 OA
ATOM     17  C   UNL     1     -34.962  23.504   1.187  0.00  0.00    +0.318 C 
ATOM     18  C   UNL     1     -35.950  23.891   0.129  0.00  0.00    +0.121 C 
ENDBRANCH  15  17
ENDBRANCH   2  15
BRANCH   3  19
ATOM     19  O   UNL     1     -36.300  22.986   4.987  0.00  0.00    -0.444 OA
BRANCH  19  21
ATOM     20  O   UNL     1     -35.472  21.054   4.028  0.00  0.00    -0.250 OA
ATOM     21  C   UNL     1     -35.533  21.855   4.949  0.00  0.00    +0.318 C 
ATOM     22  C   UNL     1     -34.755  21.728   6.225  0.00  0.00    +0.121 C 
ENDBRANCH  19  21
ENDBRANCH   3  19
BRANCH   4  23
ATOM     23  C   UNL     1     -33.638  26.373   3.874  0.00  0.00    +0.242 C 
BRANCH  23  24
ATOM     24  O   UNL     1     -33.667  27.513   4.718  0.00  0.00    -0.446 OA
BRANCH  24  26
ATOM     25  O   UNL     1     -32.380  27.010   6.569  0.00  0.00    -0.250 OA
ATOM     26  C   UNL     1     -32.596  27.663   5.557  0.00  0.00    +0.318 C 
ATOM     27  C   UNL     1     -31.704  28.760   5.060  0.00  0.00    +0.121 C 
ENDBRANCH  24  26
ENDBRANCH  23  24
ENDBRANCH   4  23
TORSDOF 8
ENDMDL
MODEL 9
REMARK VINA RESULT:      -5.3      2.159      4.802
REMARK  Name = 60004399
REMARK  8 active torsions:
REMARK  status: ('A' for Active; 'I' for Inactive)
REMARK    1  A    between atoms: C_2  and  O_15
REMARK    2  A    between atoms: C_3  and  O_19
REMARK    3  A    between atoms: C_4  and  C_23
REMARK    4  A    between atoms: C_5  and  N_8
REMARK    5  A    between atoms: O_15  and  C_17
REMARK    6  A    between atoms: O_19  and  C_21
REMARK    7  A    between atoms: C_23  and  O_24
REMARK    8  A    between atoms: O_24  and  C_26
REMARK                            x       y       z     vdW  Elec       q    Type
REMARK                         _______ _______ _______ _____ _____    ______ ____
ROOT
ATOM      1  O   UNL     1     -36.361  22.880   1.258  0.00  0.00    -0.329 OA
ATOM      2  C   UNL     1     -35.000  23.062   3.183  0.00  0.00    +0.243 C 
ATOM      3  C   UNL     1     -35.124  24.443   2.572  0.00  0.00    +0.258 C 
ATOM      4  C   UNL     1     -35.361  22.165   2.005  0.00  0.00    +0.204 C 
ATOM      5  C   UNL     1     -36.263  24.279   1.571  0.00  0.00    +0.244 C 
ENDROOT
BRANCH   5   8
ATOM      6  O   UNL     1     -36.800  26.896   2.488  0.00  0.00    -0.252 OA
ATOM      7  O   UNL     1     -41.141  25.814   3.596  0.00  0.00    -0.270 OA
ATOM      8  N   UNL     1     -37.527  24.709   2.103  0.00  0.00    -0.216 N 
ATOM      9  N   UNL     1     -38.961  26.355   3.039  0.00  0.00    -0.236 N 
ATOM     10  C   UNL     1     -37.691  26.045   2.537  0.00  0.00    +0.315 C 
ATOM     11  C   UNL     1     -38.583  23.810   2.192  0.00  0.00    +0.076 C 
ATOM     12  C   UNL     1     -39.789  24.122   2.672  0.00  0.00    +0.074 C 
ATOM     13  C   UNL     1     -40.045  25.496   3.147  0.00  0.00    +0.254 C 
ATOM     14  H   UNL     1     -39.100  27.280   3.347  0.00  0.00    +0.159 HD
ENDBRANCH   5   8
BRANCH   2  15
ATOM     15  O   UNL     1     -35.948  22.917   4.233  0.00  0.00    -0.446 OA
BRANCH  15  17
ATOM     16  O   UNL     1     -35.351  24.412   5.889  0.00  0.00    -0.250 OA
ATOM     17  C   UNL     1     -35.513  23.271   5.480  0.00  0.00    +0.318 C 
ATOM     18  C   UNL     1     -35.257  22.042   6.298  0.00  0.00    +0.121 C 
ENDBRANCH  15  17
ENDBRANCH   2  15
BRANCH   3  19
ATOM     19  O   UNL     1     -33.921  24.748   1.873  0.00  0.00    -0.444 OA
BRANCH  19  21
ATOM     20  O   UNL     1     -32.930  25.825   3.660  0.00  0.00    -0.250 OA
ATOM     21  C   UNL     1     -33.116  25.684   2.459  0.00  0.00    +0.318 C 
ATOM     22  C   UNL     1     -32.475  26.534   1.405  0.00  0.00    +0.121 C 
ENDBRANCH  19  21
ENDBRANCH   3  19
BRANCH   4  23
ATOM     23  C   UNL     1     -35.893  20.791   2.370  0.00  0.00    +0.242 C 
BRANCH  23  24
ATOM     24  O   UNL     1     -34.806  19.882   2.439  0.00  0.00    -0.446 OA
BRANCH  24  26
ATOM     25  O   UNL     1     -35.098  19.258   0.233  0.00  0.00    -0.250 OA
ATOM     26  C   UNL     1     -34.423  19.317   1.252  0.00  0.00    +0.318 C 
ATOM     27  C   UNL     1     -33.033  18.767   1.371  0.00  0.00    +0.121 C 
ENDBRANCH  24  26
ENDBRANCH  23  24
ENDBRANCH   4  23
TORSDOF 8
ENDMDL
