MODEL 1
REMARK VINA RESULT:      -6.3      0.000      0.000
REMARK  Name = 5487766
REMARK  7 active torsions:
REMARK  status: ('A' for Active; 'I' for Inactive)
REMARK    1  A    between atoms: C_4  and  C_12
REMARK    2  A    between atoms: C_6  and  O_26
REMARK    3  A    between atoms: C_8  and  O_22
REMARK    4  A    between atoms: C_11  and  O_24
REMARK    5  A    between atoms: C_15  and  O_18
REMARK    6  A    between atoms: C_17  and  O_20
REMARK    7  A    between atoms: O_26  and  S_27
REMARK                            x       y       z     vdW  Elec       q    Type
REMARK                         _______ _______ _______ _____ _____    ______ ____
ROOT
ATOM      1  O   UNL     1     -34.965  26.091   3.003  0.00  0.00    -0.450 OA
ATOM      2  O   UNL     1     -38.536  27.275   1.440  0.00  0.00    -0.283 OA
ATOM      3  C   UNL     1     -36.253  27.751   1.787  0.00  0.00    +0.110 A 
ATOM      4  C   UNL     1     -36.097  25.300   3.107  0.00  0.00    +0.185 A 
ATOM      5  C   UNL     1     -35.063  27.291   2.345  0.00  0.00    +0.155 A 
ATOM      6  C   UNL     1     -37.307  25.632   2.622  0.00  0.00    +0.248 A 
ATOM      7  C   UNL     1     -37.462  26.921   1.906  0.00  0.00    +0.241 A 
ATOM      8  C   UNL     1     -36.294  28.982   1.128  0.00  0.00    +0.143 C 
ATOM      9  C   UNL     1     -33.904  28.061   2.249  0.00  0.00    +0.074 C 
ATOM     10  C   UNL     1     -35.133  29.751   1.034  0.00  0.00    +0.073 C 
ATOM     11  C   UNL     1     -33.940  29.291   1.592  0.00  0.00    +0.140 C 
ENDROOT
BRANCH   4  12
ATOM     12  C   UNL     1     -35.854  24.042   3.836  0.00  0.00    +0.041 C 
ATOM     13  C   UNL     1     -35.722  22.843   3.136  0.00  0.00    +0.043 C 
ATOM     14  C   UNL     1     -35.756  24.050   5.228  0.00  0.00    +0.006 C 
ATOM     15  C   UNL     1     -35.493  21.653   3.825  0.00  0.00    +0.172 C 
ATOM     16  C   UNL     1     -35.526  22.860   5.918  0.00  0.00    +0.040 C 
ATOM     17  C   UNL     1     -35.395  21.661   5.217  0.00  0.00    +0.168 C 
BRANCH  15  18
ATOM     18  O   UNL     1     -35.364  20.488   3.130  0.00  0.00    -0.468 OA
ATOM     19  C   UNL     1     -36.269  20.276   2.048  0.00  0.00    +0.253 C 
ENDBRANCH  15  18
BRANCH  17  20
ATOM     20  O   UNL     1     -35.169  20.505   5.902  0.00  0.00    -0.503 OA
ATOM     21  H   UNL     1     -34.328  20.095   5.863  0.00  0.00    +0.292 HD
ENDBRANCH  17  20
ENDBRANCH   4  12
BRANCH   8  22
ATOM     22  O   UNL     1     -37.431  29.478   0.566  0.00  0.00    -0.505 OA
ATOM     23  H   UNL     1     -37.988  30.047   1.059  0.00  0.00    +0.292 HD
ENDBRANCH   8  22
BRANCH  11  24
ATOM     24  O   UNL     1     -32.810  30.044   1.497  0.00  0.00    -0.505 OA
ATOM     25  H   UNL     1     -31.968  29.632   1.515  0.00  0.00    +0.292 HD
ENDBRANCH  11  24
BRANCH   6  26
ATOM     26  O   UNL     1     -38.422  24.836   2.771  0.00  0.00    -0.315 OA
BRANCH  26  27
ATOM     27  S   UNL     1     -38.932  23.897   1.549  0.00  0.00    +0.282 S 
ATOM     28  O   UNL     1     -39.137  22.430   2.234  0.00  0.00    -0.012 OA
ATOM     29  O   UNL     1     -37.873  23.785   0.560  0.00  0.00    -0.105 OA
ATOM     30  O   UNL     1     -40.242  24.385   1.160  0.00  0.00    -0.105 OA
ENDBRANCH  26  27
ENDBRANCH   6  26
TORSDOF 7
ENDMDL
MODEL 2
REMARK VINA RESULT:      -6.2      2.032      6.291
REMARK  Name = 5487766
REMARK  7 active torsions:
REMARK  status: ('A' for Active; 'I' for Inactive)
REMARK    1  A    between atoms: C_4  and  C_12
REMARK    2  A    between atoms: C_6  and  O_26
REMARK    3  A    between atoms: C_8  and  O_22
REMARK    4  A    between atoms: C_11  and  O_24
REMARK    5  A    between atoms: C_15  and  O_18
REMARK    6  A    between atoms: C_17  and  O_20
REMARK    7  A    between atoms: O_26  and  S_27
REMARK                            x       y       z     vdW  Elec       q    Type
REMARK                         _______ _______ _______ _____ _____    ______ ____
ROOT
ATOM      1  O   UNL     1     -35.122  21.743   2.341  0.00  0.00    -0.450 OA
ATOM      2  O   UNL     1     -39.076  21.287   1.473  0.00  0.00    -0.283 OA
ATOM      3  C   UNL     1     -36.870  20.499   1.205  0.00  0.00    +0.110 A 
ATOM      4  C   UNL     1     -36.078  22.605   2.853  0.00  0.00    +0.185 A 
ATOM      5  C   UNL     1     -35.534  20.711   1.537  0.00  0.00    +0.155 A 
ATOM      6  C   UNL     1     -37.397  22.517   2.602  0.00  0.00    +0.248 A 
ATOM      7  C   UNL     1     -37.889  21.420   1.735  0.00  0.00    +0.241 A 
ATOM      8  C   UNL     1     -37.232  19.431   0.380  0.00  0.00    +0.143 C 
ATOM      9  C   UNL     1     -34.549  19.855   1.045  0.00  0.00    +0.074 C 
ATOM     10  C   UNL     1     -36.244  18.576  -0.111  0.00  0.00    +0.073 C 
ATOM     11  C   UNL     1     -34.906  18.787   0.221  0.00  0.00    +0.140 C 
ENDROOT
BRANCH   4  12
ATOM     12  C   UNL     1     -35.501  23.666   3.698  0.00  0.00    +0.041 C 
ATOM     13  C   UNL     1     -34.995  24.827   3.113  0.00  0.00    +0.043 C 
ATOM     14  C   UNL     1     -35.459  23.509   5.083  0.00  0.00    +0.006 C 
ATOM     15  C   UNL     1     -34.448  25.830   3.913  0.00  0.00    +0.172 C 
ATOM     16  C   UNL     1     -34.913  24.512   5.883  0.00  0.00    +0.040 C 
ATOM     17  C   UNL     1     -34.407  25.673   5.299  0.00  0.00    +0.168 C 
BRANCH  15  18
ATOM     18  O   UNL     1     -33.958  26.960   3.330  0.00  0.00    -0.468 OA
ATOM     19  C   UNL     1     -34.910  27.918   2.871  0.00  0.00    +0.253 C 
ENDBRANCH  15  18
BRANCH  17  20
ATOM     20  O   UNL     1     -33.877  26.646   6.090  0.00  0.00    -0.503 OA
ATOM     21  H   UNL     1     -34.404  27.053   6.748  0.00  0.00    +0.292 HD
ENDBRANCH  17  20
ENDBRANCH   4  12
BRANCH   8  22
ATOM     22  O   UNL     1     -38.523  19.181   0.026  0.00  0.00    -0.505 OA
ATOM     23  H   UNL     1     -38.918  18.360   0.243  0.00  0.00    +0.292 HD
ENDBRANCH   8  22
BRANCH  11  24
ATOM     24  O   UNL     1     -33.946  17.950  -0.261  0.00  0.00    -0.505 OA
ATOM     25  H   UNL     1     -34.180  17.096  -0.569  0.00  0.00    +0.292 HD
ENDBRANCH  11  24
BRANCH   6  26
ATOM     26  O   UNL     1     -38.320  23.411   3.100  0.00  0.00    -0.315 OA
BRANCH  26  27
ATOM     27  S   UNL     1     -38.730  24.730   2.246  0.00  0.00    +0.282 S 
ATOM     28  O   UNL     1     -40.328  24.544   1.972  0.00  0.00    -0.012 OA
ATOM     29  O   UNL     1     -38.049  24.699   0.964  0.00  0.00    -0.105 OA
ATOM     30  O   UNL     1     -38.568  25.870   3.129  0.00  0.00    -0.105 OA
ENDBRANCH  26  27
ENDBRANCH   6  26
TORSDOF 7
ENDMDL
MODEL 3
REMARK VINA RESULT:      -6.1      1.508      1.826
REMARK  Name = 5487766
REMARK  7 active torsions:
REMARK  status: ('A' for Active; 'I' for Inactive)
REMARK    1  A    between atoms: C_4  and  C_12
REMARK    2  A    between atoms: C_6  and  O_26
REMARK    3  A    between atoms: C_8  and  O_22
REMARK    4  A    between atoms: C_11  and  O_24
REMARK    5  A    between atoms: C_15  and  O_18
REMARK    6  A    between atoms: C_17  and  O_20
REMARK    7  A    between atoms: O_26  and  S_27
REMARK                            x       y       z     vdW  Elec       q    Type
REMARK                         _______ _______ _______ _____ _____    ______ ____
ROOT
ATOM      1  O   UNL     1     -33.629  25.524   2.518  0.00  0.00    -0.450 OA
ATOM      2  O   UNL     1     -36.545  28.307   1.926  0.00  0.00    -0.283 OA
ATOM      3  C   UNL     1     -34.315  27.640   1.546  0.00  0.00    +0.110 A 
ATOM      4  C   UNL     1     -34.905  25.355   3.031  0.00  0.00    +0.185 A 
ATOM      5  C   UNL     1     -33.362  26.653   1.787  0.00  0.00    +0.155 A 
ATOM      6  C   UNL     1     -35.911  26.235   2.880  0.00  0.00    +0.248 A 
ATOM      7  C   UNL     1     -35.668  27.472   2.099  0.00  0.00    +0.241 A 
ATOM      8  C   UNL     1     -33.986  28.770   0.793  0.00  0.00    +0.143 C 
ATOM      9  C   UNL     1     -32.071  26.791   1.276  0.00  0.00    +0.074 C 
ATOM     10  C   UNL     1     -32.695  28.905   0.283  0.00  0.00    +0.073 C 
ATOM     11  C   UNL     1     -31.739  27.917   0.523  0.00  0.00    +0.140 C 
ENDROOT
BRANCH   4  12
ATOM     12  C   UNL     1     -35.054  24.104   3.796  0.00  0.00    +0.041 C 
ATOM     13  C   UNL     1     -35.279  22.900   3.127  0.00  0.00    +0.043 C 
ATOM     14  C   UNL     1     -34.974  24.122   5.188  0.00  0.00    +0.006 C 
ATOM     15  C   UNL     1     -35.422  21.716   3.850  0.00  0.00    +0.172 C 
ATOM     16  C   UNL     1     -35.117  22.939   5.911  0.00  0.00    +0.040 C 
ATOM     17  C   UNL     1     -35.341  21.735   5.243  0.00  0.00    +0.168 C 
BRANCH  15  18
ATOM     18  O   UNL     1     -35.639  20.546   3.186  0.00  0.00    -0.468 OA
ATOM     19  C   UNL     1     -36.477  20.600   2.033  0.00  0.00    +0.253 C 
ENDBRANCH  15  18
BRANCH  17  20
ATOM     20  O   UNL     1     -35.477  20.585   5.960  0.00  0.00    -0.503 OA
ATOM     21  H   UNL     1     -34.792  19.947   5.956  0.00  0.00    +0.292 HD
ENDBRANCH  17  20
ENDBRANCH   4  12
BRANCH   8  22
ATOM     22  O   UNL     1     -34.881  29.763   0.530  0.00  0.00    -0.505 OA
ATOM     23  H   UNL     1     -35.165  30.333   1.217  0.00  0.00    +0.292 HD
ENDBRANCH   8  22
BRANCH  11  24
ATOM     24  O   UNL     1     -30.480  28.054   0.024  0.00  0.00    -0.505 OA
ATOM     25  H   UNL     1     -30.187  27.495  -0.669  0.00  0.00    +0.292 HD
ENDBRANCH  11  24
BRANCH   6  26
ATOM     26  O   UNL     1     -37.160  26.053   3.432  0.00  0.00    -0.315 OA
BRANCH  26  27
ATOM     27  S   UNL     1     -38.375  25.455   2.535  0.00  0.00    +0.282 S 
ATOM     28  O   UNL     1     -39.071  24.340   3.502  0.00  0.00    -0.012 OA
ATOM     29  O   UNL     1     -37.823  24.766   1.383  0.00  0.00    -0.105 OA
ATOM     30  O   UNL     1     -39.331  26.531   2.351  0.00  0.00    -0.105 OA
ENDBRANCH  26  27
ENDBRANCH   6  26
TORSDOF 7
ENDMDL
MODEL 4
REMARK VINA RESULT:      -6.0      2.228      4.432
REMARK  Name = 5487766
REMARK  7 active torsions:
REMARK  status: ('A' for Active; 'I' for Inactive)
REMARK    1  A    between atoms: C_4  and  C_12
REMARK    2  A    between atoms: C_6  and  O_26
REMARK    3  A    between atoms: C_8  and  O_22
REMARK    4  A    between atoms: C_11  and  O_24
REMARK    5  A    between atoms: C_15  and  O_18
REMARK    6  A    between atoms: C_17  and  O_20
REMARK    7  A    between atoms: O_26  and  S_27
REMARK                            x       y       z     vdW  Elec       q    Type
REMARK                         _______ _______ _______ _____ _____    ______ ____
ROOT
ATOM      1  O   UNL     1     -38.574  24.850   3.053  0.00  0.00    -0.450 OA
ATOM      2  O   UNL     1     -36.821  27.500   0.502  0.00  0.00    -0.283 OA
ATOM      3  C   UNL     1     -38.812  26.623   1.412  0.00  0.00    +0.110 A 
ATOM      4  C   UNL     1     -37.196  24.934   2.933  0.00  0.00    +0.185 A 
ATOM      5  C   UNL     1     -39.349  25.694   2.299  0.00  0.00    +0.155 A 
ATOM      6  C   UNL     1     -36.553  25.779   2.106  0.00  0.00    +0.248 A 
ATOM      7  C   UNL     1     -37.350  26.707   1.270  0.00  0.00    +0.241 A 
ATOM      8  C   UNL     1     -39.651  27.457   0.669  0.00  0.00    +0.143 C 
ATOM      9  C   UNL     1     -40.732  25.592   2.450  0.00  0.00    +0.074 C 
ATOM     10  C   UNL     1     -41.034  27.353   0.821  0.00  0.00    +0.073 C 
ATOM     11  C   UNL     1     -41.574  26.423   1.710  0.00  0.00    +0.140 C 
ENDROOT
BRANCH   4  12
ATOM     12  C   UNL     1     -36.485  23.974   3.795  0.00  0.00    +0.041 C 
ATOM     13  C   UNL     1     -36.198  22.692   3.325  0.00  0.00    +0.043 C 
ATOM     14  C   UNL     1     -36.100  24.345   5.083  0.00  0.00    +0.006 C 
ATOM     15  C   UNL     1     -35.526  21.783   4.142  0.00  0.00    +0.172 C 
ATOM     16  C   UNL     1     -35.427  23.437   5.900  0.00  0.00    +0.040 C 
ATOM     17  C   UNL     1     -35.140  22.155   5.430  0.00  0.00    +0.168 C 
BRANCH  15  18
ATOM     18  O   UNL     1     -35.250  20.534   3.671  0.00  0.00    -0.468 OA
ATOM     19  C   UNL     1     -35.236  20.364   2.255  0.00  0.00    +0.253 C 
ENDBRANCH  15  18
BRANCH  17  20
ATOM     20  O   UNL     1     -34.482  21.277   6.237  0.00  0.00    -0.503 OA
ATOM     21  H   UNL     1     -34.223  21.536   7.098  0.00  0.00    +0.292 HD
ENDBRANCH  17  20
ENDBRANCH   4  12
BRANCH   8  22
ATOM     22  O   UNL     1     -39.177  28.381  -0.212  0.00  0.00    -0.505 OA
ATOM     23  H   UNL     1     -38.664  29.102   0.096  0.00  0.00    +0.292 HD
ENDBRANCH   8  22
BRANCH  11  24
ATOM     24  O   UNL     1     -42.924  26.325   1.855  0.00  0.00    -0.505 OA
ATOM     25  H   UNL     1     -43.300  25.555   2.236  0.00  0.00    +0.292 HD
ENDBRANCH  11  24
BRANCH   6  26
ATOM     26  O   UNL     1     -35.180  25.814   1.985  0.00  0.00    -0.315 OA
BRANCH  26  27
ATOM     27  S   UNL     1     -34.305  26.863   2.863  0.00  0.00    +0.282 S 
ATOM     28  O   UNL     1     -33.231  25.920   3.652  0.00  0.00    -0.012 OA
ATOM     29  O   UNL     1     -35.163  27.488   3.854  0.00  0.00    -0.105 OA
ATOM     30  O   UNL     1     -33.561  27.681   1.924  0.00  0.00    -0.105 OA
ENDBRANCH  26  27
ENDBRANCH   6  26
TORSDOF 7
ENDMDL
MODEL 5
REMARK VINA RESULT:      -5.8      2.899      4.096
REMARK  Name = 5487766
REMARK  7 active torsions:
REMARK  status: ('A' for Active; 'I' for Inactive)
REMARK    1  A    between atoms: C_4  and  C_12
REMARK    2  A    between atoms: C_6  and  O_26
REMARK    3  A    between atoms: C_8  and  O_22
REMARK    4  A    between atoms: C_11  and  O_24
REMARK    5  A    between atoms: C_15  and  O_18
REMARK    6  A    between atoms: C_17  and  O_20
REMARK    7  A    between atoms: O_26  and  S_27
REMARK                            x       y       z     vdW  Elec       q    Type
REMARK                         _______ _______ _______ _____ _____    ______ ____
ROOT
ATOM      1  O   UNL     1     -34.357  23.653   2.098  0.00  0.00    -0.450 OA
ATOM      2  O   UNL     1     -37.741  24.391   4.243  0.00  0.00    -0.283 OA
ATOM      3  C   UNL     1     -35.538  25.037   3.705  0.00  0.00    +0.110 A 
ATOM      4  C   UNL     1     -35.476  22.844   1.984  0.00  0.00    +0.185 A 
ATOM      5  C   UNL     1     -34.411  24.729   2.947  0.00  0.00    +0.155 A 
ATOM      6  C   UNL     1     -36.621  23.026   2.666  0.00  0.00    +0.248 A 
ATOM      7  C   UNL     1     -36.725  24.174   3.597  0.00  0.00    +0.241 A 
ATOM      8  C   UNL     1     -35.536  26.147   4.554  0.00  0.00    +0.143 C 
ATOM      9  C   UNL     1     -33.272  25.529   3.033  0.00  0.00    +0.074 C 
ATOM     10  C   UNL     1     -34.395  26.945   4.638  0.00  0.00    +0.073 C 
ATOM     11  C   UNL     1     -33.266  26.638   3.879  0.00  0.00    +0.140 C 
ENDROOT
BRANCH   4  12
ATOM     12  C   UNL     1     -35.283  21.727   1.042  0.00  0.00    +0.041 C 
ATOM     13  C   UNL     1     -34.717  20.531   1.483  0.00  0.00    +0.043 C 
ATOM     14  C   UNL     1     -35.665  21.865  -0.293  0.00  0.00    +0.006 C 
ATOM     15  C   UNL     1     -34.533  19.475   0.591  0.00  0.00    +0.172 C 
ATOM     16  C   UNL     1     -35.483  20.809  -1.185  0.00  0.00    +0.040 C 
ATOM     17  C   UNL     1     -34.916  19.613  -0.743  0.00  0.00    +0.168 C 
BRANCH  15  18
ATOM     18  O   UNL     1     -33.980  18.310   1.035  0.00  0.00    -0.468 OA
ATOM     19  C   UNL     1     -32.583  18.324   1.322  0.00  0.00    +0.253 C 
ENDBRANCH  15  18
BRANCH  17  20
ATOM     20  O   UNL     1     -34.744  18.588  -1.623  0.00  0.00    -0.503 OA
ATOM     21  H   UNL     1     -35.296  17.833  -1.576  0.00  0.00    +0.292 HD
ENDBRANCH  17  20
ENDBRANCH   4  12
BRANCH   8  22
ATOM     22  O   UNL     1     -36.611  26.491   5.316  0.00  0.00    -0.505 OA
ATOM     23  H   UNL     1     -36.560  27.228   5.892  0.00  0.00    +0.292 HD
ENDBRANCH   8  22
BRANCH  11  24
ATOM     24  O   UNL     1     -32.155  27.421   3.965  0.00  0.00    -0.505 OA
ATOM     25  H   UNL     1     -32.163  28.288   3.610  0.00  0.00    +0.292 HD
ENDBRANCH  11  24
BRANCH   6  26
ATOM     26  O   UNL     1     -37.706  22.183   2.554  0.00  0.00    -0.315 OA
BRANCH  26  27
ATOM     27  S   UNL     1     -38.910  22.526   1.521  0.00  0.00    +0.282 S 
ATOM     28  O   UNL     1     -39.019  21.196   0.581  0.00  0.00    -0.012 OA
ATOM     29  O   UNL     1     -38.513  23.639   0.678  0.00  0.00    -0.105 OA
ATOM     30  O   UNL     1     -40.128  22.606   2.306  0.00  0.00    -0.105 OA
ENDBRANCH  26  27
ENDBRANCH   6  26
TORSDOF 7
ENDMDL
MODEL 6
REMARK VINA RESULT:      -5.8      3.439      7.819
REMARK  Name = 5487766
REMARK  7 active torsions:
REMARK  status: ('A' for Active; 'I' for Inactive)
REMARK    1  A    between atoms: C_4  and  C_12
REMARK    2  A    between atoms: C_6  and  O_26
REMARK    3  A    between atoms: C_8  and  O_22
REMARK    4  A    between atoms: C_11  and  O_24
REMARK    5  A    between atoms: C_15  and  O_18
REMARK    6  A    between atoms: C_17  and  O_20
REMARK    7  A    between atoms: O_26  and  S_27
REMARK                            x       y       z     vdW  Elec       q    Type
REMARK                         _______ _______ _______ _____ _____    ______ ____
ROOT
ATOM      1  O   UNL     1     -33.874  19.768   1.542  0.00  0.00    -0.450 OA
ATOM      2  O   UNL     1     -36.880  18.057  -0.611  0.00  0.00    -0.283 OA
ATOM      3  C   UNL     1     -34.650  17.938   0.149  0.00  0.00    +0.110 A 
ATOM      4  C   UNL     1     -35.125  20.358   1.451  0.00  0.00    +0.185 A 
ATOM      5  C   UNL     1     -33.664  18.576   0.898  0.00  0.00    +0.155 A 
ATOM      6  C   UNL     1     -36.157  19.852   0.753  0.00  0.00    +0.248 A 
ATOM      7  C   UNL     1     -35.976  18.567   0.038  0.00  0.00    +0.241 A 
ATOM      8  C   UNL     1     -34.379  16.724  -0.487  0.00  0.00    +0.143 C 
ATOM      9  C   UNL     1     -32.398  18.003   1.016  0.00  0.00    +0.074 C 
ATOM     10  C   UNL     1     -33.112  16.153  -0.367  0.00  0.00    +0.073 C 
ATOM     11  C   UNL     1     -32.123  16.790   0.383  0.00  0.00    +0.140 C 
ENDROOT
BRANCH   4  12
ATOM     12  C   UNL     1     -35.214  21.632   2.187  0.00  0.00    +0.041 C 
ATOM     13  C   UNL     1     -35.656  21.645   3.510  0.00  0.00    +0.043 C 
ATOM     14  C   UNL     1     -34.857  22.826   1.561  0.00  0.00    +0.006 C 
ATOM     15  C   UNL     1     -35.742  22.850   4.206  0.00  0.00    +0.172 C 
ATOM     16  C   UNL     1     -34.942  24.032   2.257  0.00  0.00    +0.040 C 
ATOM     17  C   UNL     1     -35.385  24.045   3.580  0.00  0.00    +0.168 C 
BRANCH  15  18
ATOM     18  O   UNL     1     -36.175  22.849   5.499  0.00  0.00    -0.468 OA
ATOM     19  C   UNL     1     -35.416  22.088   6.436  0.00  0.00    +0.253 C 
ENDBRANCH  15  18
BRANCH  17  20
ATOM     20  O   UNL     1     -35.462  25.228   4.250  0.00  0.00    -0.503 OA
ATOM     21  H   UNL     1     -36.218  25.772   4.152  0.00  0.00    +0.292 HD
ENDBRANCH  17  20
ENDBRANCH   4  12
BRANCH   8  22
ATOM     22  O   UNL     1     -35.308  16.061  -1.231  0.00  0.00    -0.505 OA
ATOM     23  H   UNL     1     -35.046  15.347  -1.778  0.00  0.00    +0.292 HD
ENDBRANCH   8  22
BRANCH  11  24
ATOM     24  O   UNL     1     -30.888  16.229   0.497  0.00  0.00    -0.505 OA
ATOM     25  H   UNL     1     -30.453  15.896  -0.264  0.00  0.00    +0.292 HD
ENDBRANCH  11  24
BRANCH   6  26
ATOM     26  O   UNL     1     -37.380  20.481   0.655  0.00  0.00    -0.315 OA
BRANCH  26  27
ATOM     27  S   UNL     1     -37.716  21.430  -0.618  0.00  0.00    +0.282 S 
ATOM     28  O   UNL     1     -38.093  22.871   0.049  0.00  0.00    -0.012 OA
ATOM     29  O   UNL     1     -38.900  20.924  -1.290  0.00  0.00    -0.105 OA
ATOM     30  O   UNL     1     -36.478  21.601  -1.355  0.00  0.00    -0.105 OA
ENDBRANCH  26  27
ENDBRANCH   6  26
TORSDOF 7
ENDMDL
MODEL 7
REMARK VINA RESULT:      -5.7      2.630      6.516
REMARK  Name = 5487766
REMARK  7 active torsions:
REMARK  status: ('A' for Active; 'I' for Inactive)
REMARK    1  A    between atoms: C_4  and  C_12
REMARK    2  A    between atoms: C_6  and  O_26
REMARK    3  A    between atoms: C_8  and  O_22
REMARK    4  A    between atoms: C_11  and  O_24
REMARK    5  A    between atoms: C_15  and  O_18
REMARK    6  A    between atoms: C_17  and  O_20
REMARK    7  A    between atoms: O_26  and  S_27
REMARK                            x       y       z     vdW  Elec       q    Type
REMARK                         _______ _______ _______ _____ _____    ______ ____
ROOT
ATOM      1  O   UNL     1     -34.536  21.819   1.572  0.00  0.00    -0.450 OA
ATOM      2  O   UNL     1     -37.445  19.134   0.609  0.00  0.00    -0.283 OA
ATOM      3  C   UNL     1     -35.194  19.803   0.391  0.00  0.00    +0.110 A 
ATOM      4  C   UNL     1     -35.826  21.944   2.063  0.00  0.00    +0.185 A 
ATOM      5  C   UNL     1     -34.246  20.756   0.756  0.00  0.00    +0.155 A 
ATOM      6  C   UNL     1     -36.834  21.099   1.780  0.00  0.00    +0.248 A 
ATOM      7  C   UNL     1     -36.568  19.937   0.899  0.00  0.00    +0.241 A 
ATOM      8  C   UNL     1     -34.841  18.740  -0.444  0.00  0.00    +0.143 C 
ATOM      9  C   UNL     1     -32.937  20.653   0.285  0.00  0.00    +0.074 C 
ATOM     10  C   UNL     1     -33.531  18.640  -0.914  0.00  0.00    +0.073 C 
ATOM     11  C   UNL     1     -32.581  19.594  -0.549  0.00  0.00    +0.140 C 
ENDROOT
BRANCH   4  12
ATOM     12  C   UNL     1     -36.000  23.127   2.924  0.00  0.00    +0.041 C 
ATOM     13  C   UNL     1     -36.418  24.337   2.372  0.00  0.00    +0.043 C 
ATOM     14  C   UNL     1     -35.746  23.037   4.293  0.00  0.00    +0.006 C 
ATOM     15  C   UNL     1     -36.582  25.457   3.186  0.00  0.00    +0.172 C 
ATOM     16  C   UNL     1     -35.911  24.157   5.108  0.00  0.00    +0.040 C 
ATOM     17  C   UNL     1     -36.329  25.368   4.555  0.00  0.00    +0.168 C 
BRANCH  15  18
ATOM     18  O   UNL     1     -36.993  26.634   2.634  0.00  0.00    -0.468 OA
ATOM     19  C   UNL     1     -37.962  26.558   1.591  0.00  0.00    +0.253 C 
ENDBRANCH  15  18
BRANCH  17  20
ATOM     20  O   UNL     1     -36.487  26.454   5.362  0.00  0.00    -0.503 OA
ATOM     21  H   UNL     1     -37.025  26.394   6.126  0.00  0.00    +0.292 HD
ENDBRANCH  17  20
ENDBRANCH   4  12
BRANCH   8  22
ATOM     22  O   UNL     1     -35.730  17.782  -0.830  0.00  0.00    -0.505 OA
ATOM     23  H   UNL     1     -36.159  17.254  -0.186  0.00  0.00    +0.292 HD
ENDBRANCH   8  22
BRANCH  11  24
ATOM     24  O   UNL     1     -31.304  19.491  -1.010  0.00  0.00    -0.505 OA
ATOM     25  H   UNL     1     -31.034  19.989  -1.758  0.00  0.00    +0.292 HD
ENDBRANCH  11  24
BRANCH   6  26
ATOM     26  O   UNL     1     -38.115  21.270   2.259  0.00  0.00    -0.315 OA
BRANCH  26  27
ATOM     27  S   UNL     1     -39.251  21.969   1.334  0.00  0.00    +0.282 S 
ATOM     28  O   UNL     1     -39.793  23.212   2.242  0.00  0.00    -0.012 OA
ATOM     29  O   UNL     1     -40.351  21.040   1.145  0.00  0.00    -0.105 OA
ATOM     30  O   UNL     1     -38.570  22.533   0.184  0.00  0.00    -0.105 OA
ENDBRANCH  26  27
ENDBRANCH   6  26
TORSDOF 7
ENDMDL
MODEL 8
REMARK VINA RESULT:      -5.7      4.013      7.529
REMARK  Name = 5487766
REMARK  7 active torsions:
REMARK  status: ('A' for Active; 'I' for Inactive)
REMARK    1  A    between atoms: C_4  and  C_12
REMARK    2  A    between atoms: C_6  and  O_26
REMARK    3  A    between atoms: C_8  and  O_22
REMARK    4  A    between atoms: C_11  and  O_24
REMARK    5  A    between atoms: C_15  and  O_18
REMARK    6  A    between atoms: C_17  and  O_20
REMARK    7  A    between atoms: O_26  and  S_27
REMARK                            x       y       z     vdW  Elec       q    Type
REMARK                         _______ _______ _______ _____ _____    ______ ____
ROOT
ATOM      1  O   UNL     1     -33.189  26.652   5.211  0.00  0.00    -0.450 OA
ATOM      2  O   UNL     1     -35.229  27.953   1.934  0.00  0.00    -0.283 OA
ATOM      3  C   UNL     1     -35.046  26.371   3.673  0.00  0.00    +0.110 A 
ATOM      4  C   UNL     1     -32.791  27.780   4.513  0.00  0.00    +0.185 A 
ATOM      5  C   UNL     1     -34.304  25.977   4.784  0.00  0.00    +0.155 A 
ATOM      6  C   UNL     1     -33.413  28.260   3.421  0.00  0.00    +0.248 A 
ATOM      7  C   UNL     1     -34.620  27.562   2.920  0.00  0.00    +0.241 A 
ATOM      8  C   UNL     1     -36.174  25.645   3.283  0.00  0.00    +0.143 C 
ATOM      9  C   UNL     1     -34.685  24.850   5.513  0.00  0.00    +0.074 C 
ATOM     10  C   UNL     1     -36.552  24.518   4.014  0.00  0.00    +0.073 C 
ATOM     11  C   UNL     1     -35.810  24.122   5.127  0.00  0.00    +0.140 C 
ENDROOT
BRANCH   4  12
ATOM     12  C   UNL     1     -31.582  28.407   5.077  0.00  0.00    +0.041 C 
ATOM     13  C   UNL     1     -30.344  28.216   4.461  0.00  0.00    +0.043 C 
ATOM     14  C   UNL     1     -31.673  29.190   6.227  0.00  0.00    +0.006 C 
ATOM     15  C   UNL     1     -29.200  28.808   4.995  0.00  0.00    +0.172 C 
ATOM     16  C   UNL     1     -30.529  29.782   6.761  0.00  0.00    +0.040 C 
ATOM     17  C   UNL     1     -29.292  29.592   6.146  0.00  0.00    +0.168 C 
BRANCH  15  18
ATOM     18  O   UNL     1     -27.997  28.615   4.383  0.00  0.00    -0.468 OA
ATOM     19  C   UNL     1     -27.407  27.322   4.504  0.00  0.00    +0.253 C 
ENDBRANCH  15  18
BRANCH  17  20
ATOM     20  O   UNL     1     -28.182  30.176   6.675  0.00  0.00    -0.503 OA
ATOM     21  H   UNL     1     -28.252  30.698   7.450  0.00  0.00    +0.292 HD
ENDBRANCH  17  20
ENDBRANCH   4  12
BRANCH   8  22
ATOM     22  O   UNL     1     -36.933  25.989   2.205  0.00  0.00    -0.505 OA
ATOM     23  H   UNL     1     -37.583  25.396   1.882  0.00  0.00    +0.292 HD
ENDBRANCH   8  22
BRANCH  11  24
ATOM     24  O   UNL     1     -36.184  23.021   5.836  0.00  0.00    -0.505 OA
ATOM     25  H   UNL     1     -37.061  22.946   6.156  0.00  0.00    +0.292 HD
ENDBRANCH  11  24
BRANCH   6  26
ATOM     26  O   UNL     1     -32.971  29.368   2.729  0.00  0.00    -0.315 OA
BRANCH  26  27
ATOM     27  S   UNL     1     -33.454  30.855   3.165  0.00  0.00    +0.282 S 
ATOM     28  O   UNL     1     -33.900  31.555   1.759  0.00  0.00    -0.012 OA
ATOM     29  O   UNL     1     -32.318  31.591   3.690  0.00  0.00    -0.105 OA
ATOM     30  O   UNL     1     -34.650  30.691   3.969  0.00  0.00    -0.105 OA
ENDBRANCH  26  27
ENDBRANCH   6  26
TORSDOF 7
ENDMDL
MODEL 9
REMARK VINA RESULT:      -5.7      3.419      6.527
REMARK  Name = 5487766
REMARK  7 active torsions:
REMARK  status: ('A' for Active; 'I' for Inactive)
REMARK    1  A    between atoms: C_4  and  C_12
REMARK    2  A    between atoms: C_6  and  O_26
REMARK    3  A    between atoms: C_8  and  O_22
REMARK    4  A    between atoms: C_11  and  O_24
REMARK    5  A    between atoms: C_15  and  O_18
REMARK    6  A    between atoms: C_17  and  O_20
REMARK    7  A    between atoms: O_26  and  S_27
REMARK                            x       y       z     vdW  Elec       q    Type
REMARK                         _______ _______ _______ _____ _____    ______ ____
ROOT
ATOM      1  O   UNL     1     -37.321  23.208   2.023  0.00  0.00    -0.450 OA
ATOM      2  O   UNL     1     -34.961  20.571   4.041  0.00  0.00    -0.283 OA
ATOM      3  C   UNL     1     -35.924  22.722   3.948  0.00  0.00    +0.110 A 
ATOM      4  C   UNL     1     -37.097  21.927   1.546  0.00  0.00    +0.185 A 
ATOM      5  C   UNL     1     -36.738  23.576   3.209  0.00  0.00    +0.155 A 
ATOM      6  C   UNL     1     -36.325  21.010   2.157  0.00  0.00    +0.248 A 
ATOM      7  C   UNL     1     -35.672  21.364   3.439  0.00  0.00    +0.241 A 
ATOM      8  C   UNL     1     -35.356  23.152   5.149  0.00  0.00    +0.143 C 
ATOM      9  C   UNL     1     -36.990  24.870   3.667  0.00  0.00    +0.074 C 
ATOM     10  C   UNL     1     -35.609  24.446   5.606  0.00  0.00    +0.073 C 
ATOM     11  C   UNL     1     -36.425  25.303   4.867  0.00  0.00    +0.140 C 
ENDROOT
BRANCH   4  12
ATOM     12  C   UNL     1     -37.779  21.663   0.266  0.00  0.00    +0.041 C 
ATOM     13  C   UNL     1     -38.978  20.950   0.248  0.00  0.00    +0.043 C 
ATOM     14  C   UNL     1     -37.226  22.125  -0.928  0.00  0.00    +0.006 C 
ATOM     15  C   UNL     1     -39.623  20.699  -0.962  0.00  0.00    +0.172 C 
ATOM     16  C   UNL     1     -37.871  21.875  -2.139  0.00  0.00    +0.040 C 
ATOM     17  C   UNL     1     -39.070  21.162  -2.157  0.00  0.00    +0.168 C 
BRANCH  15  18
ATOM     18  O   UNL     1     -40.795  20.003  -0.967  0.00  0.00    -0.468 OA
ATOM     19  C   UNL     1     -41.995  20.751  -0.784  0.00  0.00    +0.253 C 
ENDBRANCH  15  18
BRANCH  17  20
ATOM     20  O   UNL     1     -39.691  20.925  -3.345  0.00  0.00    -0.503 OA
ATOM     21  H   UNL     1     -40.294  21.552  -3.691  0.00  0.00    +0.292 HD
ENDBRANCH  17  20
ENDBRANCH   4  12
BRANCH   8  22
ATOM     22  O   UNL     1     -34.552  22.356   5.909  0.00  0.00    -0.505 OA
ATOM     23  H   UNL     1     -33.854  21.877   5.509  0.00  0.00    +0.292 HD
ENDBRANCH   8  22
BRANCH  11  24
ATOM     24  O   UNL     1     -36.669  26.565   5.316  0.00  0.00    -0.505 OA
ATOM     25  H   UNL     1     -37.546  26.831   5.514  0.00  0.00    +0.292 HD
ENDBRANCH  11  24
BRANCH   6  26
ATOM     26  O   UNL     1     -36.095  19.754   1.638  0.00  0.00    -0.315 OA
BRANCH  26  27
ATOM     27  S   UNL     1     -34.829  19.488   0.657  0.00  0.00    +0.282 S 
ATOM     28  O   UNL     1     -34.201  20.974   0.408  0.00  0.00    -0.012 OA
ATOM     29  O   UNL     1     -35.311  18.987  -0.618  0.00  0.00    -0.105 OA
ATOM     30  O   UNL     1     -33.858  18.726   1.419  0.00  0.00    -0.105 OA
ENDBRANCH  26  27
ENDBRANCH   6  26
TORSDOF 7
ENDMDL
