MODEL 1
REMARK VINA RESULT:      -6.6      0.000      0.000
REMARK  Name = 54728535
REMARK  7 active torsions:
REMARK  status: ('A' for Active; 'I' for Inactive)
REMARK    1  A    between atoms: C_1  and  C_13
REMARK    2  A    between atoms: C_1  and  C_19
REMARK    3  A    between atoms: C_7  and  C_16
REMARK    4  A    between atoms: C_16  and  O_17
REMARK    5  A    between atoms: C_20  and  C_22
REMARK    6  A    between atoms: C_23  and  C_27
REMARK    7  A    between atoms: C_27  and  O_33
REMARK                            x       y       z     vdW  Elec       q    Type
REMARK                         _______ _______ _______ _____ _____    ______ ____
ROOT
ATOM      1  C   UNL     1     -33.785  26.196   2.023  0.00  0.00    +0.049 C 
ATOM      2  C   UNL     1     -32.865  25.284   1.207  0.00  0.00    +0.007 C 
ENDROOT
BRANCH   1  13
ATOM      3  O   UNL     1     -37.787  22.521   3.430  0.00  0.00    -0.341 OA
ATOM      4  O   UNL     1     -36.891  24.897   4.518  0.00  0.00    -0.327 OA
ATOM      5  O   UNL     1     -34.743  24.630   3.528  0.00  0.00    -0.334 OA
ATOM      6  O   UNL     1     -39.157  25.096   1.858  0.00  0.00    -0.291 OA
ATOM      7  C   UNL     1     -36.452  22.956   3.146  0.00  0.00    +0.198 C 
ATOM      8  C   UNL     1     -37.612  23.377   2.290  0.00  0.00    +0.206 C 
ATOM      9  C   UNL     1     -35.880  23.966   4.102  0.00  0.00    +0.215 C 
ATOM     10  C   UNL     1     -37.386  25.655   3.416  0.00  0.00    +0.179 C 
ATOM     11  C   UNL     1     -36.223  26.417   2.757  0.00  0.00    +0.062 C 
ATOM     12  C   UNL     1     -38.159  24.739   2.473  0.00  0.00    +0.207 C 
ATOM     13  C   UNL     1     -35.066  25.460   2.404  0.00  0.00    +0.124 C 
ATOM     14  C   UNL     1     -35.387  23.284   5.378  0.00  0.00    +0.064 C 
ATOM     15  C   UNL     1     -36.688  27.256   1.567  0.00  0.00    +0.005 C 
BRANCH   7  16
ATOM     16  C   UNL     1     -35.570  21.864   2.653  0.00  0.00    +0.172 C 
BRANCH  16  17
ATOM     17  O   UNL     1     -35.946  20.637   3.262  0.00  0.00    -0.379 OA
ATOM     18  H   UNL     1     -35.788  20.689   4.218  0.00  0.00    +0.211 HD
ENDBRANCH  16  17
ENDBRANCH   7  16
ENDBRANCH   1  13
BRANCH   1  19
ATOM     19  C   UNL     1     -33.066  26.667   3.268  0.00  0.00    -0.028 C 
ATOM     20  C   UNL     1     -32.970  27.918   3.767  0.00  0.00    -0.026 C 
ATOM     21  C   UNL     1     -33.610  29.130   3.141  0.00  0.00    +0.031 C 
BRANCH  20  22
ATOM     22  C   UNL     1     -32.198  28.121   4.999  0.00  0.00    -0.001 C 
ATOM     23  C   UNL     1     -31.032  28.781   5.116  0.00  0.00    +0.037 C 
BRANCH  23  27
ATOM     24  O   UNL     1     -28.576  29.195   8.767  0.00  0.00    -0.289 OA
ATOM     25  O   UNL     1     -28.673  27.348   4.433  0.00  0.00    -0.270 OA
ATOM     26  N   UNL     1     -27.111  27.367   6.198  0.00  0.00    -0.294 N 
ATOM     27  C   UNL     1     -30.291  28.966   6.351  0.00  0.00    +0.141 C 
ATOM     28  C   UNL     1     -29.065  28.455   6.535  0.00  0.00    +0.123 C 
ATOM     29  C   UNL     1     -28.247  28.595   7.758  0.00  0.00    +0.200 C 
ATOM     30  C   UNL     1     -28.309  27.662   5.551  0.00  0.00    +0.252 C 
ATOM     31  C   UNL     1     -26.940  27.878   7.552  0.00  0.00    +0.160 C 
ATOM     32  H   UNL     1     -26.409  26.835   5.758  0.00  0.00    +0.150 HD
BRANCH  27  33
ATOM     33  O   UNL     1     -30.926  29.700   7.333  0.00  0.00    -0.505 OA
ATOM     34  H   UNL     1     -31.601  30.308   7.101  0.00  0.00    +0.292 HD
ENDBRANCH  27  33
ENDBRANCH  23  27
ENDBRANCH  20  22
ENDBRANCH   1  19
TORSDOF 7
ENDMDL
MODEL 2
REMARK VINA RESULT:      -6.6      7.749     11.357
REMARK  Name = 54728535
REMARK  7 active torsions:
REMARK  status: ('A' for Active; 'I' for Inactive)
REMARK    1  A    between atoms: C_1  and  C_13
REMARK    2  A    between atoms: C_1  and  C_19
REMARK    3  A    between atoms: C_7  and  C_16
REMARK    4  A    between atoms: C_16  and  O_17
REMARK    5  A    between atoms: C_20  and  C_22
REMARK    6  A    between atoms: C_23  and  C_27
REMARK    7  A    between atoms: C_27  and  O_33
REMARK                            x       y       z     vdW  Elec       q    Type
REMARK                         _______ _______ _______ _____ _____    ______ ____
ROOT
ATOM      1  C   UNL     1     -44.988  27.299   4.118  0.00  0.00    +0.049 C 
ATOM      2  C   UNL     1     -45.711  26.356   5.084  0.00  0.00    +0.007 C 
ENDROOT
BRANCH   1  13
ATOM      3  O   UNL     1     -46.232  32.180   6.594  0.00  0.00    -0.341 OA
ATOM      4  O   UNL     1     -44.002  31.199   5.290  0.00  0.00    -0.327 OA
ATOM      5  O   UNL     1     -44.609  28.951   5.780  0.00  0.00    -0.334 OA
ATOM      6  O   UNL     1     -46.588  32.484   3.314  0.00  0.00    -0.291 OA
ATOM      7  C   UNL     1     -46.036  30.762   6.520  0.00  0.00    +0.198 C 
ATOM      8  C   UNL     1     -46.772  31.508   5.444  0.00  0.00    +0.206 C 
ATOM      9  C   UNL     1     -44.631  30.314   6.230  0.00  0.00    +0.215 C 
ATOM     10  C   UNL     1     -44.672  31.183   4.032  0.00  0.00    +0.179 C 
ATOM     11  C   UNL     1     -44.674  29.751   3.471  0.00  0.00    +0.062 C 
ATOM     12  C   UNL     1     -46.058  31.805   4.185  0.00  0.00    +0.207 C 
ATOM     13  C   UNL     1     -45.235  28.753   4.505  0.00  0.00    +0.124 C 
ATOM     14  C   UNL     1     -43.774  30.368   7.495  0.00  0.00    +0.064 C 
ATOM     15  C   UNL     1     -45.376  29.666   2.116  0.00  0.00    +0.005 C 
BRANCH   7  16
ATOM     16  C   UNL     1     -46.831  30.006   7.526  0.00  0.00    +0.172 C 
BRANCH  16  17
ATOM     17  O   UNL     1     -46.964  30.783   8.709  0.00  0.00    -0.379 OA
ATOM     18  H   UNL     1     -47.712  30.452   9.230  0.00  0.00    +0.211 HD
ENDBRANCH  16  17
ENDBRANCH   7  16
ENDBRANCH   1  13
BRANCH   1  19
ATOM     19  C   UNL     1     -43.504  27.003   4.127  0.00  0.00    -0.028 C 
ATOM     20  C   UNL     1     -42.707  26.638   3.100  0.00  0.00    -0.026 C 
ATOM     21  C   UNL     1     -43.183  26.466   1.680  0.00  0.00    +0.031 C 
BRANCH  20  22
ATOM     22  C   UNL     1     -41.285  26.395   3.371  0.00  0.00    -0.001 C 
ATOM     23  C   UNL     1     -40.487  25.516   2.740  0.00  0.00    +0.037 C 
BRANCH  23  27
ATOM     24  O   UNL     1     -36.242  24.594   3.555  0.00  0.00    -0.289 OA
ATOM     25  O   UNL     1     -40.319  22.757   2.071  0.00  0.00    -0.270 OA
ATOM     26  N   UNL     1     -38.140  21.922   2.397  0.00  0.00    -0.294 N 
ATOM     27  C   UNL     1     -39.081  25.298   3.032  0.00  0.00    +0.141 C 
ATOM     28  C   UNL     1     -38.491  24.105   2.871  0.00  0.00    +0.123 C 
ATOM     29  C   UNL     1     -37.071  23.801   3.146  0.00  0.00    +0.200 C 
ATOM     30  C   UNL     1     -39.152  22.879   2.392  0.00  0.00    +0.252 C 
ATOM     31  C   UNL     1     -36.817  22.350   2.835  0.00  0.00    +0.160 C 
ATOM     32  H   UNL     1     -38.312  20.993   2.117  0.00  0.00    +0.150 HD
BRANCH  27  33
ATOM     33  O   UNL     1     -38.381  26.398   3.488  0.00  0.00    -0.505 OA
ATOM     34  H   UNL     1     -38.662  26.843   4.264  0.00  0.00    +0.292 HD
ENDBRANCH  27  33
ENDBRANCH  23  27
ENDBRANCH  20  22
ENDBRANCH   1  19
TORSDOF 7
ENDMDL
MODEL 3
REMARK VINA RESULT:      -6.4      4.450      8.484
REMARK  Name = 54728535
REMARK  7 active torsions:
REMARK  status: ('A' for Active; 'I' for Inactive)
REMARK    1  A    between atoms: C_1  and  C_13
REMARK    2  A    between atoms: C_1  and  C_19
REMARK    3  A    between atoms: C_7  and  C_16
REMARK    4  A    between atoms: C_16  and  O_17
REMARK    5  A    between atoms: C_20  and  C_22
REMARK    6  A    between atoms: C_23  and  C_27
REMARK    7  A    between atoms: C_27  and  O_33
REMARK                            x       y       z     vdW  Elec       q    Type
REMARK                         _______ _______ _______ _____ _____    ______ ____
ROOT
ATOM      1  C   UNL     1     -34.172  24.569   0.170  0.00  0.00    +0.049 C 
ATOM      2  C   UNL     1     -35.419  24.695  -0.709  0.00  0.00    +0.007 C 
ENDROOT
BRANCH   1  13
ATOM      3  O   UNL     1     -36.490  25.556   5.186  0.00  0.00    -0.341 OA
ATOM      4  O   UNL     1     -34.326  24.067   4.327  0.00  0.00    -0.327 OA
ATOM      5  O   UNL     1     -35.255  23.830   2.149  0.00  0.00    -0.334 OA
ATOM      6  O   UNL     1     -33.837  27.501   4.795  0.00  0.00    -0.291 OA
ATOM      7  C   UNL     1     -36.454  25.100   3.827  0.00  0.00    +0.198 C 
ATOM      8  C   UNL     1     -35.841  26.410   4.230  0.00  0.00    +0.206 C 
ATOM      9  C   UNL     1     -35.530  23.946   3.553  0.00  0.00    +0.215 C 
ATOM     10  C   UNL     1     -33.592  25.235   3.967  0.00  0.00    +0.179 C 
ATOM     11  C   UNL     1     -33.240  25.177   2.471  0.00  0.00    +0.062 C 
ATOM     12  C   UNL     1     -34.372  26.478   4.386  0.00  0.00    +0.207 C 
ATOM     13  C   UNL     1     -34.500  24.927   1.616  0.00  0.00    +0.124 C 
ATOM     14  C   UNL     1     -36.172  22.625   3.980  0.00  0.00    +0.064 C 
ATOM     15  C   UNL     1     -32.445  26.402   2.019  0.00  0.00    +0.005 C 
BRANCH   7  16
ATOM     16  C   UNL     1     -37.787  25.117   3.166  0.00  0.00    +0.172 C 
BRANCH  16  17
ATOM     17  O   UNL     1     -38.803  24.917   4.139  0.00  0.00    -0.379 OA
ATOM     18  H   UNL     1     -39.649  24.752   3.693  0.00  0.00    +0.211 HD
ENDBRANCH  16  17
ENDBRANCH   7  16
ENDBRANCH   1  13
BRANCH   1  19
ATOM     19  C   UNL     1     -33.630  23.159   0.092  0.00  0.00    -0.028 C 
ATOM     20  C   UNL     1     -32.482  22.723  -0.468  0.00  0.00    -0.026 C 
ATOM     21  C   UNL     1     -31.476  23.621  -1.142  0.00  0.00    +0.031 C 
BRANCH  20  22
ATOM     22  C   UNL     1     -32.183  21.287  -0.422  0.00  0.00    -0.001 C 
ATOM     23  C   UNL     1     -32.739  20.377   0.398  0.00  0.00    +0.037 C 
BRANCH  23  27
ATOM     24  O   UNL     1     -32.035  16.014   0.414  0.00  0.00    -0.289 OA
ATOM     25  O   UNL     1     -35.330  19.337  -0.140  0.00  0.00    -0.270 OA
ATOM     26  N   UNL     1     -35.317  16.981  -0.202  0.00  0.00    -0.294 N 
ATOM     27  C   UNL     1     -32.421  18.960   0.420  0.00  0.00    +0.141 C 
ATOM     28  C   UNL     1     -33.349  18.015   0.212  0.00  0.00    +0.123 C 
ATOM     29  C   UNL     1     -33.109  16.556   0.219  0.00  0.00    +0.200 C 
ATOM     30  C   UNL     1     -34.775  18.257  -0.061  0.00  0.00    +0.252 C 
ATOM     31  C   UNL     1     -34.410  15.850  -0.056  0.00  0.00    +0.160 C 
ATOM     32  H   UNL     1     -36.274  16.849  -0.392  0.00  0.00    +0.150 HD
BRANCH  27  33
ATOM     33  O   UNL     1     -31.101  18.640   0.670  0.00  0.00    -0.505 OA
ATOM     34  H   UNL     1     -30.511  18.495  -0.043  0.00  0.00    +0.292 HD
ENDBRANCH  27  33
ENDBRANCH  23  27
ENDBRANCH  20  22
ENDBRANCH   1  19
TORSDOF 7
ENDMDL
MODEL 4
REMARK VINA RESULT:      -6.3      5.021      9.261
REMARK  Name = 54728535
REMARK  7 active torsions:
REMARK  status: ('A' for Active; 'I' for Inactive)
REMARK    1  A    between atoms: C_1  and  C_13
REMARK    2  A    between atoms: C_1  and  C_19
REMARK    3  A    between atoms: C_7  and  C_16
REMARK    4  A    between atoms: C_16  and  O_17
REMARK    5  A    between atoms: C_20  and  C_22
REMARK    6  A    between atoms: C_23  and  C_27
REMARK    7  A    between atoms: C_27  and  O_33
REMARK                            x       y       z     vdW  Elec       q    Type
REMARK                         _______ _______ _______ _____ _____    ______ ____
ROOT
ATOM      1  C   UNL     1     -35.007  22.680   0.614  0.00  0.00    +0.049 C 
ATOM      2  C   UNL     1     -36.375  22.409  -0.016  0.00  0.00    +0.007 C 
ENDROOT
BRANCH   1  13
ATOM      3  O   UNL     1     -35.138  25.207   5.624  0.00  0.00    -0.341 OA
ATOM      4  O   UNL     1     -37.012  23.871   4.094  0.00  0.00    -0.327 OA
ATOM      5  O   UNL     1     -35.828  24.351   2.086  0.00  0.00    -0.334 OA
ATOM      6  O   UNL     1     -34.849  21.933   6.046  0.00  0.00    -0.291 OA
ATOM      7  C   UNL     1     -34.945  25.120   4.206  0.00  0.00    +0.198 C 
ATOM      8  C   UNL     1     -34.428  24.058   5.133  0.00  0.00    +0.206 C 
ATOM      9  C   UNL     1     -36.176  24.812   3.400  0.00  0.00    +0.215 C 
ATOM     10  C   UNL     1     -36.351  22.621   4.272  0.00  0.00    +0.179 C 
ATOM     11  C   UNL     1     -35.961  22.048   2.899  0.00  0.00    +0.062 C 
ATOM     12  C   UNL     1     -35.185  22.793   5.241  0.00  0.00    +0.207 C 
ATOM     13  C   UNL     1     -35.162  23.081   2.077  0.00  0.00    +0.124 C 
ATOM     14  C   UNL     1     -37.027  26.068   3.210  0.00  0.00    +0.064 C 
ATOM     15  C   UNL     1     -35.250  20.701   3.018  0.00  0.00    +0.005 C 
BRANCH   7  16
ATOM     16  C   UNL     1     -33.986  26.129   3.681  0.00  0.00    +0.172 C 
BRANCH  16  17
ATOM     17  O   UNL     1     -34.083  27.322   4.446  0.00  0.00    -0.379 OA
ATOM     18  H   UNL     1     -34.070  28.089   3.851  0.00  0.00    +0.211 HD
ENDBRANCH  16  17
ENDBRANCH   7  16
ENDBRANCH   1  13
BRANCH   1  19
ATOM     19  C   UNL     1     -34.138  21.447   0.501  0.00  0.00    -0.028 C 
ATOM     20  C   UNL     1     -32.893  21.332  -0.010  0.00  0.00    -0.026 C 
ATOM     21  C   UNL     1     -32.103  22.483  -0.578  0.00  0.00    +0.031 C 
BRANCH  20  22
ATOM     22  C   UNL     1     -32.259  20.009  -0.015  0.00  0.00    -0.001 C 
ATOM     23  C   UNL     1     -32.672  18.918   0.656  0.00  0.00    +0.037 C 
BRANCH  23  27
ATOM     24  O   UNL     1     -30.881  14.886   0.399  0.00  0.00    -0.289 OA
ATOM     25  O   UNL     1     -34.364  17.614  -1.221  0.00  0.00    -0.270 OA
ATOM     26  N   UNL     1     -33.680  15.392  -1.600  0.00  0.00    -0.294 N 
ATOM     27  C   UNL     1     -32.022  17.620   0.630  0.00  0.00    +0.141 C 
ATOM     28  C   UNL     1     -32.464  16.611  -0.135  0.00  0.00    +0.123 C 
ATOM     29  C   UNL     1     -31.862  15.264  -0.218  0.00  0.00    +0.200 C 
ATOM     30  C   UNL     1     -33.629  16.663  -1.034  0.00  0.00    +0.252 C 
ATOM     31  C   UNL     1     -32.659  14.436  -1.190  0.00  0.00    +0.160 C 
ATOM     32  H   UNL     1     -34.378  15.148  -2.250  0.00  0.00    +0.150 HD
BRANCH  27  33
ATOM     33  O   UNL     1     -30.916  17.481   1.446  0.00  0.00    -0.505 OA
ATOM     34  H   UNL     1     -30.713  18.144   2.077  0.00  0.00    +0.292 HD
ENDBRANCH  27  33
ENDBRANCH  23  27
ENDBRANCH  20  22
ENDBRANCH   1  19
TORSDOF 7
ENDMDL
MODEL 5
REMARK VINA RESULT:      -6.3      4.467      8.218
REMARK  Name = 54728535
REMARK  7 active torsions:
REMARK  status: ('A' for Active; 'I' for Inactive)
REMARK    1  A    between atoms: C_1  and  C_13
REMARK    2  A    between atoms: C_1  and  C_19
REMARK    3  A    between atoms: C_7  and  C_16
REMARK    4  A    between atoms: C_16  and  O_17
REMARK    5  A    between atoms: C_20  and  C_22
REMARK    6  A    between atoms: C_23  and  C_27
REMARK    7  A    between atoms: C_27  and  O_33
REMARK                            x       y       z     vdW  Elec       q    Type
REMARK                         _______ _______ _______ _____ _____    ______ ____
ROOT
ATOM      1  C   UNL     1     -35.720  21.621   3.623  0.00  0.00    +0.049 C 
ATOM      2  C   UNL     1     -35.098  21.268   4.976  0.00  0.00    +0.007 C 
ENDROOT
BRANCH   1  13
ATOM      3  O   UNL     1     -35.521  27.220   3.977  0.00  0.00    -0.341 OA
ATOM      4  O   UNL     1     -35.375  25.419   1.887  0.00  0.00    -0.327 OA
ATOM      5  O   UNL     1     -34.597  23.692   3.326  0.00  0.00    -0.334 OA
ATOM      6  O   UNL     1     -38.560  26.280   3.052  0.00  0.00    -0.291 OA
ATOM      7  C   UNL     1     -35.101  25.875   4.244  0.00  0.00    +0.198 C 
ATOM      8  C   UNL     1     -36.552  26.264   4.273  0.00  0.00    +0.206 C 
ATOM      9  C   UNL     1     -34.603  25.101   3.055  0.00  0.00    +0.215 C 
ATOM     10  C   UNL     1     -36.739  25.037   2.044  0.00  0.00    +0.179 C 
ATOM     11  C   UNL     1     -36.819  23.526   2.319  0.00  0.00    +0.062 C 
ATOM     12  C   UNL     1     -37.394  25.910   3.110  0.00  0.00    +0.207 C 
ATOM     13  C   UNL     1     -35.906  23.131   3.498  0.00  0.00    +0.124 C 
ATOM     14  C   UNL     1     -33.161  25.487   2.724  0.00  0.00    +0.064 C 
ATOM     15  C   UNL     1     -38.260  23.048   2.494  0.00  0.00    +0.005 C 
BRANCH   7  16
ATOM     16  C   UNL     1     -34.383  25.730   5.539  0.00  0.00    +0.172 C 
BRANCH  16  17
ATOM     17  O   UNL     1     -33.616  26.900   5.791  0.00  0.00    -0.379 OA
ATOM     18  H   UNL     1     -33.966  27.636   5.265  0.00  0.00    +0.211 HD
ENDBRANCH  16  17
ENDBRANCH   7  16
ENDBRANCH   1  13
BRANCH   1  19
ATOM     19  C   UNL     1     -34.840  21.111   2.504  0.00  0.00    -0.028 C 
ATOM     20  C   UNL     1     -35.172  20.328   1.455  0.00  0.00    -0.026 C 
ATOM     21  C   UNL     1     -36.562  19.807   1.196  0.00  0.00    +0.031 C 
BRANCH  20  22
ATOM     22  C   UNL     1     -34.121  19.957   0.500  0.00  0.00    -0.001 C 
ATOM     23  C   UNL     1     -32.801  20.173   0.635  0.00  0.00    +0.037 C 
BRANCH  23  27
ATOM     24  O   UNL     1     -29.655  18.797  -2.148  0.00  0.00    -0.289 OA
ATOM     25  O   UNL     1     -31.913  17.763   1.856  0.00  0.00    -0.270 OA
ATOM     26  N   UNL     1     -30.196  16.744   0.604  0.00  0.00    -0.294 N 
ATOM     27  C   UNL     1     -31.784  19.793  -0.330  0.00  0.00    +0.141 C 
ATOM     28  C   UNL     1     -31.048  18.680  -0.195  0.00  0.00    +0.123 C 
ATOM     29  C   UNL     1     -29.996  18.224  -1.128  0.00  0.00    +0.200 C 
ATOM     30  C   UNL     1     -31.153  17.709   0.907  0.00  0.00    +0.252 C 
ATOM     31  C   UNL     1     -29.417  16.934  -0.613  0.00  0.00    +0.160 C 
ATOM     32  H   UNL     1     -30.051  15.965   1.189  0.00  0.00    +0.150 HD
BRANCH  27  33
ATOM     33  O   UNL     1     -31.616  20.649  -1.400  0.00  0.00    -0.505 OA
ATOM     34  H   UNL     1     -32.185  21.386  -1.504  0.00  0.00    +0.292 HD
ENDBRANCH  27  33
ENDBRANCH  23  27
ENDBRANCH  20  22
ENDBRANCH   1  19
TORSDOF 7
ENDMDL
MODEL 6
REMARK VINA RESULT:      -6.3      5.067      8.537
REMARK  Name = 54728535
REMARK  7 active torsions:
REMARK  status: ('A' for Active; 'I' for Inactive)
REMARK    1  A    between atoms: C_1  and  C_13
REMARK    2  A    between atoms: C_1  and  C_19
REMARK    3  A    between atoms: C_7  and  C_16
REMARK    4  A    between atoms: C_16  and  O_17
REMARK    5  A    between atoms: C_20  and  C_22
REMARK    6  A    between atoms: C_23  and  C_27
REMARK    7  A    between atoms: C_27  and  O_33
REMARK                            x       y       z     vdW  Elec       q    Type
REMARK                         _______ _______ _______ _____ _____    ______ ____
ROOT
ATOM      1  C   UNL     1     -34.651  24.319   0.362  0.00  0.00    +0.049 C 
ATOM      2  C   UNL     1     -35.373  24.704  -0.932  0.00  0.00    +0.007 C 
ENDROOT
BRANCH   1  13
ATOM      3  O   UNL     1     -39.027  24.532   3.870  0.00  0.00    -0.341 OA
ATOM      4  O   UNL     1     -36.841  22.861   3.623  0.00  0.00    -0.327 OA
ATOM      5  O   UNL     1     -36.612  23.375   1.311  0.00  0.00    -0.334 OA
ATOM      6  O   UNL     1     -36.376  25.881   5.330  0.00  0.00    -0.291 OA
ATOM      7  C   UNL     1     -38.372  24.427   2.600  0.00  0.00    +0.198 C 
ATOM      8  C   UNL     1     -37.932  25.430   3.627  0.00  0.00    +0.206 C 
ATOM      9  C   UNL     1     -37.524  23.201   2.406  0.00  0.00    +0.215 C 
ATOM     10  C   UNL     1     -35.937  23.890   4.017  0.00  0.00    +0.179 C 
ATOM     11  C   UNL     1     -34.908  24.124   2.897  0.00  0.00    +0.062 C 
ATOM     12  C   UNL     1     -36.723  25.133   4.424  0.00  0.00    +0.207 C 
ATOM     13  C   UNL     1     -35.611  24.375   1.546  0.00  0.00    +0.124 C 
ATOM     14  C   UNL     1     -38.392  21.990   2.060  0.00  0.00    +0.064 C 
ATOM     15  C   UNL     1     -33.903  25.216   3.259  0.00  0.00    +0.005 C 
BRANCH   7  16
ATOM     16  C   UNL     1     -39.211  24.898   1.465  0.00  0.00    +0.172 C 
BRANCH  16  17
ATOM     17  O   UNL     1     -40.579  24.630   1.741  0.00  0.00    -0.379 OA
ATOM     18  H   UNL     1     -40.921  23.994   1.094  0.00  0.00    +0.211 HD
ENDBRANCH  16  17
ENDBRANCH   7  16
ENDBRANCH   1  13
BRANCH   1  19
ATOM     19  C   UNL     1     -34.068  22.929   0.229  0.00  0.00    -0.028 C 
ATOM     20  C   UNL     1     -32.870  22.558  -0.270  0.00  0.00    -0.026 C 
ATOM     21  C   UNL     1     -31.839  23.521  -0.800  0.00  0.00    +0.031 C 
BRANCH  20  22
ATOM     22  C   UNL     1     -32.538  21.129  -0.300  0.00  0.00    -0.001 C 
ATOM     23  C   UNL     1     -32.936  20.193   0.581  0.00  0.00    +0.037 C 
BRANCH  23  27
ATOM     24  O   UNL     1     -32.145  15.851   0.353  0.00  0.00    -0.289 OA
ATOM     25  O   UNL     1     -35.504  19.134  -0.027  0.00  0.00    -0.270 OA
ATOM     26  N   UNL     1     -35.443  16.786  -0.223  0.00  0.00    -0.294 N 
ATOM     27  C   UNL     1     -32.590  18.784   0.524  0.00  0.00    +0.141 C 
ATOM     28  C   UNL     1     -33.498  17.833   0.259  0.00  0.00    +0.123 C 
ATOM     29  C   UNL     1     -33.229  16.382   0.184  0.00  0.00    +0.200 C 
ATOM     30  C   UNL     1     -34.928  18.062  -0.007  0.00  0.00    +0.252 C 
ATOM     31  C   UNL     1     -34.514  15.667  -0.137  0.00  0.00    +0.160 C 
ATOM     32  H   UNL     1     -36.397  16.646  -0.424  0.00  0.00    +0.150 HD
BRANCH  27  33
ATOM     33  O   UNL     1     -31.265  18.477   0.762  0.00  0.00    -0.505 OA
ATOM     34  H   UNL     1     -30.858  17.769   0.302  0.00  0.00    +0.292 HD
ENDBRANCH  27  33
ENDBRANCH  23  27
ENDBRANCH  20  22
ENDBRANCH   1  19
TORSDOF 7
ENDMDL
MODEL 7
REMARK VINA RESULT:      -6.3      4.086      8.832
REMARK  Name = 54728535
REMARK  7 active torsions:
REMARK  status: ('A' for Active; 'I' for Inactive)
REMARK    1  A    between atoms: C_1  and  C_13
REMARK    2  A    between atoms: C_1  and  C_19
REMARK    3  A    between atoms: C_7  and  C_16
REMARK    4  A    between atoms: C_16  and  O_17
REMARK    5  A    between atoms: C_20  and  C_22
REMARK    6  A    between atoms: C_23  and  C_27
REMARK    7  A    between atoms: C_27  and  O_33
REMARK                            x       y       z     vdW  Elec       q    Type
REMARK                         _______ _______ _______ _____ _____    ______ ____
ROOT
ATOM      1  C   UNL     1     -35.254  25.082   4.851  0.00  0.00    +0.049 C 
ATOM      2  C   UNL     1     -34.083  25.143   5.835  0.00  0.00    +0.007 C 
ENDROOT
BRANCH   1  13
ATOM      3  O   UNL     1     -33.800  29.418   1.597  0.00  0.00    -0.341 OA
ATOM      4  O   UNL     1     -34.301  26.742   1.124  0.00  0.00    -0.327 OA
ATOM      5  O   UNL     1     -33.751  26.163   3.366  0.00  0.00    -0.334 OA
ATOM      6  O   UNL     1     -37.059  28.886   1.334  0.00  0.00    -0.291 OA
ATOM      7  C   UNL     1     -33.654  28.482   2.673  0.00  0.00    +0.198 C 
ATOM      8  C   UNL     1     -34.971  29.142   2.382  0.00  0.00    +0.206 C 
ATOM      9  C   UNL     1     -33.482  27.045   2.265  0.00  0.00    +0.215 C 
ATOM     10  C   UNL     1     -35.687  26.889   1.424  0.00  0.00    +0.179 C 
ATOM     11  C   UNL     1     -36.060  25.955   2.588  0.00  0.00    +0.062 C 
ATOM     12  C   UNL     1     -36.003  28.362   1.667  0.00  0.00    +0.207 C 
ATOM     13  C   UNL     1     -35.120  26.172   3.793  0.00  0.00    +0.124 C 
ATOM     14  C   UNL     1     -32.041  26.773   1.832  0.00  0.00    +0.064 C 
ATOM     15  C   UNL     1     -37.538  26.061   2.959  0.00  0.00    +0.005 C 
BRANCH   7  16
ATOM     16  C   UNL     1     -32.834  29.004   3.799  0.00  0.00    +0.172 C 
BRANCH  16  17
ATOM     17  O   UNL     1     -33.090  28.238   4.969  0.00  0.00    -0.379 OA
ATOM     18  H   UNL     1     -33.801  28.657   5.480  0.00  0.00    +0.211 HD
ENDBRANCH  16  17
ENDBRANCH   7  16
ENDBRANCH   1  13
BRANCH   1  19
ATOM     19  C   UNL     1     -35.301  23.721   4.194  0.00  0.00    -0.028 C 
ATOM     20  C   UNL     1     -35.395  22.504   4.772  0.00  0.00    -0.026 C 
ATOM     21  C   UNL     1     -35.488  22.279   6.259  0.00  0.00    +0.031 C 
BRANCH  20  22
ATOM     22  C   UNL     1     -35.412  21.319   3.906  0.00  0.00    -0.001 C 
ATOM     23  C   UNL     1     -35.507  21.306   2.564  0.00  0.00    +0.037 C 
BRANCH  23  27
ATOM     24  O   UNL     1     -35.800  17.748  -0.042  0.00  0.00    -0.289 OA
ATOM     25  O   UNL     1     -38.089  21.602   1.410  0.00  0.00    -0.270 OA
ATOM     26  N   UNL     1     -38.581  19.834  -0.067  0.00  0.00    -0.294 N 
ATOM     27  C   UNL     1     -35.521  20.114   1.735  0.00  0.00    +0.141 C 
ATOM     28  C   UNL     1     -36.568  19.790   0.962  0.00  0.00    +0.123 C 
ATOM     29  C   UNL     1     -36.662  18.599   0.092  0.00  0.00    +0.200 C 
ATOM     30  C   UNL     1     -37.815  20.564   0.839  0.00  0.00    +0.252 C 
ATOM     31  C   UNL     1     -37.997  18.611  -0.603  0.00  0.00    +0.160 C 
ATOM     32  H   UNL     1     -39.482  20.131  -0.333  0.00  0.00    +0.150 HD
BRANCH  27  33
ATOM     33  O   UNL     1     -34.388  19.327   1.788  0.00  0.00    -0.505 OA
ATOM     34  H   UNL     1     -34.038  18.954   1.003  0.00  0.00    +0.292 HD
ENDBRANCH  27  33
ENDBRANCH  23  27
ENDBRANCH  20  22
ENDBRANCH   1  19
TORSDOF 7
ENDMDL
MODEL 8
REMARK VINA RESULT:      -6.3      2.684      4.434
REMARK  Name = 54728535
REMARK  7 active torsions:
REMARK  status: ('A' for Active; 'I' for Inactive)
REMARK    1  A    between atoms: C_1  and  C_13
REMARK    2  A    between atoms: C_1  and  C_19
REMARK    3  A    between atoms: C_7  and  C_16
REMARK    4  A    between atoms: C_16  and  O_17
REMARK    5  A    between atoms: C_20  and  C_22
REMARK    6  A    between atoms: C_23  and  C_27
REMARK    7  A    between atoms: C_27  and  O_33
REMARK                            x       y       z     vdW  Elec       q    Type
REMARK                         _______ _______ _______ _____ _____    ______ ____
ROOT
ATOM      1  C   UNL     1     -35.443  22.864   3.172  0.00  0.00    +0.049 C 
ATOM      2  C   UNL     1     -35.600  22.403   4.623  0.00  0.00    +0.007 C 
ENDROOT
BRANCH   1  13
ATOM      3  O   UNL     1     -40.650  23.866   1.332  0.00  0.00    -0.341 OA
ATOM      4  O   UNL     1     -38.183  23.665   0.105  0.00  0.00    -0.327 OA
ATOM      5  O   UNL     1     -37.050  24.254   2.113  0.00  0.00    -0.334 OA
ATOM      6  O   UNL     1     -39.884  20.687   0.799  0.00  0.00    -0.291 OA
ATOM      7  C   UNL     1     -39.467  24.103   2.105  0.00  0.00    +0.198 C 
ATOM      8  C   UNL     1     -40.045  22.724   1.960  0.00  0.00    +0.206 C 
ATOM      9  C   UNL     1     -38.231  24.435   1.317  0.00  0.00    +0.215 C 
ATOM     10  C   UNL     1     -38.096  22.269   0.378  0.00  0.00    +0.179 C 
ATOM     11  C   UNL     1     -36.837  21.989   1.216  0.00  0.00    +0.062 C 
ATOM     12  C   UNL     1     -39.398  21.791   1.013  0.00  0.00    +0.207 C 
ATOM     13  C   UNL     1     -36.797  22.888   2.470  0.00  0.00    +0.124 C 
ATOM     14  C   UNL     1     -38.243  25.901   0.883  0.00  0.00    +0.064 C 
ATOM     15  C   UNL     1     -36.680  20.504   1.542  0.00  0.00    +0.005 C 
BRANCH   7  16
ATOM     16  C   UNL     1     -39.729  24.849   3.366  0.00  0.00    +0.172 C 
BRANCH  16  17
ATOM     17  O   UNL     1     -38.569  24.818   4.187  0.00  0.00    -0.379 OA
ATOM     18  H   UNL     1     -38.350  23.898   4.401  0.00  0.00    +0.211 HD
ENDBRANCH  16  17
ENDBRANCH   7  16
ENDBRANCH   1  13
BRANCH   1  19
ATOM     19  C   UNL     1     -34.814  24.239   3.137  0.00  0.00    -0.028 C 
ATOM     20  C   UNL     1     -34.067  24.804   2.163  0.00  0.00    -0.026 C 
ATOM     21  C   UNL     1     -33.723  24.127   0.861  0.00  0.00    +0.031 C 
BRANCH  20  22
ATOM     22  C   UNL     1     -33.557  26.163   2.374  0.00  0.00    -0.001 C 
ATOM     23  C   UNL     1     -33.228  26.724   3.551  0.00  0.00    +0.037 C 
BRANCH  23  27
ATOM     24  O   UNL     1     -31.666  30.780   4.352  0.00  0.00    -0.289 OA
ATOM     25  O   UNL     1     -32.732  26.648   6.350  0.00  0.00    -0.270 OA
ATOM     26  N   UNL     1     -31.873  28.699   7.130  0.00  0.00    -0.294 N 
ATOM     27  C   UNL     1     -32.724  28.075   3.728  0.00  0.00    +0.141 C 
ATOM     28  C   UNL     1     -32.338  28.546   4.922  0.00  0.00    +0.123 C 
ATOM     29  C   UNL     1     -31.817  29.903   5.186  0.00  0.00    +0.200 C 
ATOM     30  C   UNL     1     -32.363  27.796   6.189  0.00  0.00    +0.252 C 
ATOM     31  C   UNL     1     -31.501  30.025   6.652  0.00  0.00    +0.160 C 
ATOM     32  H   UNL     1     -31.784  28.453   8.079  0.00  0.00    +0.150 HD
BRANCH  27  33
ATOM     33  O   UNL     1     -32.666  28.852   2.587  0.00  0.00    -0.505 OA
ATOM     34  H   UNL     1     -32.006  29.512   2.503  0.00  0.00    +0.292 HD
ENDBRANCH  27  33
ENDBRANCH  23  27
ENDBRANCH  20  22
ENDBRANCH   1  19
TORSDOF 7
ENDMDL
MODEL 9
REMARK VINA RESULT:      -6.3      4.754      9.926
REMARK  Name = 54728535
REMARK  7 active torsions:
REMARK  status: ('A' for Active; 'I' for Inactive)
REMARK    1  A    between atoms: C_1  and  C_13
REMARK    2  A    between atoms: C_1  and  C_19
REMARK    3  A    between atoms: C_7  and  C_16
REMARK    4  A    between atoms: C_16  and  O_17
REMARK    5  A    between atoms: C_20  and  C_22
REMARK    6  A    between atoms: C_23  and  C_27
REMARK    7  A    between atoms: C_27  and  O_33
REMARK                            x       y       z     vdW  Elec       q    Type
REMARK                         _______ _______ _______ _____ _____    ______ ____
ROOT
ATOM      1  C   UNL     1     -38.597  24.584   2.269  0.00  0.00    +0.049 C 
ATOM      2  C   UNL     1     -39.472  24.788   3.509  0.00  0.00    +0.007 C 
ENDROOT
BRANCH   1  13
ATOM      3  O   UNL     1     -33.575  25.025   4.736  0.00  0.00    -0.341 OA
ATOM      4  O   UNL     1     -34.839  23.039   3.290  0.00  0.00    -0.327 OA
ATOM      5  O   UNL     1     -36.989  23.880   3.867  0.00  0.00    -0.334 OA
ATOM      6  O   UNL     1     -33.261  25.588   1.486  0.00  0.00    -0.291 OA
ATOM      7  C   UNL     1     -35.007  25.012   4.676  0.00  0.00    +0.198 C 
ATOM      8  C   UNL     1     -34.185  25.729   3.643  0.00  0.00    +0.206 C 
ATOM      9  C   UNL     1     -35.630  23.699   4.291  0.00  0.00    +0.215 C 
ATOM     10  C   UNL     1     -34.784  23.799   2.086  0.00  0.00    +0.179 C 
ATOM     11  C   UNL     1     -36.210  24.020   1.554  0.00  0.00    +0.062 C 
ATOM     12  C   UNL     1     -33.992  25.081   2.328  0.00  0.00    +0.207 C 
ATOM     13  C   UNL     1     -37.120  24.620   2.646  0.00  0.00    +0.124 C 
ATOM     14  C   UNL     1     -35.671  22.748   5.488  0.00  0.00    +0.064 C 
ATOM     15  C   UNL     1     -36.221  24.828   0.257  0.00  0.00    +0.005 C 
BRANCH   7  16
ATOM     16  C   UNL     1     -35.647  25.816   5.752  0.00  0.00    +0.172 C 
BRANCH  16  17
ATOM     17  O   UNL     1     -36.705  26.590   5.202  0.00  0.00    -0.379 OA
ATOM     18  H   UNL     1     -37.389  25.999   4.850  0.00  0.00    +0.211 HD
ENDBRANCH  16  17
ENDBRANCH   7  16
ENDBRANCH   1  13
BRANCH   1  19
ATOM     19  C   UNL     1     -38.936  23.264   1.615  0.00  0.00    -0.028 C 
ATOM     20  C   UNL     1     -39.904  22.988   0.715  0.00  0.00    -0.026 C 
ATOM     21  C   UNL     1     -40.863  24.012   0.165  0.00  0.00    +0.031 C 
BRANCH  20  22
ATOM     22  C   UNL     1     -40.038  21.609   0.233  0.00  0.00    -0.001 C 
ATOM     23  C   UNL     1     -39.051  20.820  -0.229  0.00  0.00    +0.037 C 
BRANCH  23  27
ATOM     24  O   UNL     1     -39.303  16.616  -1.569  0.00  0.00    -0.289 OA
ATOM     25  O   UNL     1     -36.531  19.771   0.568  0.00  0.00    -0.270 OA
ATOM     26  N   UNL     1     -36.323  17.496  -0.008  0.00  0.00    -0.294 N 
ATOM     27  C   UNL     1     -39.216  19.456  -0.699  0.00  0.00    +0.141 C 
ATOM     28  C   UNL     1     -38.261  18.526  -0.553  0.00  0.00    +0.123 C 
ATOM     29  C   UNL     1     -38.348  17.122  -1.004  0.00  0.00    +0.200 C 
ATOM     30  C   UNL     1     -36.949  18.737   0.082  0.00  0.00    +0.252 C 
ATOM     31  C   UNL     1     -37.066  16.418  -0.648  0.00  0.00    +0.160 C 
ATOM     32  H   UNL     1     -35.415  17.353   0.346  0.00  0.00    +0.150 HD
BRANCH  27  33
ATOM     33  O   UNL     1     -40.421  19.168  -1.310  0.00  0.00    -0.505 OA
ATOM     34  H   UNL     1     -41.209  19.578  -1.009  0.00  0.00    +0.292 HD
ENDBRANCH  27  33
ENDBRANCH  23  27
ENDBRANCH  20  22
ENDBRANCH   1  19
TORSDOF 7
ENDMDL
