MODEL 1
REMARK VINA RESULT:      -7.0      0.000      0.000
REMARK  Name = 5275788
REMARK  8 active torsions:
REMARK  status: ('A' for Active; 'I' for Inactive)
REMARK    1  A    between atoms: C_4  and  O_11
REMARK    2  A    between atoms: C_5  and  C_17
REMARK    3  A    between atoms: C_8  and  C_14
REMARK    4  A    between atoms: C_14  and  O_15
REMARK    5  A    between atoms: C_18  and  C_19
REMARK    6  A    between atoms: C_22  and  O_25
REMARK    7  A    between atoms: C_23  and  O_27
REMARK    8  A    between atoms: C_24  and  O_29
REMARK                            x       y       z     vdW  Elec       q    Type
REMARK                         _______ _______ _______ _____ _____    ______ ____
ROOT
ATOM      1  N   UNL     1     -31.196  28.012   5.098  0.00  0.00    -0.403 NA
ATOM      2  C   UNL     1     -30.241  30.206   4.810  0.00  0.00    +0.099 C 
ATOM      3  C   UNL     1     -30.285  28.944   5.439  0.00  0.00    +0.150 C 
ATOM      4  C   UNL     1     -29.352  28.676   6.437  0.00  0.00    +0.166 C 
ATOM      5  C   UNL     1     -32.084  28.313   4.123  0.00  0.00    +0.131 C 
ATOM      6  C   UNL     1     -31.180  30.476   3.805  0.00  0.00    -0.012 C 
ATOM      7  C   UNL     1     -29.277  31.156   5.191  0.00  0.00    -0.015 C 
ATOM      8  C   UNL     1     -28.394  29.620   6.816  0.00  0.00    +0.111 C 
ATOM      9  C   UNL     1     -32.119  29.519   3.453  0.00  0.00    +0.028 C 
ATOM     10  C   UNL     1     -28.356  30.861   6.193  0.00  0.00    +0.006 C 
ENDROOT
BRANCH   4  11
ATOM     11  O   UNL     1     -29.376  27.460   7.065  0.00  0.00    -0.503 OA
ATOM     12  H   UNL     1     -28.674  26.852   6.935  0.00  0.00    +0.292 HD
ENDBRANCH   4  11
BRANCH   8  14
ATOM     13  O   UNL     1     -26.938  28.214   8.092  0.00  0.00    -0.245 OA
ATOM     14  C   UNL     1     -27.425  29.325   7.862  0.00  0.00    +0.341 C 
BRANCH  14  15
ATOM     15  O   UNL     1     -27.095  30.427   8.588  0.00  0.00    -0.477 OA
ATOM     16  H   UNL     1     -27.163  31.278   8.204  0.00  0.00    +0.295 HD
ENDBRANCH  14  15
ENDBRANCH   8  14
BRANCH   5  17
ATOM     17  C   UNL     1     -33.043  27.270   3.795  0.00  0.00    +0.032 C 
ATOM     18  C   UNL     1     -33.670  26.475   4.693  0.00  0.00    +0.003 C 
BRANCH  18  19
ATOM     19  C   UNL     1     -34.656  25.430   4.361  0.00  0.00    +0.006 C 
ATOM     20  C   UNL     1     -34.915  24.426   5.278  0.00  0.00    +0.040 C 
ATOM     21  C   UNL     1     -35.305  25.476   3.137  0.00  0.00    +0.040 C 
ATOM     22  C   UNL     1     -35.848  23.438   4.963  0.00  0.00    +0.175 C 
ATOM     23  C   UNL     1     -36.239  24.489   2.823  0.00  0.00    +0.171 C 
ATOM     24  C   UNL     1     -36.509  23.469   3.736  0.00  0.00    +0.202 C 
BRANCH  22  25
ATOM     25  O   UNL     1     -36.104  22.448   5.863  0.00  0.00    -0.468 OA
ATOM     26  C   UNL     1     -35.097  21.451   6.035  0.00  0.00    +0.253 C 
ENDBRANCH  22  25
BRANCH  23  27
ATOM     27  O   UNL     1     -36.877  24.530   1.620  0.00  0.00    -0.503 OA
ATOM     28  H   UNL     1     -36.766  25.270   1.057  0.00  0.00    +0.292 HD
ENDBRANCH  23  27
BRANCH  24  29
ATOM     29  O   UNL     1     -37.422  22.504   3.428  0.00  0.00    -0.501 OA
ATOM     30  H   UNL     1     -37.645  22.338   2.533  0.00  0.00    +0.292 HD
ENDBRANCH  24  29
ENDBRANCH  18  19
ENDBRANCH   5  17
TORSDOF 8
ENDMDL
MODEL 2
REMARK VINA RESULT:      -6.9      0.524      2.095
REMARK  Name = 5275788
REMARK  8 active torsions:
REMARK  status: ('A' for Active; 'I' for Inactive)
REMARK    1  A    between atoms: C_4  and  O_11
REMARK    2  A    between atoms: C_5  and  C_17
REMARK    3  A    between atoms: C_8  and  C_14
REMARK    4  A    between atoms: C_14  and  O_15
REMARK    5  A    between atoms: C_18  and  C_19
REMARK    6  A    between atoms: C_22  and  O_25
REMARK    7  A    between atoms: C_23  and  O_27
REMARK    8  A    between atoms: C_24  and  O_29
REMARK                            x       y       z     vdW  Elec       q    Type
REMARK                         _______ _______ _______ _____ _____    ______ ____
ROOT
ATOM      1  N   UNL     1     -31.361  27.861   5.068  0.00  0.00    -0.403 NA
ATOM      2  C   UNL     1     -30.456  30.076   4.789  0.00  0.00    +0.099 C 
ATOM      3  C   UNL     1     -30.473  28.812   5.413  0.00  0.00    +0.150 C 
ATOM      4  C   UNL     1     -29.535  28.562   6.413  0.00  0.00    +0.166 C 
ATOM      5  C   UNL     1     -32.254  28.145   4.092  0.00  0.00    +0.131 C 
ATOM      6  C   UNL     1     -31.399  30.329   3.784  0.00  0.00    -0.012 C 
ATOM      7  C   UNL     1     -29.515  31.047   5.176  0.00  0.00    -0.015 C 
ATOM      8  C   UNL     1     -28.600  29.526   6.796  0.00  0.00    +0.111 C 
ATOM      9  C   UNL     1     -32.315  29.351   3.426  0.00  0.00    +0.028 C 
ATOM     10  C   UNL     1     -28.589  30.770   6.177  0.00  0.00    +0.006 C 
ENDROOT
BRANCH   4  11
ATOM     11  O   UNL     1     -29.532  27.343   7.036  0.00  0.00    -0.503 OA
ATOM     12  H   UNL     1     -28.724  26.890   7.174  0.00  0.00    +0.292 HD
ENDBRANCH   4  11
BRANCH   8  14
ATOM     13  O   UNL     1     -27.138  28.143   8.091  0.00  0.00    -0.245 OA
ATOM     14  C   UNL     1     -27.626  29.249   7.844  0.00  0.00    +0.341 C 
BRANCH  14  15
ATOM     15  O   UNL     1     -27.294  30.364   8.549  0.00  0.00    -0.477 OA
ATOM     16  H   UNL     1     -27.957  30.978   8.794  0.00  0.00    +0.295 HD
ENDBRANCH  14  15
ENDBRANCH   8  14
BRANCH   5  17
ATOM     17  C   UNL     1     -33.188  27.081   3.758  0.00  0.00    +0.032 C 
ATOM     18  C   UNL     1     -33.720  26.203   4.641  0.00  0.00    +0.003 C 
BRANCH  18  19
ATOM     19  C   UNL     1     -34.681  25.137   4.306  0.00  0.00    +0.006 C 
ATOM     20  C   UNL     1     -35.315  25.159   3.075  0.00  0.00    +0.040 C 
ATOM     21  C   UNL     1     -34.930  24.134   5.228  0.00  0.00    +0.040 C 
ATOM     22  C   UNL     1     -36.224  24.150   2.757  0.00  0.00    +0.175 C 
ATOM     23  C   UNL     1     -35.839  23.125   4.910  0.00  0.00    +0.171 C 
ATOM     24  C   UNL     1     -36.487  23.133   3.675  0.00  0.00    +0.202 C 
BRANCH  22  25
ATOM     25  O   UNL     1     -36.849  24.169   1.547  0.00  0.00    -0.468 OA
ATOM     26  C   UNL     1     -37.904  25.116   1.377  0.00  0.00    +0.253 C 
ENDBRANCH  22  25
BRANCH  23  27
ATOM     27  O   UNL     1     -36.087  22.138   5.816  0.00  0.00    -0.503 OA
ATOM     28  H   UNL     1     -35.520  22.026   6.554  0.00  0.00    +0.292 HD
ENDBRANCH  23  27
BRANCH  24  29
ATOM     29  O   UNL     1     -37.375  22.147   3.364  0.00  0.00    -0.501 OA
ATOM     30  H   UNL     1     -37.801  22.146   2.529  0.00  0.00    +0.292 HD
ENDBRANCH  24  29
ENDBRANCH  18  19
ENDBRANCH   5  17
TORSDOF 8
ENDMDL
MODEL 3
REMARK VINA RESULT:      -6.8      1.548      2.655
REMARK  Name = 5275788
REMARK  8 active torsions:
REMARK  status: ('A' for Active; 'I' for Inactive)
REMARK    1  A    between atoms: C_4  and  O_11
REMARK    2  A    between atoms: C_5  and  C_17
REMARK    3  A    between atoms: C_8  and  C_14
REMARK    4  A    between atoms: C_14  and  O_15
REMARK    5  A    between atoms: C_18  and  C_19
REMARK    6  A    between atoms: C_22  and  O_25
REMARK    7  A    between atoms: C_23  and  O_27
REMARK    8  A    between atoms: C_24  and  O_29
REMARK                            x       y       z     vdW  Elec       q    Type
REMARK                         _______ _______ _______ _____ _____    ______ ____
ROOT
ATOM      1  N   UNL     1     -32.038  27.402   4.770  0.00  0.00    -0.403 NA
ATOM      2  C   UNL     1     -31.879  29.799   4.574  0.00  0.00    +0.099 C 
ATOM      3  C   UNL     1     -31.450  28.566   5.107  0.00  0.00    +0.150 C 
ATOM      4  C   UNL     1     -30.386  28.575   6.005  0.00  0.00    +0.166 C 
ATOM      5  C   UNL     1     -33.069  27.438   3.894  0.00  0.00    +0.131 C 
ATOM      6  C   UNL     1     -32.950  29.790   3.671  0.00  0.00    -0.012 C 
ATOM      7  C   UNL     1     -31.242  30.995   4.950  0.00  0.00    -0.015 C 
ATOM      8  C   UNL     1     -29.752  29.763   6.378  0.00  0.00    +0.111 C 
ATOM      9  C   UNL     1     -33.558  28.594   3.322  0.00  0.00    +0.028 C 
ATOM     10  C   UNL     1     -30.181  30.974   5.850  0.00  0.00    +0.006 C 
ENDROOT
BRANCH   4  11
ATOM     11  O   UNL     1     -29.951  27.391   6.539  0.00  0.00    -0.503 OA
ATOM     12  H   UNL     1     -29.218  27.382   7.122  0.00  0.00    +0.292 HD
ENDBRANCH   4  11
BRANCH   8  14
ATOM     13  O   UNL     1     -27.507  30.187   7.089  0.00  0.00    -0.245 OA
ATOM     14  C   UNL     1     -28.641  29.756   7.319  0.00  0.00    +0.341 C 
BRANCH  14  15
ATOM     15  O   UNL     1     -28.981  29.211   8.518  0.00  0.00    -0.477 OA
ATOM     16  H   UNL     1     -28.725  28.333   8.722  0.00  0.00    +0.295 HD
ENDBRANCH  14  15
ENDBRANCH   8  14
BRANCH   5  17
ATOM     17  C   UNL     1     -33.665  26.154   3.564  0.00  0.00    +0.032 C 
ATOM     18  C   UNL     1     -33.958  25.176   4.454  0.00  0.00    +0.003 C 
BRANCH  18  19
ATOM     19  C   UNL     1     -34.580  23.882   4.122  0.00  0.00    +0.006 C 
ATOM     20  C   UNL     1     -34.983  23.638   2.820  0.00  0.00    +0.040 C 
ATOM     21  C   UNL     1     -34.748  22.935   5.119  0.00  0.00    +0.040 C 
ATOM     22  C   UNL     1     -35.571  22.413   2.505  0.00  0.00    +0.175 C 
ATOM     23  C   UNL     1     -35.335  21.709   4.804  0.00  0.00    +0.171 C 
ATOM     24  C   UNL     1     -35.748  21.449   3.497  0.00  0.00    +0.202 C 
BRANCH  22  25
ATOM     25  O   UNL     1     -35.969  22.171   1.225  0.00  0.00    -0.468 OA
ATOM     26  C   UNL     1     -35.665  23.169   0.252  0.00  0.00    +0.253 C 
ENDBRANCH  22  25
BRANCH  23  27
ATOM     27  O   UNL     1     -35.503  20.777   5.783  0.00  0.00    -0.503 OA
ATOM     28  H   UNL     1     -34.931  20.037   5.828  0.00  0.00    +0.292 HD
ENDBRANCH  23  27
BRANCH  24  29
ATOM     29  O   UNL     1     -36.323  20.252   3.190  0.00  0.00    -0.501 OA
ATOM     30  H   UNL     1     -35.798  19.555   2.847  0.00  0.00    +0.292 HD
ENDBRANCH  24  29
ENDBRANCH  18  19
ENDBRANCH   5  17
TORSDOF 8
ENDMDL
MODEL 4
REMARK VINA RESULT:      -6.5      5.486      8.463
REMARK  Name = 5275788
REMARK  8 active torsions:
REMARK  status: ('A' for Active; 'I' for Inactive)
REMARK    1  A    between atoms: C_4  and  O_11
REMARK    2  A    between atoms: C_5  and  C_17
REMARK    3  A    between atoms: C_8  and  C_14
REMARK    4  A    between atoms: C_14  and  O_15
REMARK    5  A    between atoms: C_18  and  C_19
REMARK    6  A    between atoms: C_22  and  O_25
REMARK    7  A    between atoms: C_23  and  O_27
REMARK    8  A    between atoms: C_24  and  O_29
REMARK                            x       y       z     vdW  Elec       q    Type
REMARK                         _______ _______ _______ _____ _____    ______ ____
ROOT
ATOM      1  N   UNL     1     -35.359  22.799   2.806  0.00  0.00    -0.403 NA
ATOM      2  C   UNL     1     -35.461  23.849   4.973  0.00  0.00    +0.099 C 
ATOM      3  C   UNL     1     -35.423  23.910   3.564  0.00  0.00    +0.150 C 
ATOM      4  C   UNL     1     -35.454  25.165   2.962  0.00  0.00    +0.166 C 
ATOM      5  C   UNL     1     -35.332  21.599   3.431  0.00  0.00    +0.131 C 
ATOM      6  C   UNL     1     -35.430  22.586   5.579  0.00  0.00    -0.012 C 
ATOM      7  C   UNL     1     -35.526  25.029   5.733  0.00  0.00    -0.015 C 
ATOM      8  C   UNL     1     -35.519  26.338   3.718  0.00  0.00    +0.111 C 
ATOM      9  C   UNL     1     -35.364  21.440   4.801  0.00  0.00    +0.028 C 
ATOM     10  C   UNL     1     -35.555  26.271   5.105  0.00  0.00    +0.006 C 
ENDROOT
BRANCH   4  11
ATOM     11  O   UNL     1     -35.416  25.252   1.596  0.00  0.00    -0.503 OA
ATOM     12  H   UNL     1     -36.034  24.775   1.079  0.00  0.00    +0.292 HD
ENDBRANCH   4  11
BRANCH   8  14
ATOM     13  O   UNL     1     -34.712  28.538   3.229  0.00  0.00    -0.245 OA
ATOM     14  C   UNL     1     -35.550  27.644   3.073  0.00  0.00    +0.341 C 
BRANCH  14  15
ATOM     15  O   UNL     1     -36.625  27.792   2.254  0.00  0.00    -0.477 OA
ATOM     16  H   UNL     1     -36.559  28.323   1.485  0.00  0.00    +0.295 HD
ENDBRANCH  14  15
ENDBRANCH   8  14
BRANCH   5  17
ATOM     17  C   UNL     1     -35.265  20.434   2.564  0.00  0.00    +0.032 C 
ATOM     18  C   UNL     1     -34.188  20.069   1.828  0.00  0.00    +0.003 C 
BRANCH  18  19
ATOM     19  C   UNL     1     -34.115  18.877   0.965  0.00  0.00    +0.006 C 
ATOM     20  C   UNL     1     -33.035  18.018   1.083  0.00  0.00    +0.040 C 
ATOM     21  C   UNL     1     -35.129  18.638   0.051  0.00  0.00    +0.040 C 
ATOM     22  C   UNL     1     -32.965  16.890   0.266  0.00  0.00    +0.175 C 
ATOM     23  C   UNL     1     -35.060  17.509  -0.765  0.00  0.00    +0.171 C 
ATOM     24  C   UNL     1     -33.978  16.636  -0.659  0.00  0.00    +0.202 C 
BRANCH  22  25
ATOM     25  O   UNL     1     -31.904  16.045   0.381  0.00  0.00    -0.468 OA
ATOM     26  C   UNL     1     -30.636  16.533  -0.055  0.00  0.00    +0.253 C 
ENDBRANCH  22  25
BRANCH  23  27
ATOM     27  O   UNL     1     -36.055  17.273  -1.665  0.00  0.00    -0.503 OA
ATOM     28  H   UNL     1     -36.115  17.789  -2.445  0.00  0.00    +0.292 HD
ENDBRANCH  23  27
BRANCH  24  29
ATOM     29  O   UNL     1     -33.911  15.533  -1.457  0.00  0.00    -0.501 OA
ATOM     30  H   UNL     1     -33.765  14.688  -1.078  0.00  0.00    +0.292 HD
ENDBRANCH  24  29
ENDBRANCH  18  19
ENDBRANCH   5  17
TORSDOF 8
ENDMDL
MODEL 5
REMARK VINA RESULT:      -6.4      5.338      8.375
REMARK  Name = 5275788
REMARK  8 active torsions:
REMARK  status: ('A' for Active; 'I' for Inactive)
REMARK    1  A    between atoms: C_4  and  O_11
REMARK    2  A    between atoms: C_5  and  C_17
REMARK    3  A    between atoms: C_8  and  C_14
REMARK    4  A    between atoms: C_14  and  O_15
REMARK    5  A    between atoms: C_18  and  C_19
REMARK    6  A    between atoms: C_22  and  O_25
REMARK    7  A    between atoms: C_23  and  O_27
REMARK    8  A    between atoms: C_24  and  O_29
REMARK                            x       y       z     vdW  Elec       q    Type
REMARK                         _______ _______ _______ _____ _____    ______ ____
ROOT
ATOM      1  N   UNL     1     -35.266  22.856   3.005  0.00  0.00    -0.403 NA
ATOM      2  C   UNL     1     -35.419  23.983   5.129  0.00  0.00    +0.099 C 
ATOM      3  C   UNL     1     -35.324  23.994   3.722  0.00  0.00    +0.150 C 
ATOM      4  C   UNL     1     -35.290  25.228   3.077  0.00  0.00    +0.166 C 
ATOM      5  C   UNL     1     -35.301  21.679   3.671  0.00  0.00    +0.131 C 
ATOM      6  C   UNL     1     -35.452  22.742   5.779  0.00  0.00    -0.012 C 
ATOM      7  C   UNL     1     -35.476  25.191   5.847  0.00  0.00    -0.015 C 
ATOM      8  C   UNL     1     -35.348  26.428   3.790  0.00  0.00    +0.111 C 
ATOM      9  C   UNL     1     -35.392  21.568   5.043  0.00  0.00    +0.028 C 
ATOM     10  C   UNL     1     -35.441  26.410   5.176  0.00  0.00    +0.006 C 
ENDROOT
BRANCH   4  11
ATOM     11  O   UNL     1     -35.196  25.266   1.712  0.00  0.00    -0.503 OA
ATOM     12  H   UNL     1     -35.508  24.546   1.201  0.00  0.00    +0.292 HD
ENDBRANCH   4  11
BRANCH   8  14
ATOM     13  O   UNL     1     -34.462  28.590   3.272  0.00  0.00    -0.245 OA
ATOM     14  C   UNL     1     -35.312  27.711   3.101  0.00  0.00    +0.341 C 
BRANCH  14  15
ATOM     15  O   UNL     1     -36.338  27.855   2.220  0.00  0.00    -0.477 OA
ATOM     16  H   UNL     1     -37.223  27.821   2.522  0.00  0.00    +0.295 HD
ENDBRANCH  14  15
ENDBRANCH   8  14
BRANCH   5  17
ATOM     17  C   UNL     1     -35.237  20.482   2.847  0.00  0.00    +0.032 C 
ATOM     18  C   UNL     1     -34.386  20.292   1.811  0.00  0.00    +0.003 C 
BRANCH  18  19
ATOM     19  C   UNL     1     -34.308  19.071   0.989  0.00  0.00    +0.006 C 
ATOM     20  C   UNL     1     -35.335  18.782   0.105  0.00  0.00    +0.040 C 
ATOM     21  C   UNL     1     -33.209  18.237   1.115  0.00  0.00    +0.040 C 
ATOM     22  C   UNL     1     -35.261  17.627  -0.673  0.00  0.00    +0.175 C 
ATOM     23  C   UNL     1     -33.135  17.082   0.336  0.00  0.00    +0.171 C 
ATOM     24  C   UNL     1     -34.162  16.777  -0.557  0.00  0.00    +0.202 C 
BRANCH  22  25
ATOM     25  O   UNL     1     -36.270  17.340  -1.543  0.00  0.00    -0.468 OA
ATOM     26  C   UNL     1     -37.521  16.951  -0.978  0.00  0.00    +0.253 C 
ENDBRANCH  22  25
BRANCH  23  27
ATOM     27  O   UNL     1     -32.056  16.260   0.460  0.00  0.00    -0.503 OA
ATOM     28  H   UNL     1     -31.215  16.618   0.667  0.00  0.00    +0.292 HD
ENDBRANCH  23  27
BRANCH  24  29
ATOM     29  O   UNL     1     -34.089  15.648  -1.318  0.00  0.00    -0.501 OA
ATOM     30  H   UNL     1     -34.224  15.698  -2.244  0.00  0.00    +0.292 HD
ENDBRANCH  24  29
ENDBRANCH  18  19
ENDBRANCH   5  17
TORSDOF 8
ENDMDL
MODEL 6
REMARK VINA RESULT:      -6.3      6.287     10.783
REMARK  Name = 5275788
REMARK  8 active torsions:
REMARK  status: ('A' for Active; 'I' for Inactive)
REMARK    1  A    between atoms: C_4  and  O_11
REMARK    2  A    between atoms: C_5  and  C_17
REMARK    3  A    between atoms: C_8  and  C_14
REMARK    4  A    between atoms: C_14  and  O_15
REMARK    5  A    between atoms: C_18  and  C_19
REMARK    6  A    between atoms: C_22  and  O_25
REMARK    7  A    between atoms: C_23  and  O_27
REMARK    8  A    between atoms: C_24  and  O_29
REMARK                            x       y       z     vdW  Elec       q    Type
REMARK                         _______ _______ _______ _____ _____    ______ ____
ROOT
ATOM      1  N   UNL     1     -33.989  19.097   1.380  0.00  0.00    -0.403 NA
ATOM      2  C   UNL     1     -34.650  17.692  -0.463  0.00  0.00    +0.099 C 
ATOM      3  C   UNL     1     -33.747  18.060   0.555  0.00  0.00    +0.150 C 
ATOM      4  C   UNL     1     -32.578  17.316   0.695  0.00  0.00    +0.166 C 
ATOM      5  C   UNL     1     -35.137  19.793   1.210  0.00  0.00    +0.131 C 
ATOM      6  C   UNL     1     -35.826  18.441  -0.605  0.00  0.00    -0.012 C 
ATOM      7  C   UNL     1     -34.364  16.604  -1.307  0.00  0.00    -0.015 C 
ATOM      8  C   UNL     1     -32.294  16.235  -0.143  0.00  0.00    +0.111 C 
ATOM      9  C   UNL     1     -36.078  19.509   0.242  0.00  0.00    +0.028 C 
ATOM     10  C   UNL     1     -33.188  15.878  -1.145  0.00  0.00    +0.006 C 
ENDROOT
BRANCH   4  11
ATOM     11  O   UNL     1     -31.683  17.654   1.675  0.00  0.00    -0.503 OA
ATOM     12  H   UNL     1     -31.883  17.475   2.573  0.00  0.00    +0.292 HD
ENDBRANCH   4  11
BRANCH   8  14
ATOM     13  O   UNL     1     -29.924  15.904  -0.150  0.00  0.00    -0.245 OA
ATOM     14  C   UNL     1     -31.067  15.466   0.015  0.00  0.00    +0.341 C 
BRANCH  14  15
ATOM     15  O   UNL     1     -31.306  14.177   0.375  0.00  0.00    -0.477 OA
ATOM     16  H   UNL     1     -31.553  13.974   1.255  0.00  0.00    +0.295 HD
ENDBRANCH  14  15
ENDBRANCH   8  14
BRANCH   5  17
ATOM     17  C   UNL     1     -35.348  20.900   2.128  0.00  0.00    +0.032 C 
ATOM     18  C   UNL     1     -35.663  22.167   1.766  0.00  0.00    +0.003 C 
BRANCH  18  19
ATOM     19  C   UNL     1     -35.896  23.284   2.698  0.00  0.00    +0.006 C 
ATOM     20  C   UNL     1     -34.812  23.919   3.281  0.00  0.00    +0.040 C 
ATOM     21  C   UNL     1     -37.196  23.679   2.972  0.00  0.00    +0.040 C 
ATOM     22  C   UNL     1     -35.033  24.976   4.163  0.00  0.00    +0.175 C 
ATOM     23  C   UNL     1     -37.417  24.737   3.853  0.00  0.00    +0.171 C 
ATOM     24  C   UNL     1     -36.335  25.385   4.449  0.00  0.00    +0.202 C 
BRANCH  22  25
ATOM     25  O   UNL     1     -33.968  25.602   4.738  0.00  0.00    -0.468 OA
ATOM     26  C   UNL     1     -33.334  26.631   3.979  0.00  0.00    +0.253 C 
ENDBRANCH  22  25
BRANCH  23  27
ATOM     27  O   UNL     1     -38.694  25.125   4.125  0.00  0.00    -0.503 OA
ATOM     28  H   UNL     1     -39.319  24.498   4.432  0.00  0.00    +0.292 HD
ENDBRANCH  23  27
BRANCH  24  29
ATOM     29  O   UNL     1     -36.552  26.419   5.311  0.00  0.00    -0.501 OA
ATOM     30  H   UNL     1     -36.522  27.303   5.000  0.00  0.00    +0.292 HD
ENDBRANCH  24  29
ENDBRANCH  18  19
ENDBRANCH   5  17
TORSDOF 8
ENDMDL
MODEL 7
REMARK VINA RESULT:      -6.3      5.942      9.320
REMARK  Name = 5275788
REMARK  8 active torsions:
REMARK  status: ('A' for Active; 'I' for Inactive)
REMARK    1  A    between atoms: C_4  and  O_11
REMARK    2  A    between atoms: C_5  and  C_17
REMARK    3  A    between atoms: C_8  and  C_14
REMARK    4  A    between atoms: C_14  and  O_15
REMARK    5  A    between atoms: C_18  and  C_19
REMARK    6  A    between atoms: C_22  and  O_25
REMARK    7  A    between atoms: C_23  and  O_27
REMARK    8  A    between atoms: C_24  and  O_29
REMARK                            x       y       z     vdW  Elec       q    Type
REMARK                         _______ _______ _______ _____ _____    ______ ____
ROOT
ATOM      1  N   UNL     1     -35.212  21.932   2.842  0.00  0.00    -0.403 NA
ATOM      2  C   UNL     1     -37.376  22.975   2.653  0.00  0.00    +0.099 C 
ATOM      3  C   UNL     1     -36.032  22.973   3.080  0.00  0.00    +0.150 C 
ATOM      4  C   UNL     1     -35.561  24.090   3.766  0.00  0.00    +0.166 C 
ATOM      5  C   UNL     1     -35.710  20.867   2.172  0.00  0.00    +0.131 C 
ATOM      6  C   UNL     1     -37.851  21.851   1.963  0.00  0.00    -0.012 C 
ATOM      7  C   UNL     1     -38.205  24.079   2.921  0.00  0.00    -0.015 C 
ATOM      8  C   UNL     1     -36.384  25.187   4.031  0.00  0.00    +0.111 C 
ATOM      9  C   UNL     1     -37.009  20.777   1.717  0.00  0.00    +0.028 C 
ATOM     10  C   UNL     1     -37.707  25.182   3.608  0.00  0.00    +0.006 C 
ENDROOT
BRANCH   4  11
ATOM     11  O   UNL     1     -34.260  24.112   4.194  0.00  0.00    -0.503 OA
ATOM     12  H   UNL     1     -34.009  24.676   4.898  0.00  0.00    +0.292 HD
ENDBRANCH   4  11
BRANCH   8  14
ATOM     13  O   UNL     1     -34.828  26.945   4.492  0.00  0.00    -0.245 OA
ATOM     14  C   UNL     1     -35.876  26.347   4.750  0.00  0.00    +0.341 C 
BRANCH  14  15
ATOM     15  O   UNL     1     -36.695  26.724   5.769  0.00  0.00    -0.477 OA
ATOM     16  H   UNL     1     -36.821  27.633   5.958  0.00  0.00    +0.295 HD
ENDBRANCH  14  15
ENDBRANCH   8  14
BRANCH   5  17
ATOM     17  C   UNL     1     -34.781  19.773   1.940  0.00  0.00    +0.032 C 
ATOM     18  C   UNL     1     -33.888  19.709   0.924  0.00  0.00    +0.003 C 
BRANCH  18  19
ATOM     19  C   UNL     1     -32.933  18.608   0.701  0.00  0.00    +0.006 C 
ATOM     20  C   UNL     1     -31.576  18.850   0.836  0.00  0.00    +0.040 C 
ATOM     21  C   UNL     1     -33.412  17.353   0.362  0.00  0.00    +0.040 C 
ATOM     22  C   UNL     1     -30.672  17.808   0.625  0.00  0.00    +0.175 C 
ATOM     23  C   UNL     1     -32.509  16.311   0.152  0.00  0.00    +0.171 C 
ATOM     24  C   UNL     1     -31.139  16.539   0.282  0.00  0.00    +0.202 C 
BRANCH  22  25
ATOM     25  O   UNL     1     -29.337  18.044   0.756  0.00  0.00    -0.468 OA
ATOM     26  C   UNL     1     -28.704  18.786  -0.285  0.00  0.00    +0.253 C 
ENDBRANCH  22  25
BRANCH  23  27
ATOM     27  O   UNL     1     -32.978  15.077  -0.183  0.00  0.00    -0.503 OA
ATOM     28  H   UNL     1     -32.473  14.314   0.017  0.00  0.00    +0.292 HD
ENDBRANCH  23  27
BRANCH  24  29
ATOM     29  O   UNL     1     -30.256  15.521   0.077  0.00  0.00    -0.501 OA
ATOM     30  H   UNL     1     -30.499  14.791  -0.458  0.00  0.00    +0.292 HD
ENDBRANCH  24  29
ENDBRANCH  18  19
ENDBRANCH   5  17
TORSDOF 8
ENDMDL
MODEL 8
REMARK VINA RESULT:      -6.2      6.011     11.792
REMARK  Name = 5275788
REMARK  8 active torsions:
REMARK  status: ('A' for Active; 'I' for Inactive)
REMARK    1  A    between atoms: C_4  and  O_11
REMARK    2  A    between atoms: C_5  and  C_17
REMARK    3  A    between atoms: C_8  and  C_14
REMARK    4  A    between atoms: C_14  and  O_15
REMARK    5  A    between atoms: C_18  and  C_19
REMARK    6  A    between atoms: C_22  and  O_25
REMARK    7  A    between atoms: C_23  and  O_27
REMARK    8  A    between atoms: C_24  and  O_29
REMARK                            x       y       z     vdW  Elec       q    Type
REMARK                         _______ _______ _______ _____ _____    ______ ____
ROOT
ATOM      1  N   UNL     1     -36.022  19.318   0.784  0.00  0.00    -0.403 NA
ATOM      2  C   UNL     1     -34.401  17.641   0.177  0.00  0.00    +0.099 C 
ATOM      3  C   UNL     1     -35.725  18.122   0.239  0.00  0.00    +0.150 C 
ATOM      4  C   UNL     1     -36.738  17.322  -0.283  0.00  0.00    +0.166 C 
ATOM      5  C   UNL     1     -35.008  20.063   1.280  0.00  0.00    +0.131 C 
ATOM      6  C   UNL     1     -33.381  18.446   0.703  0.00  0.00    -0.012 C 
ATOM      7  C   UNL     1     -34.127  16.387  -0.397  0.00  0.00    -0.015 C 
ATOM      8  C   UNL     1     -36.466  16.077  -0.854  0.00  0.00    +0.111 C 
ATOM      9  C   UNL     1     -33.684  19.677   1.265  0.00  0.00    +0.028 C 
ATOM     10  C   UNL     1     -35.159  15.608  -0.912  0.00  0.00    +0.006 C 
ENDROOT
BRANCH   4  11
ATOM     11  O   UNL     1     -38.033  17.765  -0.233  0.00  0.00    -0.503 OA
ATOM     12  H   UNL     1     -38.270  18.567  -0.656  0.00  0.00    +0.292 HD
ENDBRANCH   4  11
BRANCH   8  14
ATOM     13  O   UNL     1     -37.611  14.853  -2.562  0.00  0.00    -0.245 OA
ATOM     14  C   UNL     1     -37.537  15.251  -1.396  0.00  0.00    +0.341 C 
BRANCH  14  15
ATOM     15  O   UNL     1     -38.481  14.950  -0.464  0.00  0.00    -0.477 OA
ATOM     16  H   UNL     1     -38.584  15.494   0.291  0.00  0.00    +0.295 HD
ENDBRANCH  14  15
ENDBRANCH   8  14
BRANCH   5  17
ATOM     17  C   UNL     1     -35.386  21.345   1.853  0.00  0.00    +0.032 C 
ATOM     18  C   UNL     1     -35.303  21.668   3.166  0.00  0.00    +0.003 C 
BRANCH  18  19
ATOM     19  C   UNL     1     -35.667  22.974   3.744  0.00  0.00    +0.006 C 
ATOM     20  C   UNL     1     -34.705  23.713   4.410  0.00  0.00    +0.040 C 
ATOM     21  C   UNL     1     -36.967  23.437   3.608  0.00  0.00    +0.040 C 
ATOM     22  C   UNL     1     -35.050  24.949   4.957  0.00  0.00    +0.175 C 
ATOM     23  C   UNL     1     -37.312  24.673   4.153  0.00  0.00    +0.171 C 
ATOM     24  C   UNL     1     -36.353  25.429   4.829  0.00  0.00    +0.202 C 
BRANCH  22  25
ATOM     25  O   UNL     1     -34.105  25.679   5.613  0.00  0.00    -0.468 OA
ATOM     26  C   UNL     1     -33.420  26.679   4.860  0.00  0.00    +0.253 C 
ENDBRANCH  22  25
BRANCH  23  27
ATOM     27  O   UNL     1     -38.588  25.129   4.022  0.00  0.00    -0.503 OA
ATOM     28  H   UNL     1     -38.861  25.536   3.224  0.00  0.00    +0.292 HD
ENDBRANCH  23  27
BRANCH  24  29
ATOM     29  O   UNL     1     -36.691  26.637   5.363  0.00  0.00    -0.501 OA
ATOM     30  H   UNL     1     -36.747  27.393   4.812  0.00  0.00    +0.292 HD
ENDBRANCH  24  29
ENDBRANCH  18  19
ENDBRANCH   5  17
TORSDOF 8
ENDMDL
MODEL 9
REMARK VINA RESULT:      -6.2      2.624      4.031
REMARK  Name = 5275788
REMARK  8 active torsions:
REMARK  status: ('A' for Active; 'I' for Inactive)
REMARK    1  A    between atoms: C_4  and  O_11
REMARK    2  A    between atoms: C_5  and  C_17
REMARK    3  A    between atoms: C_8  and  C_14
REMARK    4  A    between atoms: C_14  and  O_15
REMARK    5  A    between atoms: C_18  and  C_19
REMARK    6  A    between atoms: C_22  and  O_25
REMARK    7  A    between atoms: C_23  and  O_27
REMARK    8  A    between atoms: C_24  and  O_29
REMARK                            x       y       z     vdW  Elec       q    Type
REMARK                         _______ _______ _______ _____ _____    ______ ____
ROOT
ATOM      1  N   UNL     1     -33.402  27.439   4.151  0.00  0.00    -0.403 NA
ATOM      2  C   UNL     1     -32.237  28.157   6.134  0.00  0.00    +0.099 C 
ATOM      3  C   UNL     1     -32.561  28.291   4.768  0.00  0.00    +0.150 C 
ATOM      4  C   UNL     1     -31.984  29.340   4.057  0.00  0.00    +0.166 C 
ATOM      5  C   UNL     1     -33.941  26.434   4.878  0.00  0.00    +0.131 C 
ATOM      6  C   UNL     1     -32.817  27.101   6.850  0.00  0.00    -0.012 C 
ATOM      7  C   UNL     1     -31.353  29.064   6.746  0.00  0.00    -0.015 C 
ATOM      8  C   UNL     1     -31.107  30.242   4.666  0.00  0.00    +0.111 C 
ATOM      9  C   UNL     1     -33.683  26.223   6.217  0.00  0.00    +0.028 C 
ATOM     10  C   UNL     1     -30.791  30.104   6.011  0.00  0.00    +0.006 C 
ENDROOT
BRANCH   4  11
ATOM     11  O   UNL     1     -32.281  29.491   2.729  0.00  0.00    -0.503 OA
ATOM     12  H   UNL     1     -31.660  29.891   2.153  0.00  0.00    +0.292 HD
ENDBRANCH   4  11
BRANCH   8  14
ATOM     13  O   UNL     1     -31.130  32.133   3.200  0.00  0.00    -0.245 OA
ATOM     14  C   UNL     1     -30.511  31.334   3.908  0.00  0.00    +0.341 C 
BRANCH  14  15
ATOM     15  O   UNL     1     -29.161  31.393   4.060  0.00  0.00    -0.477 OA
ATOM     16  H   UNL     1     -28.696  30.658   4.408  0.00  0.00    +0.295 HD
ENDBRANCH  14  15
ENDBRANCH   8  14
BRANCH   5  17
ATOM     17  C   UNL     1     -34.843  25.546   4.162  0.00  0.00    +0.032 C 
ATOM     18  C   UNL     1     -34.927  24.207   4.343  0.00  0.00    +0.003 C 
BRANCH  18  19
ATOM     19  C   UNL     1     -35.855  23.310   3.630  0.00  0.00    +0.006 C 
ATOM     20  C   UNL     1     -37.117  23.769   3.293  0.00  0.00    +0.040 C 
ATOM     21  C   UNL     1     -35.445  22.026   3.310  0.00  0.00    +0.040 C 
ATOM     22  C   UNL     1     -37.995  22.921   2.619  0.00  0.00    +0.175 C 
ATOM     23  C   UNL     1     -36.323  21.178   2.635  0.00  0.00    +0.171 C 
ATOM     24  C   UNL     1     -37.598  21.625   2.290  0.00  0.00    +0.202 C 
BRANCH  22  25
ATOM     25  O   UNL     1     -39.238  23.370   2.287  0.00  0.00    -0.468 OA
ATOM     26  C   UNL     1     -39.715  24.524   2.977  0.00  0.00    +0.253 C 
ENDBRANCH  22  25
BRANCH  23  27
ATOM     27  O   UNL     1     -35.923  19.914   2.321  0.00  0.00    -0.503 OA
ATOM     28  H   UNL     1     -36.026  19.593   1.447  0.00  0.00    +0.292 HD
ENDBRANCH  23  27
BRANCH  24  29
ATOM     29  O   UNL     1     -38.456  20.796   1.630  0.00  0.00    -0.501 OA
ATOM     30  H   UNL     1     -38.367  19.867   1.715  0.00  0.00    +0.292 HD
ENDBRANCH  24  29
ENDBRANCH  18  19
ENDBRANCH   5  17
TORSDOF 8
ENDMDL
