MODEL 1
REMARK VINA RESULT:      -6.3      0.000      0.000
REMARK  Name = 5479774
REMARK  4 active torsions:
REMARK  status: ('A' for Active; 'I' for Inactive)
REMARK    1  A    between atoms: C_8  and  O_16
REMARK    2  A    between atoms: C_9  and  O_18
REMARK    3  A    between atoms: C_12  and  O_20
REMARK    4  A    between atoms: C_14  and  O_22
REMARK                            x       y       z     vdW  Elec       q    Type
REMARK                         _______ _______ _______ _____ _____    ______ ____
ROOT
ATOM      1  O   UNL     1     -38.029  23.713   2.248  0.00  0.00    -0.450 OA
ATOM      2  O   UNL     1     -35.466  20.710   3.324  0.00  0.00    -0.286 OA
ATOM      3  C   UNL     1     -37.184  21.452   1.874  0.00  0.00    +0.107 A 
ATOM      4  C   UNL     1     -36.254  22.882   3.706  0.00  0.00    +0.077 A 
ATOM      5  C   UNL     1     -37.151  23.867   3.292  0.00  0.00    +0.185 A 
ATOM      6  C   UNL     1     -38.027  22.520   1.567  0.00  0.00    +0.154 A 
ATOM      7  C   UNL     1     -36.236  21.597   2.990  0.00  0.00    +0.204 A 
ATOM      8  C   UNL     1     -37.241  20.268   1.135  0.00  0.00    +0.143 C 
ATOM      9  C   UNL     1     -37.185  25.095   3.957  0.00  0.00    +0.203 C 
ATOM     10  C   UNL     1     -35.390  23.114   4.779  0.00  0.00    +0.010 C 
ATOM     11  C   UNL     1     -38.934  22.403   0.512  0.00  0.00    +0.074 C 
ATOM     12  C   UNL     1     -36.324  25.331   5.029  0.00  0.00    +0.171 C 
ATOM     13  C   UNL     1     -38.148  20.157   0.081  0.00  0.00    +0.073 C 
ATOM     14  C   UNL     1     -38.993  21.223  -0.229  0.00  0.00    +0.140 C 
ATOM     15  C   UNL     1     -35.429  24.342   5.440  0.00  0.00    +0.040 C 
ENDROOT
BRANCH   8  16
ATOM     16  O   UNL     1     -36.437  19.199   1.397  0.00  0.00    -0.505 OA
ATOM     17  H   UNL     1     -35.718  19.288   1.992  0.00  0.00    +0.292 HD
ENDBRANCH   8  16
BRANCH   9  18
ATOM     18  O   UNL     1     -38.057  26.067   3.565  0.00  0.00    -0.501 OA
ATOM     19  H   UNL     1     -38.783  25.849   3.013  0.00  0.00    +0.292 HD
ENDBRANCH   9  18
BRANCH  12  20
ATOM     20  O   UNL     1     -36.348  26.524   5.687  0.00  0.00    -0.503 OA
ATOM     21  H   UNL     1     -35.555  27.008   5.809  0.00  0.00    +0.292 HD
ENDBRANCH  12  20
BRANCH  14  22
ATOM     22  O   UNL     1     -39.880  21.110  -1.257  0.00  0.00    -0.505 OA
ATOM     23  H   UNL     1     -39.619  20.696  -2.056  0.00  0.00    +0.292 HD
ENDBRANCH  14  22
TORSDOF 4
ENDMDL
MODEL 2
REMARK VINA RESULT:      -6.2      1.633      2.165
REMARK  Name = 5479774
REMARK  4 active torsions:
REMARK  status: ('A' for Active; 'I' for Inactive)
REMARK    1  A    between atoms: C_8  and  O_16
REMARK    2  A    between atoms: C_9  and  O_18
REMARK    3  A    between atoms: C_12  and  O_20
REMARK    4  A    between atoms: C_14  and  O_22
REMARK                            x       y       z     vdW  Elec       q    Type
REMARK                         _______ _______ _______ _____ _____    ______ ____
ROOT
ATOM      1  O   UNL     1     -37.820  25.010   3.681  0.00  0.00    -0.450 OA
ATOM      2  O   UNL     1     -36.104  21.364   2.970  0.00  0.00    -0.286 OA
ATOM      3  C   UNL     1     -37.938  22.817   2.611  0.00  0.00    +0.107 A 
ATOM      4  C   UNL     1     -35.961  23.459   4.006  0.00  0.00    +0.077 A 
ATOM      5  C   UNL     1     -36.597  24.684   4.213  0.00  0.00    +0.185 A 
ATOM      6  C   UNL     1     -38.459  24.079   2.898  0.00  0.00    +0.154 A 
ATOM      7  C   UNL     1     -36.629  22.448   3.171  0.00  0.00    +0.204 A 
ATOM      8  C   UNL     1     -38.648  21.923   1.806  0.00  0.00    +0.143 C 
ATOM      9  C   UNL     1     -35.981  25.658   5.001  0.00  0.00    +0.203 C 
ATOM     10  C   UNL     1     -34.715  23.201   4.582  0.00  0.00    +0.010 C 
ATOM     11  C   UNL     1     -39.699  24.450   2.377  0.00  0.00    +0.074 C 
ATOM     12  C   UNL     1     -34.736  25.404   5.578  0.00  0.00    +0.171 C 
ATOM     13  C   UNL     1     -39.887  22.300   1.287  0.00  0.00    +0.073 C 
ATOM     14  C   UNL     1     -40.412  23.560   1.572  0.00  0.00    +0.140 C 
ATOM     15  C   UNL     1     -34.105  24.178   5.369  0.00  0.00    +0.040 C 
ENDROOT
BRANCH   8  16
ATOM     16  O   UNL     1     -38.180  20.682   1.497  0.00  0.00    -0.505 OA
ATOM     17  H   UNL     1     -37.849  20.506   0.638  0.00  0.00    +0.292 HD
ENDBRANCH   8  16
BRANCH   9  18
ATOM     18  O   UNL     1     -36.591  26.859   5.213  0.00  0.00    -0.501 OA
ATOM     19  H   UNL     1     -36.587  27.511   4.539  0.00  0.00    +0.292 HD
ENDBRANCH   9  18
BRANCH  12  20
ATOM     20  O   UNL     1     -34.126  26.346   6.350  0.00  0.00    -0.503 OA
ATOM     21  H   UNL     1     -33.597  26.085   7.078  0.00  0.00    +0.292 HD
ENDBRANCH  12  20
BRANCH  14  22
ATOM     22  O   UNL     1     -41.623  23.923   1.066  0.00  0.00    -0.505 OA
ATOM     23  H   UNL     1     -42.368  23.370   1.196  0.00  0.00    +0.292 HD
ENDBRANCH  14  22
TORSDOF 4
ENDMDL
MODEL 3
REMARK VINA RESULT:      -6.0      1.523      6.199
REMARK  Name = 5479774
REMARK  4 active torsions:
REMARK  status: ('A' for Active; 'I' for Inactive)
REMARK    1  A    between atoms: C_8  and  O_16
REMARK    2  A    between atoms: C_9  and  O_18
REMARK    3  A    between atoms: C_12  and  O_20
REMARK    4  A    between atoms: C_14  and  O_22
REMARK                            x       y       z     vdW  Elec       q    Type
REMARK                         _______ _______ _______ _____ _____    ______ ____
ROOT
ATOM      1  O   UNL     1     -35.329  22.254   3.482  0.00  0.00    -0.450 OA
ATOM      2  O   UNL     1     -38.713  24.202   2.259  0.00  0.00    -0.286 OA
ATOM      3  C   UNL     1     -36.757  24.232   3.592  0.00  0.00    +0.107 A 
ATOM      4  C   UNL     1     -37.363  22.293   2.131  0.00  0.00    +0.077 A 
ATOM      5  C   UNL     1     -36.196  21.679   2.586  0.00  0.00    +0.185 A 
ATOM      6  C   UNL     1     -35.625  23.506   3.962  0.00  0.00    +0.154 A 
ATOM      7  C   UNL     1     -37.698  23.635   2.633  0.00  0.00    +0.204 A 
ATOM      8  C   UNL     1     -36.990  25.503   4.124  0.00  0.00    +0.143 C 
ATOM      9  C   UNL     1     -35.859  20.406   2.123  0.00  0.00    +0.203 C 
ATOM     10  C   UNL     1     -38.196  21.643   1.217  0.00  0.00    +0.010 C 
ATOM     11  C   UNL     1     -34.718  24.055   4.871  0.00  0.00    +0.074 C 
ATOM     12  C   UNL     1     -36.688  19.754   1.209  0.00  0.00    +0.171 C 
ATOM     13  C   UNL     1     -36.080  26.046   5.031  0.00  0.00    +0.073 C 
ATOM     14  C   UNL     1     -34.947  25.324   5.404  0.00  0.00    +0.140 C 
ATOM     15  C   UNL     1     -37.855  20.371   0.757  0.00  0.00    +0.040 C 
ENDROOT
BRANCH   8  16
ATOM     16  O   UNL     1     -38.080  26.250   3.793  0.00  0.00    -0.505 OA
ATOM     17  H   UNL     1     -37.985  27.167   3.622  0.00  0.00    +0.292 HD
ENDBRANCH   8  16
BRANCH   9  18
ATOM     18  O   UNL     1     -34.721  19.793   2.559  0.00  0.00    -0.501 OA
ATOM     19  H   UNL     1     -34.031  20.302   2.937  0.00  0.00    +0.292 HD
ENDBRANCH   9  18
BRANCH  12  20
ATOM     20  O   UNL     1     -36.370  18.510   0.750  0.00  0.00    -0.503 OA
ATOM     21  H   UNL     1     -35.533  18.355   0.360  0.00  0.00    +0.292 HD
ENDBRANCH  12  20
BRANCH  14  22
ATOM     22  O   UNL     1     -34.062  25.857   6.292  0.00  0.00    -0.505 OA
ATOM     23  H   UNL     1     -34.357  26.474   6.933  0.00  0.00    +0.292 HD
ENDBRANCH  14  22
TORSDOF 4
ENDMDL
MODEL 4
REMARK VINA RESULT:      -6.0      2.915      5.167
REMARK  Name = 5479774
REMARK  4 active torsions:
REMARK  status: ('A' for Active; 'I' for Inactive)
REMARK    1  A    between atoms: C_8  and  O_16
REMARK    2  A    between atoms: C_9  and  O_18
REMARK    3  A    between atoms: C_12  and  O_20
REMARK    4  A    between atoms: C_14  and  O_22
REMARK                            x       y       z     vdW  Elec       q    Type
REMARK                         _______ _______ _______ _____ _____    ______ ____
ROOT
ATOM      1  O   UNL     1     -36.278  23.966   2.314  0.00  0.00    -0.450 OA
ATOM      2  O   UNL     1     -35.026  26.912   4.864  0.00  0.00    -0.286 OA
ATOM      3  C   UNL     1     -35.873  26.339   2.729  0.00  0.00    +0.107 A 
ATOM      4  C   UNL     1     -35.405  24.630   4.497  0.00  0.00    +0.077 A 
ATOM      5  C   UNL     1     -35.843  23.671   3.583  0.00  0.00    +0.185 A 
ATOM      6  C   UNL     1     -36.284  25.282   1.918  0.00  0.00    +0.154 A 
ATOM      7  C   UNL     1     -35.404  26.044   4.092  0.00  0.00    +0.204 A 
ATOM      8  C   UNL     1     -35.908  27.653   2.254  0.00  0.00    +0.143 C 
ATOM      9  C   UNL     1     -35.853  22.323   3.946  0.00  0.00    +0.203 C 
ATOM     10  C   UNL     1     -34.977  24.251   5.772  0.00  0.00    +0.010 C 
ATOM     11  C   UNL     1     -36.733  25.539   0.621  0.00  0.00    +0.074 C 
ATOM     12  C   UNL     1     -35.427  21.941   5.219  0.00  0.00    +0.171 C 
ATOM     13  C   UNL     1     -36.359  27.904   0.958  0.00  0.00    +0.073 C 
ATOM     14  C   UNL     1     -36.770  26.849   0.143  0.00  0.00    +0.140 C 
ATOM     15  C   UNL     1     -34.989  22.903   6.129  0.00  0.00    +0.040 C 
ENDROOT
BRANCH   8  16
ATOM     16  O   UNL     1     -35.519  28.718   3.009  0.00  0.00    -0.505 OA
ATOM     17  H   UNL     1     -35.335  28.603   3.921  0.00  0.00    +0.292 HD
ENDBRANCH   8  16
BRANCH   9  18
ATOM     18  O   UNL     1     -36.277  21.375   3.063  0.00  0.00    -0.501 OA
ATOM     19  H   UNL     1     -36.869  20.704   3.344  0.00  0.00    +0.292 HD
ENDBRANCH   9  18
BRANCH  12  20
ATOM     20  O   UNL     1     -35.430  20.628   5.585  0.00  0.00    -0.503 OA
ATOM     21  H   UNL     1     -34.634  20.214   5.853  0.00  0.00    +0.292 HD
ENDBRANCH  12  20
BRANCH  14  22
ATOM     22  O   UNL     1     -37.207  27.098  -1.123  0.00  0.00    -0.505 OA
ATOM     23  H   UNL     1     -36.845  27.812  -1.610  0.00  0.00    +0.292 HD
ENDBRANCH  14  22
TORSDOF 4
ENDMDL
MODEL 5
REMARK VINA RESULT:      -5.8      4.315      6.108
REMARK  Name = 5479774
REMARK  4 active torsions:
REMARK  status: ('A' for Active; 'I' for Inactive)
REMARK    1  A    between atoms: C_8  and  O_16
REMARK    2  A    between atoms: C_9  and  O_18
REMARK    3  A    between atoms: C_12  and  O_20
REMARK    4  A    between atoms: C_14  and  O_22
REMARK                            x       y       z     vdW  Elec       q    Type
REMARK                         _______ _______ _______ _____ _____    ______ ____
ROOT
ATOM      1  O   UNL     1     -34.362  19.437   1.649  0.00  0.00    -0.450 OA
ATOM      2  O   UNL     1     -32.713  22.553  -0.426  0.00  0.00    -0.286 OA
ATOM      3  C   UNL     1     -32.492  20.330   0.356  0.00  0.00    +0.107 A 
ATOM      4  C   UNL     1     -34.522  21.724   0.808  0.00  0.00    +0.077 A 
ATOM      5  C   UNL     1     -35.031  20.627   1.503  0.00  0.00    +0.185 A 
ATOM      6  C   UNL     1     -33.119  19.314   1.078  0.00  0.00    +0.154 A 
ATOM      7  C   UNL     1     -33.192  21.613   0.189  0.00  0.00    +0.204 A 
ATOM      8  C   UNL     1     -31.224  20.130  -0.196  0.00  0.00    +0.143 C 
ATOM      9  C   UNL     1     -36.291  20.710   2.099  0.00  0.00    +0.203 C 
ATOM     10  C   UNL     1     -35.263  22.904   0.703  0.00  0.00    +0.010 C 
ATOM     11  C   UNL     1     -32.473  18.089   1.249  0.00  0.00    +0.074 C 
ATOM     12  C   UNL     1     -37.035  21.886   1.995  0.00  0.00    +0.171 C 
ATOM     13  C   UNL     1     -30.585  18.903  -0.022  0.00  0.00    +0.073 C 
ATOM     14  C   UNL     1     -31.207  17.884   0.699  0.00  0.00    +0.140 C 
ATOM     15  C   UNL     1     -36.522  22.981   1.299  0.00  0.00    +0.040 C 
ENDROOT
BRANCH   8  16
ATOM     16  O   UNL     1     -30.574  21.092  -0.909  0.00  0.00    -0.505 OA
ATOM     17  H   UNL     1     -30.037  21.721  -0.466  0.00  0.00    +0.292 HD
ENDBRANCH   8  16
BRANCH   9  18
ATOM     18  O   UNL     1     -36.801  19.646   2.783  0.00  0.00    -0.501 OA
ATOM     19  H   UNL     1     -36.237  19.116   3.312  0.00  0.00    +0.292 HD
ENDBRANCH   9  18
BRANCH  12  20
ATOM     20  O   UNL     1     -38.266  21.979   2.573  0.00  0.00    -0.503 OA
ATOM     21  H   UNL     1     -38.522  21.366   3.233  0.00  0.00    +0.292 HD
ENDBRANCH  12  20
BRANCH  14  22
ATOM     22  O   UNL     1     -30.578  16.689   0.869  0.00  0.00    -0.505 OA
ATOM     23  H   UNL     1     -30.137  16.502   1.674  0.00  0.00    +0.292 HD
ENDBRANCH  14  22
TORSDOF 4
ENDMDL
MODEL 6
REMARK VINA RESULT:      -5.8      3.495      5.893
REMARK  Name = 5479774
REMARK  4 active torsions:
REMARK  status: ('A' for Active; 'I' for Inactive)
REMARK    1  A    between atoms: C_8  and  O_16
REMARK    2  A    between atoms: C_9  and  O_18
REMARK    3  A    between atoms: C_12  and  O_20
REMARK    4  A    between atoms: C_14  and  O_22
REMARK                            x       y       z     vdW  Elec       q    Type
REMARK                         _______ _______ _______ _____ _____    ______ ____
ROOT
ATOM      1  O   UNL     1     -33.596  25.764   5.561  0.00  0.00    -0.450 OA
ATOM      2  O   UNL     1     -35.411  26.823   2.050  0.00  0.00    -0.286 OA
ATOM      3  C   UNL     1     -35.169  25.219   3.774  0.00  0.00    +0.107 A 
ATOM      4  C   UNL     1     -33.898  27.375   3.750  0.00  0.00    +0.077 A 
ATOM      5  C   UNL     1     -33.312  26.958   4.946  0.00  0.00    +0.185 A 
ATOM      6  C   UNL     1     -34.510  24.927   4.968  0.00  0.00    +0.154 A 
ATOM      7  C   UNL     1     -34.879  26.493   3.099  0.00  0.00    +0.204 A 
ATOM      8  C   UNL     1     -36.087  24.316   3.231  0.00  0.00    +0.143 C 
ATOM      9  C   UNL     1     -32.379  27.780   5.581  0.00  0.00    +0.203 C 
ATOM     10  C   UNL     1     -33.558  28.607   3.184  0.00  0.00    +0.010 C 
ATOM     11  C   UNL     1     -34.770  23.724   5.625  0.00  0.00    +0.074 C 
ATOM     12  C   UNL     1     -32.037  29.011   5.020  0.00  0.00    +0.171 C 
ATOM     13  C   UNL     1     -36.343  23.115   3.893  0.00  0.00    +0.073 C 
ATOM     14  C   UNL     1     -35.686  22.819   5.087  0.00  0.00    +0.140 C 
ATOM     15  C   UNL     1     -32.624  29.423   3.824  0.00  0.00    +0.040 C 
ENDROOT
BRANCH   8  16
ATOM     16  O   UNL     1     -36.755  24.557   2.069  0.00  0.00    -0.505 OA
ATOM     17  H   UNL     1     -36.298  24.907   1.329  0.00  0.00    +0.292 HD
ENDBRANCH   8  16
BRANCH   9  18
ATOM     18  O   UNL     1     -31.797  27.385   6.750  0.00  0.00    -0.501 OA
ATOM     19  H   UNL     1     -32.327  27.046   7.445  0.00  0.00    +0.292 HD
ENDBRANCH   9  18
BRANCH  12  20
ATOM     20  O   UNL     1     -31.126  29.821   5.630  0.00  0.00    -0.503 OA
ATOM     21  H   UNL     1     -30.425  30.194   5.134  0.00  0.00    +0.292 HD
ENDBRANCH  12  20
BRANCH  14  22
ATOM     22  O   UNL     1     -35.938  21.644   5.729  0.00  0.00    -0.505 OA
ATOM     23  H   UNL     1     -36.749  21.199   5.587  0.00  0.00    +0.292 HD
ENDBRANCH  14  22
TORSDOF 4
ENDMDL
MODEL 7
REMARK VINA RESULT:      -5.7      2.553      6.061
REMARK  Name = 5479774
REMARK  4 active torsions:
REMARK  status: ('A' for Active; 'I' for Inactive)
REMARK    1  A    between atoms: C_8  and  O_16
REMARK    2  A    between atoms: C_9  and  O_18
REMARK    3  A    between atoms: C_12  and  O_20
REMARK    4  A    between atoms: C_14  and  O_22
REMARK                            x       y       z     vdW  Elec       q    Type
REMARK                         _______ _______ _______ _____ _____    ______ ____
ROOT
ATOM      1  O   UNL     1     -36.067  22.499   3.096  0.00  0.00    -0.450 OA
ATOM      2  O   UNL     1     -33.458  24.317   0.521  0.00  0.00    -0.286 OA
ATOM      3  C   UNL     1     -34.852  24.508   2.425  0.00  0.00    +0.107 A 
ATOM      4  C   UNL     1     -34.608  22.373   1.142  0.00  0.00    +0.077 A 
ATOM      5  C   UNL     1     -35.503  21.810   2.051  0.00  0.00    +0.185 A 
ATOM      6  C   UNL     1     -35.733  23.821   3.260  0.00  0.00    +0.154 A 
ATOM      7  C   UNL     1     -34.237  23.788   1.299  0.00  0.00    +0.204 A 
ATOM      8  C   UNL     1     -34.561  25.855   2.655  0.00  0.00    +0.143 C 
ATOM      9  C   UNL     1     -35.869  20.468   1.920  0.00  0.00    +0.203 C 
ATOM     10  C   UNL     1     -34.075  21.606   0.102  0.00  0.00    +0.010 C 
ATOM     11  C   UNL     1     -36.328  24.485   4.334  0.00  0.00    +0.074 C 
ATOM     12  C   UNL     1     -35.339  19.698   0.884  0.00  0.00    +0.171 C 
ATOM     13  C   UNL     1     -35.158  26.513   3.731  0.00  0.00    +0.073 C 
ATOM     14  C   UNL     1     -36.039  25.830   4.568  0.00  0.00    +0.140 C 
ATOM     15  C   UNL     1     -34.444  20.267  -0.024  0.00  0.00    +0.040 C 
ENDROOT
BRANCH   8  16
ATOM     16  O   UNL     1     -33.707  26.568   1.868  0.00  0.00    -0.505 OA
ATOM     17  H   UNL     1     -33.843  27.487   1.742  0.00  0.00    +0.292 HD
ENDBRANCH   8  16
BRANCH   9  18
ATOM     18  O   UNL     1     -36.744  19.904   2.801  0.00  0.00    -0.501 OA
ATOM     19  H   UNL     1     -36.597  19.986   3.724  0.00  0.00    +0.292 HD
ENDBRANCH   9  18
BRANCH  12  20
ATOM     20  O   UNL     1     -35.688  18.389   0.746  0.00  0.00    -0.503 OA
ATOM     21  H   UNL     1     -35.192  17.723   1.178  0.00  0.00    +0.292 HD
ENDBRANCH  12  20
BRANCH  14  22
ATOM     22  O   UNL     1     -36.622  26.477   5.615  0.00  0.00    -0.505 OA
ATOM     23  H   UNL     1     -36.577  27.411   5.672  0.00  0.00    +0.292 HD
ENDBRANCH  14  22
TORSDOF 4
ENDMDL
MODEL 8
REMARK VINA RESULT:      -5.6      3.866      7.859
REMARK  Name = 5479774
REMARK  4 active torsions:
REMARK  status: ('A' for Active; 'I' for Inactive)
REMARK    1  A    between atoms: C_8  and  O_16
REMARK    2  A    between atoms: C_9  and  O_18
REMARK    3  A    between atoms: C_12  and  O_20
REMARK    4  A    between atoms: C_14  and  O_22
REMARK                            x       y       z     vdW  Elec       q    Type
REMARK                         _______ _______ _______ _____ _____    ______ ____
ROOT
ATOM      1  O   UNL     1     -33.857  25.639   5.786  0.00  0.00    -0.450 OA
ATOM      2  O   UNL     1     -33.547  27.182   2.009  0.00  0.00    -0.286 OA
ATOM      3  C   UNL     1     -33.026  27.397   4.308  0.00  0.00    +0.107 A 
ATOM      4  C   UNL     1     -34.355  25.481   3.400  0.00  0.00    +0.077 A 
ATOM      5  C   UNL     1     -34.427  25.005   4.709  0.00  0.00    +0.185 A 
ATOM      6  C   UNL     1     -33.175  26.810   5.564  0.00  0.00    +0.154 A 
ATOM      7  C   UNL     1     -33.629  26.734   3.142  0.00  0.00    +0.204 A 
ATOM      8  C   UNL     1     -32.317  28.592   4.162  0.00  0.00    +0.143 C 
ATOM      9  C   UNL     1     -35.111  23.817   4.977  0.00  0.00    +0.203 C 
ATOM     10  C   UNL     1     -34.962  24.778   2.355  0.00  0.00    +0.010 C 
ATOM     11  C   UNL     1     -32.611  27.423   6.685  0.00  0.00    +0.074 C 
ATOM     12  C   UNL     1     -35.718  23.112   3.937  0.00  0.00    +0.171 C 
ATOM     13  C   UNL     1     -31.754  29.199   5.285  0.00  0.00    +0.073 C 
ATOM     14  C   UNL     1     -31.901  28.616   6.544  0.00  0.00    +0.140 C 
ATOM     15  C   UNL     1     -35.644  23.592   2.629  0.00  0.00    +0.040 C 
ENDROOT
BRANCH   8  16
ATOM     16  O   UNL     1     -32.144  29.202   2.956  0.00  0.00    -0.505 OA
ATOM     17  H   UNL     1     -31.811  28.714   2.228  0.00  0.00    +0.292 HD
ENDBRANCH   8  16
BRANCH   9  18
ATOM     18  O   UNL     1     -35.191  23.341   6.252  0.00  0.00    -0.501 OA
ATOM     19  H   UNL     1     -34.699  23.751   6.936  0.00  0.00    +0.292 HD
ENDBRANCH   9  18
BRANCH  12  20
ATOM     20  O   UNL     1     -36.389  21.953   4.185  0.00  0.00    -0.503 OA
ATOM     21  H   UNL     1     -36.746  21.457   3.475  0.00  0.00    +0.292 HD
ENDBRANCH  12  20
BRANCH  14  22
ATOM     22  O   UNL     1     -31.353  29.213   7.638  0.00  0.00    -0.505 OA
ATOM     23  H   UNL     1     -31.723  29.067   8.486  0.00  0.00    +0.292 HD
ENDBRANCH  14  22
TORSDOF 4
ENDMDL
MODEL 9
REMARK VINA RESULT:      -5.6      3.230      6.982
REMARK  Name = 5479774
REMARK  4 active torsions:
REMARK  status: ('A' for Active; 'I' for Inactive)
REMARK    1  A    between atoms: C_8  and  O_16
REMARK    2  A    between atoms: C_9  and  O_18
REMARK    3  A    between atoms: C_12  and  O_20
REMARK    4  A    between atoms: C_14  and  O_22
REMARK                            x       y       z     vdW  Elec       q    Type
REMARK                         _______ _______ _______ _____ _____    ______ ____
ROOT
ATOM      1  O   UNL     1     -34.749  24.443   4.928  0.00  0.00    -0.450 OA
ATOM      2  O   UNL     1     -33.452  25.898   1.331  0.00  0.00    -0.286 OA
ATOM      3  C   UNL     1     -33.498  26.133   3.686  0.00  0.00    +0.107 A 
ATOM      4  C   UNL     1     -34.658  24.262   2.494  0.00  0.00    +0.077 A 
ATOM      5  C   UNL     1     -35.070  23.815   3.750  0.00  0.00    +0.185 A 
ATOM      6  C   UNL     1     -33.977  25.577   4.872  0.00  0.00    +0.154 A 
ATOM      7  C   UNL     1     -33.830  25.476   2.412  0.00  0.00    +0.204 A 
ATOM      8  C   UNL     1     -32.717  27.291   3.709  0.00  0.00    +0.143 C 
ATOM      9  C   UNL     1     -35.856  22.666   3.850  0.00  0.00    +0.203 C 
ATOM     10  C   UNL     1     -35.026  23.569   1.338  0.00  0.00    +0.010 C 
ATOM     11  C   UNL     1     -33.674  26.185   6.092  0.00  0.00    +0.074 C 
ATOM     12  C   UNL     1     -36.225  21.969   2.699  0.00  0.00    +0.171 C 
ATOM     13  C   UNL     1     -32.416  27.893   4.931  0.00  0.00    +0.073 C 
ATOM     14  C   UNL     1     -32.893  27.341   6.120  0.00  0.00    +0.140 C 
ATOM     15  C   UNL     1     -35.811  22.421   1.445  0.00  0.00    +0.040 C 
ENDROOT
BRANCH   8  16
ATOM     16  O   UNL     1     -32.226  27.869   2.578  0.00  0.00    -0.505 OA
ATOM     17  H   UNL     1     -32.790  28.378   2.029  0.00  0.00    +0.292 HD
ENDBRANCH   8  16
BRANCH   9  18
ATOM     18  O   UNL     1     -36.268  22.217   5.071  0.00  0.00    -0.501 OA
ATOM     19  H   UNL     1     -36.162  21.314   5.298  0.00  0.00    +0.292 HD
ENDBRANCH   9  18
BRANCH  12  20
ATOM     20  O   UNL     1     -36.993  20.847   2.784  0.00  0.00    -0.503 OA
ATOM     21  H   UNL     1     -37.180  20.348   2.014  0.00  0.00    +0.292 HD
ENDBRANCH  12  20
BRANCH  14  22
ATOM     22  O   UNL     1     -32.599  27.933   7.311  0.00  0.00    -0.505 OA
ATOM     23  H   UNL     1     -33.107  28.662   7.608  0.00  0.00    +0.292 HD
ENDBRANCH  14  22
TORSDOF 4
ENDMDL
