MODEL 1
REMARK VINA RESULT:      -5.6      0.000      0.000
REMARK  Name = 193204
REMARK  7 active torsions:
REMARK  status: ('A' for Active; 'I' for Inactive)
REMARK    1  A    between atoms: N_2  and  C_5
REMARK    2  A    between atoms: C_3  and  C_13
REMARK    3  A    between atoms: C_10  and  O_11
REMARK    4  A    between atoms: C_13  and  N_15
REMARK    5  A    between atoms: C_13  and  C_19
REMARK    6  A    between atoms: C_19  and  S_20
REMARK    7  A    between atoms: S_20  and  C_22
REMARK                            x       y       z     vdW  Elec       q    Type
REMARK                         _______ _______ _______ _____ _____    ______ ____
ROOT
ATOM      1  O   UNL     1     -32.302  27.069   6.575  0.00  0.00    -0.273 OA
ATOM      2  N   UNL     1     -33.532  27.274   4.588  0.00  0.00    -0.283 N 
ATOM      3  C   UNL     1     -32.614  27.675   5.554  0.00  0.00    +0.245 C 
ATOM      4  H   UNL     1     -33.646  27.877   3.819  0.00  0.00    +0.155 HD
ENDROOT
BRANCH   2   5
ATOM      5  C   UNL     1     -34.321  26.098   4.581  0.00  0.00    +0.051 C 
ATOM      6  C   UNL     1     -33.991  25.066   3.718  0.00  0.00    +0.018 C 
ATOM      7  C   UNL     1     -35.405  26.004   5.439  0.00  0.00    +0.018 C 
ATOM      8  C   UNL     1     -34.768  23.908   3.713  0.00  0.00    +0.038 C 
ATOM      9  C   UNL     1     -36.180  24.846   5.433  0.00  0.00    +0.038 C 
ATOM     10  C   UNL     1     -35.863  23.798   4.570  0.00  0.00    +0.134 C 
BRANCH  10  11
ATOM     11  O   UNL     1     -36.620  22.666   4.565  0.00  0.00    -0.506 OA
ATOM     12  H   UNL     1     -36.385  21.943   5.112  0.00  0.00    +0.292 HD
ENDBRANCH  10  11
ENDBRANCH   2   5
BRANCH   3  13
ATOM     13  C   UNL     1     -31.970  29.015   5.182  0.00  0.00    +0.160 C 
BRANCH  13  15
ATOM     14  O   UNL     1     -31.798  30.624   2.773  0.00  0.00    -0.275 OA
ATOM     15  N   UNL     1     -32.981  29.886   4.638  0.00  0.00    -0.298 N 
ATOM     16  C   UNL     1     -32.807  30.619   3.474  0.00  0.00    +0.223 C 
ATOM     17  C   UNL     1     -34.027  31.426   3.118  0.00  0.00    +0.095 C 
ATOM     18  H   UNL     1     -33.837  29.964   5.117  0.00  0.00    +0.150 HD
ENDBRANCH  13  15
BRANCH  13  19
ATOM     19  C   UNL     1     -31.206  29.663   6.339  0.00  0.00    +0.094 C 
BRANCH  19  20
ATOM     20  S   UNL     1     -29.435  29.918   5.995  0.00  0.00    -0.075 S 
BRANCH  20  22
ATOM     21  O   UNL     1     -29.007  27.319   6.234  0.00  0.00    -0.285 OA
ATOM     22  C   UNL     1     -28.775  28.437   6.679  0.00  0.00    +0.199 C 
ATOM     23  C   UNL     1     -27.893  28.678   7.871  0.00  0.00    +0.085 C 
ENDBRANCH  20  22
ENDBRANCH  19  20
ENDBRANCH  13  19
ENDBRANCH   3  13
TORSDOF 7
ENDMDL
MODEL 2
REMARK VINA RESULT:      -5.5      5.208      8.839
REMARK  Name = 193204
REMARK  7 active torsions:
REMARK  status: ('A' for Active; 'I' for Inactive)
REMARK    1  A    between atoms: N_2  and  C_5
REMARK    2  A    between atoms: C_3  and  C_13
REMARK    3  A    between atoms: C_10  and  O_11
REMARK    4  A    between atoms: C_13  and  N_15
REMARK    5  A    between atoms: C_13  and  C_19
REMARK    6  A    between atoms: C_19  and  S_20
REMARK    7  A    between atoms: S_20  and  C_22
REMARK                            x       y       z     vdW  Elec       q    Type
REMARK                         _______ _______ _______ _____ _____    ______ ____
ROOT
ATOM      1  O   UNL     1     -37.250  24.162   1.333  0.00  0.00    -0.273 OA
ATOM      2  N   UNL     1     -37.086  23.144   3.441  0.00  0.00    -0.283 N 
ATOM      3  C   UNL     1     -37.531  23.269   2.128  0.00  0.00    +0.245 C 
ATOM      4  H   UNL     1     -37.397  22.351   3.933  0.00  0.00    +0.155 HD
ENDROOT
BRANCH   2   5
ATOM      5  C   UNL     1     -36.238  24.027   4.153  0.00  0.00    +0.051 C 
ATOM      6  C   UNL     1     -34.879  23.763   4.206  0.00  0.00    +0.018 C 
ATOM      7  C   UNL     1     -36.784  25.134   4.780  0.00  0.00    +0.018 C 
ATOM      8  C   UNL     1     -34.043  24.633   4.907  0.00  0.00    +0.038 C 
ATOM      9  C   UNL     1     -35.948  26.003   5.480  0.00  0.00    +0.038 C 
ATOM     10  C   UNL     1     -34.578  25.753   5.544  0.00  0.00    +0.134 C 
BRANCH  10  11
ATOM     11  O   UNL     1     -33.762  26.602   6.227  0.00  0.00    -0.506 OA
ATOM     12  H   UNL     1     -32.837  26.583   6.079  0.00  0.00    +0.292 HD
ENDBRANCH  10  11
ENDBRANCH   2   5
BRANCH   3  13
ATOM     13  C   UNL     1     -38.436  22.096   1.737  0.00  0.00    +0.160 C 
BRANCH  13  15
ATOM     14  O   UNL     1     -40.907  20.960   0.724  0.00  0.00    -0.275 OA
ATOM     15  N   UNL     1     -39.099  22.410   0.497  0.00  0.00    -0.298 N 
ATOM     16  C   UNL     1     -40.283  21.812   0.095  0.00  0.00    +0.223 C 
ATOM     17  C   UNL     1     -40.772  22.339  -1.228  0.00  0.00    +0.095 C 
ATOM     18  H   UNL     1     -38.690  23.082  -0.095  0.00  0.00    +0.150 HD
ENDBRANCH  13  15
BRANCH  13  19
ATOM     19  C   UNL     1     -37.701  20.755   1.680  0.00  0.00    +0.094 C 
BRANCH  19  20
ATOM     20  S   UNL     1     -36.112  20.830   0.792  0.00  0.00    -0.075 S 
BRANCH  20  22
ATOM     21  O   UNL     1     -35.195  20.467   3.246  0.00  0.00    -0.285 OA
ATOM     22  C   UNL     1     -35.030  20.246   2.052  0.00  0.00    +0.199 C 
ATOM     23  C   UNL     1     -33.877  19.445   1.518  0.00  0.00    +0.085 C 
ENDBRANCH  20  22
ENDBRANCH  19  20
ENDBRANCH  13  19
ENDBRANCH   3  13
TORSDOF 7
ENDMDL
MODEL 3
REMARK VINA RESULT:      -5.4      1.359      3.814
REMARK  Name = 193204
REMARK  7 active torsions:
REMARK  status: ('A' for Active; 'I' for Inactive)
REMARK    1  A    between atoms: N_2  and  C_5
REMARK    2  A    between atoms: C_3  and  C_13
REMARK    3  A    between atoms: C_10  and  O_11
REMARK    4  A    between atoms: C_13  and  N_15
REMARK    5  A    between atoms: C_13  and  C_19
REMARK    6  A    between atoms: C_19  and  S_20
REMARK    7  A    between atoms: S_20  and  C_22
REMARK                            x       y       z     vdW  Elec       q    Type
REMARK                         _______ _______ _______ _____ _____    ______ ____
ROOT
ATOM      1  O   UNL     1     -32.416  26.799   7.115  0.00  0.00    -0.273 OA
ATOM      2  N   UNL     1     -33.429  27.240   5.045  0.00  0.00    -0.283 N 
ATOM      3  C   UNL     1     -32.598  27.508   6.129  0.00  0.00    +0.245 C 
ATOM      4  H   UNL     1     -33.439  27.914   4.328  0.00  0.00    +0.155 HD
ENDROOT
BRANCH   2   5
ATOM      5  C   UNL     1     -34.261  26.112   4.853  0.00  0.00    +0.051 C 
ATOM      6  C   UNL     1     -33.880  25.136   3.946  0.00  0.00    +0.018 C 
ATOM      7  C   UNL     1     -35.438  26.006   5.576  0.00  0.00    +0.018 C 
ATOM      8  C   UNL     1     -34.700  24.023   3.758  0.00  0.00    +0.038 C 
ATOM      9  C   UNL     1     -36.257  24.894   5.387  0.00  0.00    +0.038 C 
ATOM     10  C   UNL     1     -35.889  23.903   4.478  0.00  0.00    +0.134 C 
BRANCH  10  11
ATOM     11  O   UNL     1     -36.688  22.816   4.294  0.00  0.00    -0.506 OA
ATOM     12  H   UNL     1     -36.389  22.097   3.773  0.00  0.00    +0.292 HD
ENDBRANCH  10  11
ENDBRANCH   2   5
BRANCH   3  13
ATOM     13  C   UNL     1     -31.864  28.841   5.947  0.00  0.00    +0.160 C 
BRANCH  13  15
ATOM     14  O   UNL     1     -29.351  27.621   5.158  0.00  0.00    -0.275 OA
ATOM     15  N   UNL     1     -30.634  28.804   6.699  0.00  0.00    -0.298 N 
ATOM     16  C   UNL     1     -29.478  28.194   6.237  0.00  0.00    +0.223 C 
ATOM     17  C   UNL     1     -28.335  28.323   7.208  0.00  0.00    +0.095 C 
ATOM     18  H   UNL     1     -30.615  29.233   7.584  0.00  0.00    +0.150 HD
ENDBRANCH  13  15
BRANCH  13  19
ATOM     19  C   UNL     1     -31.636  29.214   4.481  0.00  0.00    +0.094 C 
BRANCH  19  20
ATOM     20  S   UNL     1     -32.072  30.939   4.089  0.00  0.00    -0.075 S 
BRANCH  20  22
ATOM     21  O   UNL     1     -34.343  29.695   3.550  0.00  0.00    -0.285 OA
ATOM     22  C   UNL     1     -33.661  30.696   3.370  0.00  0.00    +0.199 C 
ATOM     23  C   UNL     1     -34.101  31.843   2.506  0.00  0.00    +0.085 C 
ENDBRANCH  20  22
ENDBRANCH  19  20
ENDBRANCH  13  19
ENDBRANCH   3  13
TORSDOF 7
ENDMDL
MODEL 4
REMARK VINA RESULT:      -5.3      3.321      5.306
REMARK  Name = 193204
REMARK  7 active torsions:
REMARK  status: ('A' for Active; 'I' for Inactive)
REMARK    1  A    between atoms: N_2  and  C_5
REMARK    2  A    between atoms: C_3  and  C_13
REMARK    3  A    between atoms: C_10  and  O_11
REMARK    4  A    between atoms: C_13  and  N_15
REMARK    5  A    between atoms: C_13  and  C_19
REMARK    6  A    between atoms: C_19  and  S_20
REMARK    7  A    between atoms: S_20  and  C_22
REMARK                            x       y       z     vdW  Elec       q    Type
REMARK                         _______ _______ _______ _____ _____    ______ ____
ROOT
ATOM      1  O   UNL     1     -32.890  26.348   4.037  0.00  0.00    -0.273 OA
ATOM      2  N   UNL     1     -35.162  25.814   3.786  0.00  0.00    -0.283 N 
ATOM      3  C   UNL     1     -34.040  26.635   3.713  0.00  0.00    +0.245 C 
ATOM      4  H   UNL     1     -36.006  26.203   3.463  0.00  0.00    +0.155 HD
ENDROOT
BRANCH   2   5
ATOM      5  C   UNL     1     -35.230  24.485   4.269  0.00  0.00    +0.051 C 
ATOM      6  C   UNL     1     -35.138  24.256   5.632  0.00  0.00    +0.018 C 
ATOM      7  C   UNL     1     -35.388  23.444   3.369  0.00  0.00    +0.018 C 
ATOM      8  C   UNL     1     -35.206  22.946   6.108  0.00  0.00    +0.038 C 
ATOM      9  C   UNL     1     -35.456  22.136   3.845  0.00  0.00    +0.038 C 
ATOM     10  C   UNL     1     -35.364  21.886   5.214  0.00  0.00    +0.134 C 
BRANCH  10  11
ATOM     11  O   UNL     1     -35.431  20.608   5.680  0.00  0.00    -0.506 OA
ATOM     12  H   UNL     1     -35.357  20.440   6.598  0.00  0.00    +0.292 HD
ENDBRANCH  10  11
ENDBRANCH   2   5
BRANCH   3  13
ATOM     13  C   UNL     1     -34.394  28.005   3.126  0.00  0.00    +0.160 C 
BRANCH  13  15
ATOM     14  O   UNL     1     -34.689  30.838   3.690  0.00  0.00    -0.275 OA
ATOM     15  N   UNL     1     -33.353  28.943   3.466  0.00  0.00    -0.298 N 
ATOM     16  C   UNL     1     -33.592  30.285   3.719  0.00  0.00    +0.223 C 
ATOM     17  C   UNL     1     -32.334  31.034   4.073  0.00  0.00    +0.095 C 
ATOM     18  H   UNL     1     -32.427  28.614   3.520  0.00  0.00    +0.150 HD
ENDBRANCH  13  15
BRANCH  13  19
ATOM     19  C   UNL     1     -34.673  27.967   1.622  0.00  0.00    +0.094 C 
BRANCH  19  20
ATOM     20  S   UNL     1     -36.260  28.731   1.154  0.00  0.00    -0.075 S 
BRANCH  20  22
ATOM     21  O   UNL     1     -37.680  26.788   2.251  0.00  0.00    -0.285 OA
ATOM     22  C   UNL     1     -37.307  27.318   1.211  0.00  0.00    +0.199 C 
ATOM     23  C   UNL     1     -37.702  26.819  -0.150  0.00  0.00    +0.085 C 
ENDBRANCH  20  22
ENDBRANCH  19  20
ENDBRANCH  13  19
ENDBRANCH   3  13
TORSDOF 7
ENDMDL
MODEL 5
REMARK VINA RESULT:      -5.3      6.005      9.626
REMARK  Name = 193204
REMARK  7 active torsions:
REMARK  status: ('A' for Active; 'I' for Inactive)
REMARK    1  A    between atoms: N_2  and  C_5
REMARK    2  A    between atoms: C_3  and  C_13
REMARK    3  A    between atoms: C_10  and  O_11
REMARK    4  A    between atoms: C_13  and  N_15
REMARK    5  A    between atoms: C_13  and  C_19
REMARK    6  A    between atoms: C_19  and  S_20
REMARK    7  A    between atoms: S_20  and  C_22
REMARK                            x       y       z     vdW  Elec       q    Type
REMARK                         _______ _______ _______ _____ _____    ______ ____
ROOT
ATOM      1  O   UNL     1     -35.424  20.517   3.626  0.00  0.00    -0.273 OA
ATOM      2  N   UNL     1     -35.689  22.353   2.188  0.00  0.00    -0.283 N 
ATOM      3  C   UNL     1     -35.472  21.014   2.504  0.00  0.00    +0.245 C 
ATOM      4  H   UNL     1     -35.716  22.575   1.230  0.00  0.00    +0.155 HD
ENDROOT
BRANCH   2   5
ATOM      5  C   UNL     1     -35.876  23.432   3.085  0.00  0.00    +0.051 C 
ATOM      6  C   UNL     1     -37.122  24.032   3.171  0.00  0.00    +0.018 C 
ATOM      7  C   UNL     1     -34.811  23.864   3.858  0.00  0.00    +0.018 C 
ATOM      8  C   UNL     1     -37.306  25.096   4.055  0.00  0.00    +0.038 C 
ATOM      9  C   UNL     1     -34.996  24.927   4.741  0.00  0.00    +0.038 C 
ATOM     10  C   UNL     1     -36.243  25.543   4.839  0.00  0.00    +0.134 C 
BRANCH  10  11
ATOM     11  O   UNL     1     -36.424  26.580   5.703  0.00  0.00    -0.506 OA
ATOM     12  H   UNL     1     -37.098  26.536   6.353  0.00  0.00    +0.292 HD
ENDBRANCH  10  11
ENDBRANCH   2   5
BRANCH   3  13
ATOM     13  C   UNL     1     -35.319  20.165   1.238  0.00  0.00    +0.160 C 
BRANCH  13  15
ATOM     14  O   UNL     1     -32.542  20.208   0.396  0.00  0.00    -0.275 OA
ATOM     15  N   UNL     1     -34.319  19.154   1.471  0.00  0.00    -0.298 N 
ATOM     16  C   UNL     1     -33.010  19.263   1.028  0.00  0.00    +0.223 C 
ATOM     17  C   UNL     1     -32.169  18.079   1.426  0.00  0.00    +0.095 C 
ATOM     18  H   UNL     1     -34.578  18.346   1.969  0.00  0.00    +0.150 HD
ENDBRANCH  13  15
BRANCH  13  19
ATOM     19  C   UNL     1     -36.640  19.572   0.742  0.00  0.00    +0.094 C 
BRANCH  19  20
ATOM     20  S   UNL     1     -37.562  20.675  -0.377  0.00  0.00    -0.075 S 
BRANCH  20  22
ATOM     21  O   UNL     1     -38.788  21.367   1.862  0.00  0.00    -0.285 OA
ATOM     22  C   UNL     1     -38.908  21.116   0.669  0.00  0.00    +0.199 C 
ATOM     23  C   UNL     1     -40.227  21.154  -0.049  0.00  0.00    +0.085 C 
ENDBRANCH  20  22
ENDBRANCH  19  20
ENDBRANCH  13  19
ENDBRANCH   3  13
TORSDOF 7
ENDMDL
MODEL 6
REMARK VINA RESULT:      -5.2      2.817      4.676
REMARK  Name = 193204
REMARK  7 active torsions:
REMARK  status: ('A' for Active; 'I' for Inactive)
REMARK    1  A    between atoms: N_2  and  C_5
REMARK    2  A    between atoms: C_3  and  C_13
REMARK    3  A    between atoms: C_10  and  O_11
REMARK    4  A    between atoms: C_13  and  N_15
REMARK    5  A    between atoms: C_13  and  C_19
REMARK    6  A    between atoms: C_19  and  S_20
REMARK    7  A    between atoms: S_20  and  C_22
REMARK                            x       y       z     vdW  Elec       q    Type
REMARK                         _______ _______ _______ _____ _____    ______ ____
ROOT
ATOM      1  O   UNL     1     -32.708  26.008   3.399  0.00  0.00    -0.273 OA
ATOM      2  N   UNL     1     -34.913  25.945   4.200  0.00  0.00    -0.283 N 
ATOM      3  C   UNL     1     -33.777  26.550   3.670  0.00  0.00    +0.245 C 
ATOM      4  H   UNL     1     -35.693  26.529   4.337  0.00  0.00    +0.155 HD
ENDROOT
BRANCH   2   5
ATOM      5  C   UNL     1     -35.078  24.587   4.564  0.00  0.00    +0.051 C 
ATOM      6  C   UNL     1     -35.021  24.234   5.902  0.00  0.00    +0.018 C 
ATOM      7  C   UNL     1     -35.294  23.641   3.575  0.00  0.00    +0.018 C 
ATOM      8  C   UNL     1     -35.185  22.895   6.261  0.00  0.00    +0.038 C 
ATOM      9  C   UNL     1     -35.457  22.304   3.935  0.00  0.00    +0.038 C 
ATOM     10  C   UNL     1     -35.402  21.931   5.277  0.00  0.00    +0.134 C 
BRANCH  10  11
ATOM     11  O   UNL     1     -35.562  20.625   5.629  0.00  0.00    -0.506 OA
ATOM     12  H   UNL     1     -36.008  20.036   5.051  0.00  0.00    +0.292 HD
ENDBRANCH  10  11
ENDBRANCH   2   5
BRANCH   3  13
ATOM     13  C   UNL     1     -34.013  28.042   3.414  0.00  0.00    +0.160 C 
BRANCH  13  15
ATOM     14  O   UNL     1     -32.561  29.399   5.529  0.00  0.00    -0.275 OA
ATOM     15  N   UNL     1     -32.739  28.707   3.312  0.00  0.00    -0.298 N 
ATOM     16  C   UNL     1     -32.119  29.331   4.384  0.00  0.00    +0.223 C 
ATOM     17  C   UNL     1     -30.787  29.925   4.010  0.00  0.00    +0.095 C 
ATOM     18  H   UNL     1     -32.285  28.718   2.439  0.00  0.00    +0.150 HD
ENDBRANCH  13  15
BRANCH  13  19
ATOM     19  C   UNL     1     -34.909  28.315   2.203  0.00  0.00    +0.094 C 
BRANCH  19  20
ATOM     20  S   UNL     1     -34.637  29.952   1.448  0.00  0.00    -0.075 S 
BRANCH  20  22
ATOM     21  O   UNL     1     -35.350  31.028   3.757  0.00  0.00    -0.285 OA
ATOM     22  C   UNL     1     -35.569  30.956   2.553  0.00  0.00    +0.199 C 
ATOM     23  C   UNL     1     -36.669  31.721   1.873  0.00  0.00    +0.085 C 
ENDBRANCH  20  22
ENDBRANCH  19  20
ENDBRANCH  13  19
ENDBRANCH   3  13
TORSDOF 7
ENDMDL
MODEL 7
REMARK VINA RESULT:      -5.2      2.875      3.626
REMARK  Name = 193204
REMARK  7 active torsions:
REMARK  status: ('A' for Active; 'I' for Inactive)
REMARK    1  A    between atoms: N_2  and  C_5
REMARK    2  A    between atoms: C_3  and  C_13
REMARK    3  A    between atoms: C_10  and  O_11
REMARK    4  A    between atoms: C_13  and  N_15
REMARK    5  A    between atoms: C_13  and  C_19
REMARK    6  A    between atoms: C_19  and  S_20
REMARK    7  A    between atoms: S_20  and  C_22
REMARK                            x       y       z     vdW  Elec       q    Type
REMARK                         _______ _______ _______ _____ _____    ______ ____
ROOT
ATOM      1  O   UNL     1     -35.452  26.980   4.700  0.00  0.00    -0.273 OA
ATOM      2  N   UNL     1     -34.466  25.391   3.282  0.00  0.00    -0.283 N 
ATOM      3  C   UNL     1     -34.827  26.672   3.688  0.00  0.00    +0.245 C 
ATOM      4  H   UNL     1     -33.946  25.329   2.449  0.00  0.00    +0.155 HD
ENDROOT
BRANCH   2   5
ATOM      5  C   UNL     1     -34.760  24.166   3.927  0.00  0.00    +0.051 C 
ATOM      6  C   UNL     1     -35.234  23.102   3.177  0.00  0.00    +0.018 C 
ATOM      7  C   UNL     1     -34.567  24.056   5.295  0.00  0.00    +0.018 C 
ATOM      8  C   UNL     1     -35.523  21.894   3.813  0.00  0.00    +0.038 C 
ATOM      9  C   UNL     1     -34.855  22.849   5.929  0.00  0.00    +0.038 C 
ATOM     10  C   UNL     1     -35.334  21.768   5.189  0.00  0.00    +0.134 C 
BRANCH  10  11
ATOM     11  O   UNL     1     -35.615  20.589   5.809  0.00  0.00    -0.506 OA
ATOM     12  H   UNL     1     -35.348  19.780   5.420  0.00  0.00    +0.292 HD
ENDBRANCH  10  11
ENDBRANCH   2   5
BRANCH   3  13
ATOM     13  C   UNL     1     -34.311  27.730   2.707  0.00  0.00    +0.160 C 
BRANCH  13  15
ATOM     14  O   UNL     1     -35.768  26.616   0.456  0.00  0.00    -0.275 OA
ATOM     15  N   UNL     1     -35.433  28.314   2.015  0.00  0.00    -0.298 N 
ATOM     16  C   UNL     1     -36.068  27.703   0.944  0.00  0.00    +0.223 C 
ATOM     17  C   UNL     1     -37.223  28.516   0.424  0.00  0.00    +0.095 C 
ATOM     18  H   UNL     1     -35.764  29.189   2.318  0.00  0.00    +0.150 HD
ENDBRANCH  13  15
BRANCH  13  19
ATOM     19  C   UNL     1     -33.421  28.786   3.365  0.00  0.00    +0.094 C 
BRANCH  19  20
ATOM     20  S   UNL     1     -31.911  28.101   4.121  0.00  0.00    -0.075 S 
BRANCH  20  22
ATOM     21  O   UNL     1     -32.155  29.660   6.244  0.00  0.00    -0.285 OA
ATOM     22  C   UNL     1     -32.199  28.516   5.808  0.00  0.00    +0.199 C 
ATOM     23  C   UNL     1     -32.505  27.322   6.666  0.00  0.00    +0.085 C 
ENDBRANCH  20  22
ENDBRANCH  19  20
ENDBRANCH  13  19
ENDBRANCH   3  13
TORSDOF 7
ENDMDL
MODEL 8
REMARK VINA RESULT:      -5.2      2.069      4.355
REMARK  Name = 193204
REMARK  7 active torsions:
REMARK  status: ('A' for Active; 'I' for Inactive)
REMARK    1  A    between atoms: N_2  and  C_5
REMARK    2  A    between atoms: C_3  and  C_13
REMARK    3  A    between atoms: C_10  and  O_11
REMARK    4  A    between atoms: C_13  and  N_15
REMARK    5  A    between atoms: C_13  and  C_19
REMARK    6  A    between atoms: C_19  and  S_20
REMARK    7  A    between atoms: S_20  and  C_22
REMARK                            x       y       z     vdW  Elec       q    Type
REMARK                         _______ _______ _______ _____ _____    ______ ____
ROOT
ATOM      1  O   UNL     1     -31.927  26.867   3.530  0.00  0.00    -0.273 OA
ATOM      2  N   UNL     1     -34.026  27.340   4.467  0.00  0.00    -0.283 N 
ATOM      3  C   UNL     1     -32.737  27.640   4.036  0.00  0.00    +0.245 C 
ATOM      4  H   UNL     1     -34.548  28.089   4.832  0.00  0.00    +0.155 HD
ENDROOT
BRANCH   2   5
ATOM      5  C   UNL     1     -34.674  26.081   4.441  0.00  0.00    +0.051 C 
ATOM      6  C   UNL     1     -34.600  25.259   5.553  0.00  0.00    +0.018 C 
ATOM      7  C   UNL     1     -35.369  25.700   3.305  0.00  0.00    +0.018 C 
ATOM      8  C   UNL     1     -35.240  24.019   5.527  0.00  0.00    +0.038 C 
ATOM      9  C   UNL     1     -36.008  24.461   3.280  0.00  0.00    +0.038 C 
ATOM     10  C   UNL     1     -35.943  23.621   4.391  0.00  0.00    +0.134 C 
BRANCH  10  11
ATOM     11  O   UNL     1     -36.568  22.411   4.367  0.00  0.00    -0.506 OA
ATOM     12  H   UNL     1     -37.169  22.208   3.677  0.00  0.00    +0.292 HD
ENDBRANCH  10  11
ENDBRANCH   2   5
BRANCH   3  13
ATOM     13  C   UNL     1     -32.417  29.125   4.238  0.00  0.00    +0.160 C 
BRANCH  13  15
ATOM     14  O   UNL     1     -31.762  29.307   7.060  0.00  0.00    -0.275 OA
ATOM     15  N   UNL     1     -31.107  29.246   4.826  0.00  0.00    -0.298 N 
ATOM     16  C   UNL     1     -30.891  29.327   6.193  0.00  0.00    +0.223 C 
ATOM     17  C   UNL     1     -29.429  29.422   6.538  0.00  0.00    +0.095 C 
ATOM     18  H   UNL     1     -30.327  29.273   4.227  0.00  0.00    +0.150 HD
ENDBRANCH  13  15
BRANCH  13  19
ATOM     19  C   UNL     1     -32.560  29.956   2.961  0.00  0.00    +0.094 C 
BRANCH  19  20
ATOM     20  S   UNL     1     -33.771  31.310   3.102  0.00  0.00    -0.075 S 
BRANCH  20  22
ATOM     21  O   UNL     1     -35.312  29.278   2.404  0.00  0.00    -0.285 OA
ATOM     22  C   UNL     1     -35.212  30.495   2.505  0.00  0.00    +0.199 C 
ATOM     23  C   UNL     1     -36.314  31.442   2.126  0.00  0.00    +0.085 C 
ENDBRANCH  20  22
ENDBRANCH  19  20
ENDBRANCH  13  19
ENDBRANCH   3  13
TORSDOF 7
ENDMDL
MODEL 9
REMARK VINA RESULT:      -5.1      4.031      5.631
REMARK  Name = 193204
REMARK  7 active torsions:
REMARK  status: ('A' for Active; 'I' for Inactive)
REMARK    1  A    between atoms: N_2  and  C_5
REMARK    2  A    between atoms: C_3  and  C_13
REMARK    3  A    between atoms: C_10  and  O_11
REMARK    4  A    between atoms: C_13  and  N_15
REMARK    5  A    between atoms: C_13  and  C_19
REMARK    6  A    between atoms: C_19  and  S_20
REMARK    7  A    between atoms: S_20  and  C_22
REMARK                            x       y       z     vdW  Elec       q    Type
REMARK                         _______ _______ _______ _____ _____    ______ ____
ROOT
ATOM      1  O   UNL     1     -35.603  25.981   1.280  0.00  0.00    -0.273 OA
ATOM      2  N   UNL     1     -37.142  26.302   3.023  0.00  0.00    -0.283 N 
ATOM      3  C   UNL     1     -35.898  26.384   2.402  0.00  0.00    +0.245 C 
ATOM      4  H   UNL     1     -37.206  26.696   3.922  0.00  0.00    +0.155 HD
ENDROOT
BRANCH   2   5
ATOM      5  C   UNL     1     -38.325  25.717   2.511  0.00  0.00    +0.051 C 
ATOM      6  C   UNL     1     -39.064  26.405   1.562  0.00  0.00    +0.018 C 
ATOM      7  C   UNL     1     -38.718  24.470   2.969  0.00  0.00    +0.018 C 
ATOM      8  C   UNL     1     -40.230  25.827   1.058  0.00  0.00    +0.038 C 
ATOM      9  C   UNL     1     -39.882  23.894   2.463  0.00  0.00    +0.038 C 
ATOM     10  C   UNL     1     -40.639  24.573   1.509  0.00  0.00    +0.134 C 
BRANCH  10  11
ATOM     11  O   UNL     1     -41.776  24.009   1.015  0.00  0.00    -0.506 OA
ATOM     12  H   UNL     1     -42.200  24.387   0.270  0.00  0.00    +0.292 HD
ENDBRANCH  10  11
ENDBRANCH   2   5
BRANCH   3  13
ATOM     13  C   UNL     1     -34.880  27.097   3.297  0.00  0.00    +0.160 C 
BRANCH  13  15
ATOM     14  O   UNL     1     -34.079  29.332   1.627  0.00  0.00    -0.275 OA
ATOM     15  N   UNL     1     -35.267  28.478   3.439  0.00  0.00    -0.298 N 
ATOM     16  C   UNL     1     -34.831  29.482   2.587  0.00  0.00    +0.223 C 
ATOM     17  C   UNL     1     -35.405  30.827   2.945  0.00  0.00    +0.095 C 
ATOM     18  H   UNL     1     -35.870  28.721   4.177  0.00  0.00    +0.150 HD
ENDBRANCH  13  15
BRANCH  13  19
ATOM     19  C   UNL     1     -34.674  26.410   4.649  0.00  0.00    +0.094 C 
BRANCH  19  20
ATOM     20  S   UNL     1     -34.103  24.685   4.513  0.00  0.00    -0.075 S 
BRANCH  20  22
ATOM     21  O   UNL     1     -36.572  24.320   5.387  0.00  0.00    -0.285 OA
ATOM     22  C   UNL     1     -35.441  23.858   5.303  0.00  0.00    +0.199 C 
ATOM     23  C   UNL     1     -35.057  22.521   5.871  0.00  0.00    +0.085 C 
ENDBRANCH  20  22
ENDBRANCH  19  20
ENDBRANCH  13  19
ENDBRANCH   3  13
TORSDOF 7
ENDMDL
