MODEL 1
REMARK VINA RESULT:      -6.3      0.000      0.000
REMARK  Name = 21146285
REMARK  4 active torsions:
REMARK  status: ('A' for Active; 'I' for Inactive)
REMARK    1  A    between atoms: C_11  and  C_25
REMARK    2  A    between atoms: C_14  and  O_23
REMARK    3  A    between atoms: C_25  and  C_28
REMARK    4  A    between atoms: C_28  and  O_29
REMARK                            x       y       z     vdW  Elec       q    Type
REMARK                         _______ _______ _______ _____ _____    ______ ____
ROOT
ATOM      1  O   UNL     1     -38.080  25.876   3.436  0.00  0.00    -0.452 OA
ATOM      2  O   UNL     1     -34.800  26.659   5.649  0.00  0.00    -0.448 OA
ATOM      3  O   UNL     1     -32.682  26.935   4.869  0.00  0.00    -0.250 OA
ATOM      4  O   UNL     1     -39.728  24.327   3.371  0.00  0.00    -0.250 OA
ATOM      5  O   UNL     1     -31.224  26.042  -0.183  0.00  0.00    -0.289 OA
ATOM      6  C   UNL     1     -35.751  25.236   3.994  0.00  0.00    +0.088 C 
ATOM      7  C   UNL     1     -34.256  25.507   3.651  0.00  0.00    +0.109 C 
ATOM      8  C   UNL     1     -33.962  26.058   2.202  0.00  0.00    +0.046 C 
ATOM      9  C   UNL     1     -36.684  26.174   3.185  0.00  0.00    +0.173 C 
ATOM     10  C   UNL     1     -35.101  25.601   1.236  0.00  0.00    +0.025 C 
ATOM     11  C   UNL     1     -36.279  23.753   3.942  0.00  0.00    +0.029 C 
ATOM     12  C   UNL     1     -36.443  26.221   1.664  0.00  0.00    +0.048 C 
ATOM     13  C   UNL     1     -35.787  25.651   5.479  0.00  0.00    +0.212 C 
ATOM     14  C   UNL     1     -32.644  25.424   1.672  0.00  0.00    +0.172 C 
ATOM     15  C   UNL     1     -33.795  26.442   4.760  0.00  0.00    +0.317 C 
ATOM     16  C   UNL     1     -33.847  27.616   2.180  0.00  0.00    +0.004 C 
ATOM     17  C   UNL     1     -37.478  23.575   3.008  0.00  0.00    +0.110 C 
ATOM     18  C   UNL     1     -34.771  25.797  -0.244  0.00  0.00    -0.041 C 
ATOM     19  C   UNL     1     -38.536  24.605   3.296  0.00  0.00    +0.317 C 
ATOM     20  C   UNL     1     -32.361  25.828   0.235  0.00  0.00    +0.199 C 
ATOM     21  C   UNL     1     -33.511  25.915  -0.695  0.00  0.00    +0.031 C 
ATOM     22  C   UNL     1     -35.910  25.784  -1.229  0.00  0.00    +0.026 C 
ENDROOT
BRANCH  14  23
ATOM     23  O   UNL     1     -31.517  25.723   2.476  0.00  0.00    -0.377 OA
ATOM     24  H   UNL     1     -30.717  25.714   1.927  0.00  0.00    +0.211 HD
ENDBRANCH  14  23
BRANCH  11  25
ATOM     25  C   UNL     1     -35.234  22.669   3.666  0.00  0.00    +0.100 C 
ATOM     26  C   UNL     1     -35.194  21.662   4.805  0.00  0.00    +0.012 C 
BRANCH  25  28
ATOM     27  O   UNL     1     -35.284  22.405   1.246  0.00  0.00    -0.250 OA
ATOM     28  C   UNL     1     -35.534  21.961   2.359  0.00  0.00    +0.317 C 
BRANCH  28  29
ATOM     29  O   UNL     1     -36.112  20.752   2.625  0.00  0.00    -0.444 OA
ATOM     30  C   UNL     1     -36.366  19.926   1.484  0.00  0.00    +0.256 C 
ENDBRANCH  28  29
ENDBRANCH  25  28
ENDBRANCH  11  25
TORSDOF 4
ENDMDL
MODEL 2
REMARK VINA RESULT:      -6.3      2.385      5.428
REMARK  Name = 21146285
REMARK  4 active torsions:
REMARK  status: ('A' for Active; 'I' for Inactive)
REMARK    1  A    between atoms: C_11  and  C_25
REMARK    2  A    between atoms: C_14  and  O_23
REMARK    3  A    between atoms: C_25  and  C_28
REMARK    4  A    between atoms: C_28  and  O_29
REMARK                            x       y       z     vdW  Elec       q    Type
REMARK                         _______ _______ _______ _____ _____    ______ ____
ROOT
ATOM      1  O   UNL     1     -35.287  20.745   0.512  0.00  0.00    -0.452 OA
ATOM      2  O   UNL     1     -35.379  24.542  -0.848  0.00  0.00    -0.448 OA
ATOM      3  O   UNL     1     -35.414  26.428   0.422  0.00  0.00    -0.250 OA
ATOM      4  O   UNL     1     -36.486  18.844   0.257  0.00  0.00    -0.250 OA
ATOM      5  O   UNL     1     -35.986  26.443   5.725  0.00  0.00    -0.289 OA
ATOM      6  C   UNL     1     -36.405  22.956   0.601  0.00  0.00    +0.088 C 
ATOM      7  C   UNL     1     -36.379  24.352   1.293  0.00  0.00    +0.109 C 
ATOM      8  C   UNL     1     -35.732  24.405   2.731  0.00  0.00    +0.046 C 
ATOM      9  C   UNL     1     -35.226  22.074   1.087  0.00  0.00    +0.173 C 
ATOM     10  C   UNL     1     -35.858  23.002   3.405  0.00  0.00    +0.025 C 
ATOM     11  C   UNL     1     -37.750  22.135   0.613  0.00  0.00    +0.029 C 
ATOM     12  C   UNL     1     -35.054  21.956   2.614  0.00  0.00    +0.048 C 
ATOM     13  C   UNL     1     -36.161  23.356  -0.869  0.00  0.00    +0.212 C 
ATOM     14  C   UNL     1     -36.535  25.402   3.615  0.00  0.00    +0.172 C 
ATOM     15  C   UNL     1     -35.676  25.243   0.278  0.00  0.00    +0.317 C 
ATOM     16  C   UNL     1     -34.230  24.831   2.681  0.00  0.00    +0.004 C 
ATOM     17  C   UNL     1     -37.596  20.740   1.224  0.00  0.00    +0.110 C 
ATOM     18  C   UNL     1     -35.561  23.009   4.904  0.00  0.00    -0.041 C 
ATOM     19  C   UNL     1     -36.427  20.017   0.613  0.00  0.00    +0.317 C 
ATOM     20  C   UNL     1     -36.031  25.417   5.048  0.00  0.00    +0.199 C 
ATOM     21  C   UNL     1     -35.628  24.124   5.650  0.00  0.00    +0.031 C 
ATOM     22  C   UNL     1     -35.252  21.694   5.569  0.00  0.00    +0.026 C 
ENDROOT
BRANCH  14  23
ATOM     23  O   UNL     1     -36.543  26.722   3.105  0.00  0.00    -0.377 OA
ATOM     24  H   UNL     1     -37.218  26.797   2.411  0.00  0.00    +0.211 HD
ENDBRANCH  14  23
BRANCH  11  25
ATOM     25  C   UNL     1     -38.970  22.838   1.212  0.00  0.00    +0.100 C 
ATOM     26  C   UNL     1     -39.345  24.058   0.385  0.00  0.00    +0.012 C 
BRANCH  25  28
ATOM     27  O   UNL     1     -40.386  21.141   2.235  0.00  0.00    -0.250 OA
ATOM     28  C   UNL     1     -40.147  21.885   1.292  0.00  0.00    +0.317 C 
BRANCH  28  29
ATOM     29  O   UNL     1     -40.897  22.001   0.157  0.00  0.00    -0.444 OA
ATOM     30  C   UNL     1     -40.995  20.816  -0.641  0.00  0.00    +0.256 C 
ENDBRANCH  28  29
ENDBRANCH  25  28
ENDBRANCH  11  25
TORSDOF 4
ENDMDL
MODEL 3
REMARK VINA RESULT:      -6.3      2.335      4.755
REMARK  Name = 21146285
REMARK  4 active torsions:
REMARK  status: ('A' for Active; 'I' for Inactive)
REMARK    1  A    between atoms: C_11  and  C_25
REMARK    2  A    between atoms: C_14  and  O_23
REMARK    3  A    between atoms: C_25  and  C_28
REMARK    4  A    between atoms: C_28  and  O_29
REMARK                            x       y       z     vdW  Elec       q    Type
REMARK                         _______ _______ _______ _____ _____    ______ ____
ROOT
ATOM      1  O   UNL     1     -36.187  24.974  -0.722  0.00  0.00    -0.452 OA
ATOM      2  O   UNL     1     -35.626  27.682   2.215  0.00  0.00    -0.448 OA
ATOM      3  O   UNL     1     -35.145  27.230   4.390  0.00  0.00    -0.250 OA
ATOM      4  O   UNL     1     -37.773  24.467  -2.253  0.00  0.00    -0.250 OA
ATOM      5  O   UNL     1     -35.175  22.331   6.497  0.00  0.00    -0.289 OA
ATOM      6  C   UNL     1     -36.810  25.724   1.558  0.00  0.00    +0.088 C 
ATOM      7  C   UNL     1     -36.427  25.620   3.064  0.00  0.00    +0.109 C 
ATOM      8  C   UNL     1     -35.645  24.320   3.496  0.00  0.00    +0.046 C 
ATOM      9  C   UNL     1     -35.797  24.952   0.673  0.00  0.00    +0.173 C 
ATOM     10  C   UNL     1     -35.992  23.158   2.511  0.00  0.00    +0.025 C 
ATOM     11  C   UNL     1     -38.288  25.382   1.130  0.00  0.00    +0.029 C 
ATOM     12  C   UNL     1     -35.503  23.499   1.093  0.00  0.00    +0.048 C 
ATOM     13  C   UNL     1     -36.635  27.238   1.318  0.00  0.00    +0.212 C 
ATOM     14  C   UNL     1     -36.133  23.875   4.905  0.00  0.00    +0.172 C 
ATOM     15  C   UNL     1     -35.660  26.907   3.331  0.00  0.00    +0.317 C 
ATOM     16  C   UNL     1     -34.100  24.547   3.518  0.00  0.00    +0.004 C 
ATOM     17  C   UNL     1     -38.366  24.286   0.065  0.00  0.00    +0.110 C 
ATOM     18  C   UNL     1     -35.553  21.780   3.004  0.00  0.00    -0.041 C 
ATOM     19  C   UNL     1     -37.438  24.588  -1.080  0.00  0.00    +0.317 C 
ATOM     20  C   UNL     1     -35.498  22.563   5.333  0.00  0.00    +0.199 C 
ATOM     21  C   UNL     1     -35.314  21.517   4.300  0.00  0.00    +0.031 C 
ATOM     22  C   UNL     1     -35.458  20.666   1.995  0.00  0.00    +0.026 C 
ENDROOT
BRANCH  14  23
ATOM     23  O   UNL     1     -35.918  24.851   5.906  0.00  0.00    -0.377 OA
ATOM     24  H   UNL     1     -35.009  24.780   6.238  0.00  0.00    +0.211 HD
ENDBRANCH  14  23
BRANCH  11  25
ATOM     25  C   UNL     1     -39.271  25.083   2.264  0.00  0.00    +0.100 C 
ATOM     26  C   UNL     1     -40.252  26.232   2.440  0.00  0.00    +0.012 C 
BRANCH  25  28
ATOM     27  O   UNL     1     -41.041  23.708   1.312  0.00  0.00    -0.250 OA
ATOM     28  C   UNL     1     -40.025  23.796   1.989  0.00  0.00    +0.317 C 
BRANCH  28  29
ATOM     29  O   UNL     1     -39.382  22.759   2.604  0.00  0.00    -0.444 OA
ATOM     30  C   UNL     1     -39.480  21.494   1.940  0.00  0.00    +0.256 C 
ENDBRANCH  28  29
ENDBRANCH  25  28
ENDBRANCH  11  25
TORSDOF 4
ENDMDL
MODEL 4
REMARK VINA RESULT:      -5.9      2.298      5.284
REMARK  Name = 21146285
REMARK  4 active torsions:
REMARK  status: ('A' for Active; 'I' for Inactive)
REMARK    1  A    between atoms: C_11  and  C_25
REMARK    2  A    between atoms: C_14  and  O_23
REMARK    3  A    between atoms: C_25  and  C_28
REMARK    4  A    between atoms: C_28  and  O_29
REMARK                            x       y       z     vdW  Elec       q    Type
REMARK                         _______ _______ _______ _____ _____    ______ ____
ROOT
ATOM      1  O   UNL     1     -38.011  21.784   1.405  0.00  0.00    -0.452 OA
ATOM      2  O   UNL     1     -36.342  24.656  -0.884  0.00  0.00    -0.448 OA
ATOM      3  O   UNL     1     -34.880  26.253  -0.189  0.00  0.00    -0.250 OA
ATOM      4  O   UNL     1     -40.086  21.042   1.914  0.00  0.00    -0.250 OA
ATOM      5  O   UNL     1     -33.600  27.107   4.918  0.00  0.00    -0.289 OA
ATOM      6  C   UNL     1     -37.559  24.204   1.112  0.00  0.00    +0.088 C 
ATOM      7  C   UNL     1     -36.518  25.331   1.382  0.00  0.00    +0.109 C 
ATOM      8  C   UNL     1     -35.538  25.098   2.596  0.00  0.00    +0.046 C 
ATOM      9  C   UNL     1     -37.019  22.827   1.577  0.00  0.00    +0.173 C 
ATOM     10  C   UNL     1     -36.220  24.153   3.635  0.00  0.00    +0.025 C 
ATOM     11  C   UNL     1     -39.040  24.412   1.609  0.00  0.00    +0.029 C 
ATOM     12  C   UNL     1     -36.467  22.767   3.014  0.00  0.00    +0.048 C 
ATOM     13  C   UNL     1     -37.618  24.226  -0.429  0.00  0.00    +0.212 C 
ATOM     14  C   UNL     1     -35.288  26.453   3.318  0.00  0.00    +0.172 C 
ATOM     15  C   UNL     1     -35.803  25.488   0.047  0.00  0.00    +0.317 C 
ATOM     16  C   UNL     1     -34.177  24.482   2.140  0.00  0.00    +0.004 C 
ATOM     17  C   UNL     1     -39.527  23.292   2.531  0.00  0.00    +0.110 C 
ATOM     18  C   UNL     1     -35.511  24.109   4.988  0.00  0.00    -0.041 C 
ATOM     19  C   UNL     1     -39.256  21.944   1.921  0.00  0.00    +0.317 C 
ATOM     20  C   UNL     1     -34.439  26.280   4.566  0.00  0.00    +0.199 C 
ATOM     21  C   UNL     1     -34.683  25.082   5.404  0.00  0.00    +0.031 C 
ATOM     22  C   UNL     1     -35.818  22.958   5.909  0.00  0.00    +0.026 C 
ENDROOT
BRANCH  14  23
ATOM     23  O   UNL     1     -34.702  27.433   2.482  0.00  0.00    -0.377 OA
ATOM     24  H   UNL     1     -35.348  27.721   1.817  0.00  0.00    +0.211 HD
ENDBRANCH  14  23
BRANCH  11  25
ATOM     25  C   UNL     1     -39.365  25.776   2.223  0.00  0.00    +0.100 C 
ATOM     26  C   UNL     1     -39.190  26.882   1.194  0.00  0.00    +0.012 C 
BRANCH  25  28
ATOM     27  O   UNL     1     -41.086  25.997   3.932  0.00  0.00    -0.250 OA
ATOM     28  C   UNL     1     -40.782  25.791   2.764  0.00  0.00    +0.317 C 
BRANCH  28  29
ATOM     29  O   UNL     1     -41.656  25.554   1.741  0.00  0.00    -0.444 OA
ATOM     30  C   UNL     1     -42.884  26.288   1.797  0.00  0.00    +0.256 C 
ENDBRANCH  28  29
ENDBRANCH  25  28
ENDBRANCH  11  25
TORSDOF 4
ENDMDL
MODEL 5
REMARK VINA RESULT:      -5.7      2.194      5.835
REMARK  Name = 21146285
REMARK  4 active torsions:
REMARK  status: ('A' for Active; 'I' for Inactive)
REMARK    1  A    between atoms: C_11  and  C_25
REMARK    2  A    between atoms: C_14  and  O_23
REMARK    3  A    between atoms: C_25  and  C_28
REMARK    4  A    between atoms: C_28  and  O_29
REMARK                            x       y       z     vdW  Elec       q    Type
REMARK                         _______ _______ _______ _____ _____    ______ ____
ROOT
ATOM      1  O   UNL     1     -31.578  27.370   1.347  0.00  0.00    -0.452 OA
ATOM      2  O   UNL     1     -32.249  27.343   5.325  0.00  0.00    -0.448 OA
ATOM      3  O   UNL     1     -33.979  26.325   6.393  0.00  0.00    -0.250 OA
ATOM      4  O   UNL     1     -31.253  28.899  -0.287  0.00  0.00    -0.250 OA
ATOM      5  O   UNL     1     -38.124  24.085   3.894  0.00  0.00    -0.289 OA
ATOM      6  C   UNL     1     -33.190  27.790   3.184  0.00  0.00    +0.088 C 
ATOM      7  C   UNL     1     -34.262  27.120   4.094  0.00  0.00    +0.109 C 
ATOM      8  C   UNL     1     -34.966  25.835   3.511  0.00  0.00    +0.046 C 
ATOM      9  C   UNL     1     -32.520  26.745   2.254  0.00  0.00    +0.173 C 
ATOM     10  C   UNL     1     -34.931  25.890   1.950  0.00  0.00    +0.025 C 
ATOM     11  C   UNL     1     -33.591  29.077   2.368  0.00  0.00    +0.029 C 
ATOM     12  C   UNL     1     -33.477  25.845   1.449  0.00  0.00    +0.048 C 
ATOM     13  C   UNL     1     -32.164  28.255   4.238  0.00  0.00    +0.212 C 
ATOM     14  C   UNL     1     -36.466  25.841   3.926  0.00  0.00    +0.172 C 
ATOM     15  C   UNL     1     -33.520  26.867   5.398  0.00  0.00    +0.317 C 
ATOM     16  C   UNL     1     -34.285  24.519   4.006  0.00  0.00    +0.004 C 
ATOM     17  C   UNL     1     -33.359  28.930   0.863  0.00  0.00    +0.110 C 
ATOM     18  C   UNL     1     -35.852  24.874   1.276  0.00  0.00    -0.041 C 
ATOM     19  C   UNL     1     -31.971  28.421   0.584  0.00  0.00    +0.317 C 
ATOM     20  C   UNL     1     -37.229  24.685   3.303  0.00  0.00    +0.199 C 
ATOM     21  C   UNL     1     -36.897  24.314   1.907  0.00  0.00    +0.031 C 
ATOM     22  C   UNL     1     -35.607  24.554  -0.175  0.00  0.00    +0.026 C 
ENDROOT
BRANCH  14  23
ATOM     23  O   UNL     1     -36.658  25.831   5.328  0.00  0.00    -0.377 OA
ATOM     24  H   UNL     1     -36.233  25.046   5.708  0.00  0.00    +0.211 HD
ENDBRANCH  14  23
BRANCH  11  25
ATOM     25  C   UNL     1     -34.990  29.639   2.631  0.00  0.00    +0.100 C 
ATOM     26  C   UNL     1     -34.904  31.063   3.159  0.00  0.00    +0.012 C 
BRANCH  25  28
ATOM     27  O   UNL     1     -35.707  30.383   0.426  0.00  0.00    -0.250 OA
ATOM     28  C   UNL     1     -35.823  29.606   1.364  0.00  0.00    +0.317 C 
BRANCH  28  29
ATOM     29  O   UNL     1     -36.709  28.567   1.436  0.00  0.00    -0.444 OA
ATOM     30  C   UNL     1     -37.420  28.280   0.228  0.00  0.00    +0.256 C 
ENDBRANCH  28  29
ENDBRANCH  25  28
ENDBRANCH  11  25
TORSDOF 4
ENDMDL
MODEL 6
REMARK VINA RESULT:      -5.6      1.798      5.837
REMARK  Name = 21146285
REMARK  4 active torsions:
REMARK  status: ('A' for Active; 'I' for Inactive)
REMARK    1  A    between atoms: C_11  and  C_25
REMARK    2  A    between atoms: C_14  and  O_23
REMARK    3  A    between atoms: C_25  and  C_28
REMARK    4  A    between atoms: C_28  and  O_29
REMARK                            x       y       z     vdW  Elec       q    Type
REMARK                         _______ _______ _______ _____ _____    ______ ____
ROOT
ATOM      1  O   UNL     1     -33.864  24.418   0.601  0.00  0.00    -0.452 OA
ATOM      2  O   UNL     1     -36.006  21.063   1.256  0.00  0.00    -0.448 OA
ATOM      3  O   UNL     1     -38.267  20.925   1.448  0.00  0.00    -0.250 OA
ATOM      4  O   UNL     1     -32.140  25.521   1.565  0.00  0.00    -0.250 OA
ATOM      5  O   UNL     1     -41.507  25.155   1.684  0.00  0.00    -0.289 OA
ATOM      6  C   UNL     1     -35.588  23.292   1.981  0.00  0.00    +0.088 C 
ATOM      7  C   UNL     1     -37.112  22.988   2.087  0.00  0.00    +0.109 C 
ATOM      8  C   UNL     1     -38.078  24.003   1.364  0.00  0.00    +0.046 C 
ATOM      9  C   UNL     1     -35.266  24.059   0.672  0.00  0.00    +0.173 C 
ATOM     10  C   UNL     1     -37.383  25.399   1.270  0.00  0.00    +0.025 C 
ATOM     11  C   UNL     1     -34.868  23.970   3.208  0.00  0.00    +0.029 C 
ATOM     12  C   UNL     1     -36.123  25.308   0.391  0.00  0.00    +0.048 C 
ATOM     13  C   UNL     1     -35.013  21.865   1.882  0.00  0.00    +0.212 C 
ATOM     14  C   UNL     1     -39.357  24.196   2.229  0.00  0.00    +0.172 C 
ATOM     15  C   UNL     1     -37.231  21.562   1.568  0.00  0.00    +0.317 C 
ATOM     16  C   UNL     1     -38.475  23.516  -0.066  0.00  0.00    +0.004 C 
ATOM     17  C   UNL     1     -34.157  25.274   2.842  0.00  0.00    +0.110 C 
ATOM     18  C   UNL     1     -38.329  26.535   0.882  0.00  0.00    -0.041 C 
ATOM     19  C   UNL     1     -33.284  25.084   1.632  0.00  0.00    +0.317 C 
ATOM     20  C   UNL     1     -40.281  25.249   1.642  0.00  0.00    +0.199 C 
ATOM     21  C   UNL     1     -39.660  26.454   1.043  0.00  0.00    +0.031 C 
ATOM     22  C   UNL     1     -37.723  27.814   0.369  0.00  0.00    +0.026 C 
ENDROOT
BRANCH  14  23
ATOM     23  O   UNL     1     -40.080  22.997   2.435  0.00  0.00    -0.377 OA
ATOM     24  H   UNL     1     -39.803  22.336   1.781  0.00  0.00    +0.211 HD
ENDBRANCH  14  23
BRANCH  11  25
ATOM     25  C   UNL     1     -35.714  24.169   4.467  0.00  0.00    +0.100 C 
ATOM     26  C   UNL     1     -35.550  22.991   5.415  0.00  0.00    +0.012 C 
BRANCH  25  28
ATOM     27  O   UNL     1     -36.014  26.471   5.205  0.00  0.00    -0.250 OA
ATOM     28  C   UNL     1     -35.328  25.457   5.169  0.00  0.00    +0.317 C 
BRANCH  28  29
ATOM     29  O   UNL     1     -34.107  25.298   5.760  0.00  0.00    -0.444 OA
ATOM     30  C   UNL     1     -33.540  26.481   6.332  0.00  0.00    +0.256 C 
ENDBRANCH  28  29
ENDBRANCH  25  28
ENDBRANCH  11  25
TORSDOF 4
ENDMDL
MODEL 7
REMARK VINA RESULT:      -5.6      1.807      2.284
REMARK  Name = 21146285
REMARK  4 active torsions:
REMARK  status: ('A' for Active; 'I' for Inactive)
REMARK    1  A    between atoms: C_11  and  C_25
REMARK    2  A    between atoms: C_14  and  O_23
REMARK    3  A    between atoms: C_25  and  C_28
REMARK    4  A    between atoms: C_28  and  O_29
REMARK                            x       y       z     vdW  Elec       q    Type
REMARK                         _______ _______ _______ _____ _____    ______ ____
ROOT
ATOM      1  O   UNL     1     -38.578  23.248   3.070  0.00  0.00    -0.452 OA
ATOM      2  O   UNL     1     -35.238  23.685   5.290  0.00  0.00    -0.448 OA
ATOM      3  O   UNL     1     -33.425  24.951   4.761  0.00  0.00    -0.250 OA
ATOM      4  O   UNL     1     -39.789  21.558   2.179  0.00  0.00    -0.250 OA
ATOM      5  O   UNL     1     -32.730  27.347   0.047  0.00  0.00    -0.289 OA
ATOM      6  C   UNL     1     -36.102  23.143   3.138  0.00  0.00    +0.088 C 
ATOM      7  C   UNL     1     -34.803  23.989   2.979  0.00  0.00    +0.109 C 
ATOM      8  C   UNL     1     -34.916  25.279   2.080  0.00  0.00    +0.046 C 
ATOM      9  C   UNL     1     -37.363  24.036   3.005  0.00  0.00    +0.173 C 
ATOM     10  C   UNL     1     -36.067  25.085   1.042  0.00  0.00    +0.025 C 
ATOM     11  C   UNL     1     -36.259  21.835   2.275  0.00  0.00    +0.029 C 
ATOM     12  C   UNL     1     -37.418  24.949   1.765  0.00  0.00    +0.048 C 
ATOM     13  C   UNL     1     -35.968  22.678   4.602  0.00  0.00    +0.212 C 
ATOM     14  C   UNL     1     -33.602  25.451   1.265  0.00  0.00    +0.172 C 
ATOM     15  C   UNL     1     -34.388  24.283   4.414  0.00  0.00    +0.317 C 
ATOM     16  C   UNL     1     -35.184  26.562   2.929  0.00  0.00    +0.004 C 
ATOM     17  C   UNL     1     -37.528  21.827   1.421  0.00  0.00    +0.110 C 
ATOM     18  C   UNL     1     -36.066  26.121  -0.081  0.00  0.00    -0.041 C 
ATOM     19  C   UNL     1     -38.732  22.176   2.252  0.00  0.00    +0.317 C 
ATOM     20  C   UNL     1     -33.688  26.616   0.294  0.00  0.00    +0.199 C 
ATOM     21  C   UNL     1     -34.974  26.831  -0.411  0.00  0.00    +0.031 C 
ATOM     22  C   UNL     1     -37.327  26.290  -0.887  0.00  0.00    +0.026 C 
ENDROOT
BRANCH  14  23
ATOM     23  O   UNL     1     -32.454  25.601   2.080  0.00  0.00    -0.377 OA
ATOM     24  H   UNL     1     -31.685  25.216   1.630  0.00  0.00    +0.211 HD
ENDBRANCH  14  23
BRANCH  11  25
ATOM     25  C   UNL     1     -35.052  21.432   1.424  0.00  0.00    +0.100 C 
ATOM     26  C   UNL     1     -34.568  20.041   1.806  0.00  0.00    +0.012 C 
BRANCH  25  28
ATOM     27  O   UNL     1     -35.396  22.480  -0.747  0.00  0.00    -0.250 OA
ATOM     28  C   UNL     1     -35.403  21.473  -0.050  0.00  0.00    +0.317 C 
BRANCH  28  29
ATOM     29  O   UNL     1     -35.712  20.211  -0.473  0.00  0.00    -0.444 OA
ATOM     30  C   UNL     1     -36.295  20.124  -1.778  0.00  0.00    +0.256 C 
ENDBRANCH  28  29
ENDBRANCH  25  28
ENDBRANCH  11  25
TORSDOF 4
ENDMDL
MODEL 8
REMARK VINA RESULT:      -5.5      1.839      5.745
REMARK  Name = 21146285
REMARK  4 active torsions:
REMARK  status: ('A' for Active; 'I' for Inactive)
REMARK    1  A    between atoms: C_11  and  C_25
REMARK    2  A    between atoms: C_14  and  O_23
REMARK    3  A    between atoms: C_25  and  C_28
REMARK    4  A    between atoms: C_28  and  O_29
REMARK                            x       y       z     vdW  Elec       q    Type
REMARK                         _______ _______ _______ _____ _____    ______ ____
ROOT
ATOM      1  O   UNL     1     -37.213  27.588   1.476  0.00  0.00    -0.452 OA
ATOM      2  O   UNL     1     -37.559  24.156  -0.615  0.00  0.00    -0.448 OA
ATOM      3  O   UNL     1     -37.208  22.054   0.177  0.00  0.00    -0.250 OA
ATOM      4  O   UNL     1     -36.098  29.549   1.306  0.00  0.00    -0.250 OA
ATOM      5  O   UNL     1     -35.205  20.981   5.002  0.00  0.00    -0.289 OA
ATOM      6  C   UNL     1     -36.149  25.455   0.797  0.00  0.00    +0.088 C 
ATOM      7  C   UNL     1     -36.008  23.947   1.165  0.00  0.00    +0.109 C 
ATOM      8  C   UNL     1     -36.237  23.575   2.680  0.00  0.00    +0.046 C 
ATOM      9  C   UNL     1     -37.136  26.169   1.758  0.00  0.00    +0.173 C 
ATOM     10  C   UNL     1     -35.907  24.815   3.571  0.00  0.00    +0.025 C 
ATOM     11  C   UNL     1     -34.840  26.311   0.614  0.00  0.00    +0.029 C 
ATOM     12  C   UNL     1     -36.881  25.965   3.263  0.00  0.00    +0.048 C 
ATOM     13  C   UNL     1     -36.793  25.353  -0.601  0.00  0.00    +0.212 C 
ATOM     14  C   UNL     1     -35.238  22.453   3.086  0.00  0.00    +0.172 C 
ATOM     15  C   UNL     1     -36.976  23.253   0.217  0.00  0.00    +0.317 C 
ATOM     16  C   UNL     1     -37.701  23.105   2.953  0.00  0.00    +0.004 C 
ATOM     17  C   UNL     1     -34.797  27.545   1.519  0.00  0.00    +0.110 C 
ATOM     18  C   UNL     1     -35.782  24.489   5.060  0.00  0.00    -0.041 C 
ATOM     19  C   UNL     1     -36.077  28.328   1.413  0.00  0.00    +0.317 C 
ATOM     20  C   UNL     1     -35.330  22.124   4.567  0.00  0.00    +0.199 C 
ATOM     21  C   UNL     1     -35.531  23.249   5.511  0.00  0.00    +0.031 C 
ATOM     22  C   UNL     1     -35.876  25.627   6.041  0.00  0.00    +0.026 C 
ENDROOT
BRANCH  14  23
ATOM     23  O   UNL     1     -35.392  21.266   2.331  0.00  0.00    -0.377 OA
ATOM     24  H   UNL     1     -35.157  21.439   1.405  0.00  0.00    +0.211 HD
ENDBRANCH  14  23
BRANCH  11  25
ATOM     25  C   UNL     1     -33.513  25.552   0.700  0.00  0.00    +0.100 C 
ATOM     26  C   UNL     1     -32.736  25.684  -0.601  0.00  0.00    +0.012 C 
BRANCH  25  28
ATOM     27  O   UNL     1     -32.785  25.697   3.019  0.00  0.00    -0.250 OA
ATOM     28  C   UNL     1     -32.679  26.067   1.857  0.00  0.00    +0.317 C 
BRANCH  28  29
ATOM     29  O   UNL     1     -31.790  26.995   1.391  0.00  0.00    -0.444 OA
ATOM     30  C   UNL     1     -30.538  27.048   2.082  0.00  0.00    +0.256 C 
ENDBRANCH  28  29
ENDBRANCH  25  28
ENDBRANCH  11  25
TORSDOF 4
ENDMDL
MODEL 9
REMARK VINA RESULT:      -5.5      2.397      3.764
REMARK  Name = 21146285
REMARK  4 active torsions:
REMARK  status: ('A' for Active; 'I' for Inactive)
REMARK    1  A    between atoms: C_11  and  C_25
REMARK    2  A    between atoms: C_14  and  O_23
REMARK    3  A    between atoms: C_25  and  C_28
REMARK    4  A    between atoms: C_28  and  O_29
REMARK                            x       y       z     vdW  Elec       q    Type
REMARK                         _______ _______ _______ _____ _____    ______ ____
ROOT
ATOM      1  O   UNL     1     -39.879  23.053   0.992  0.00  0.00    -0.452 OA
ATOM      2  O   UNL     1     -39.293  26.994   1.618  0.00  0.00    -0.448 OA
ATOM      3  O   UNL     1     -37.568  28.243   0.821  0.00  0.00    -0.250 OA
ATOM      4  O   UNL     1     -40.197  21.188   2.233  0.00  0.00    -0.250 OA
ATOM      5  O   UNL     1     -33.332  26.212  -1.704  0.00  0.00    -0.289 OA
ATOM      6  C   UNL     1     -38.315  24.826   1.736  0.00  0.00    +0.088 C 
ATOM      7  C   UNL     1     -37.250  25.851   1.243  0.00  0.00    +0.109 C 
ATOM      8  C   UNL     1     -36.511  25.495  -0.104  0.00  0.00    +0.046 C 
ATOM      9  C   UNL     1     -38.946  24.065   0.541  0.00  0.00    +0.173 C 
ATOM     10  C   UNL     1     -36.515  23.946  -0.301  0.00  0.00    +0.025 C 
ATOM     11  C   UNL     1     -37.919  23.821   2.883  0.00  0.00    +0.029 C 
ATOM     12  C   UNL     1     -37.957  23.432  -0.456  0.00  0.00    +0.048 C 
ATOM     13  C   UNL     1     -39.371  25.773   2.342  0.00  0.00    +0.212 C 
ATOM     14  C   UNL     1     -35.022  25.931  -0.000  0.00  0.00    +0.172 C 
ATOM     15  C   UNL     1     -38.015  27.166   1.187  0.00  0.00    +0.317 C 
ATOM     16  C   UNL     1     -37.179  26.183  -1.337  0.00  0.00    +0.004 C 
ATOM     17  C   UNL     1     -38.117  22.355   2.492  0.00  0.00    +0.110 C 
ATOM     18  C   UNL     1     -35.562  23.460  -1.393  0.00  0.00    -0.041 C 
ATOM     19  C   UNL     1     -39.489  22.138   1.916  0.00  0.00    +0.317 C 
ATOM     20  C   UNL     1     -34.225  25.516  -1.226  0.00  0.00    +0.199 C 
ATOM     21  C   UNL     1     -34.521  24.192  -1.823  0.00  0.00    +0.031 C 
ATOM     22  C   UNL     1     -35.770  22.076  -1.947  0.00  0.00    +0.026 C 
ENDROOT
BRANCH  14  23
ATOM     23  O   UNL     1     -34.858  27.320   0.219  0.00  0.00    -0.377 OA
ATOM     24  H   UNL     1     -35.212  27.554   1.092  0.00  0.00    +0.211 HD
ENDBRANCH  14  23
BRANCH  11  25
ATOM     25  C   UNL     1     -36.536  24.015   3.509  0.00  0.00    +0.100 C 
ATOM     26  C   UNL     1     -36.582  25.087   4.587  0.00  0.00    +0.012 C 
BRANCH  25  28
ATOM     27  O   UNL     1     -35.455  21.834   3.465  0.00  0.00    -0.250 OA
ATOM     28  C   UNL     1     -36.030  22.712   4.095  0.00  0.00    +0.317 C 
BRANCH  28  29
ATOM     29  O   UNL     1     -36.308  22.683   5.433  0.00  0.00    -0.444 OA
ATOM     30  C   UNL     1     -35.384  21.943   6.238  0.00  0.00    +0.256 C 
ENDBRANCH  28  29
ENDBRANCH  25  28
ENDBRANCH  11  25
TORSDOF 4
ENDMDL
