MODEL 1
REMARK VINA RESULT:      -6.9      0.000      0.000
REMARK  Name = 191253
REMARK  7 active torsions:
REMARK  status: ('A' for Active; 'I' for Inactive)
REMARK    1  A    between atoms: N_1  and  C_17
REMARK    2  A    between atoms: C_2  and  C_9
REMARK    3  A    between atoms: C_10  and  C_12
REMARK    4  A    between atoms: C_12  and  N_13
REMARK    5  A    between atoms: C_22  and  N_23
REMARK    6  A    between atoms: N_23  and  N_24
REMARK    7  A    between atoms: N_24  and  C_25
REMARK                            x       y       z     vdW  Elec       q    Type
REMARK                         _______ _______ _______ _____ _____    ______ ____
ROOT
ATOM      1  N   UNL     1     -36.640  25.872   3.226  0.00  0.00    -0.302 N 
ATOM      2  C   UNL     1     -37.562  24.799   3.602  0.00  0.00    +0.150 C 
ATOM      3  C   UNL     1     -38.828  25.097   2.797  0.00  0.00    +0.031 C 
ATOM      4  C   UNL     1     -38.305  25.801   1.554  0.00  0.00    +0.024 C 
ATOM      5  C   UNL     1     -37.143  26.637   2.084  0.00  0.00    +0.091 C 
ENDROOT
BRANCH   2   9
ATOM      6  O   UNL     1     -37.101  23.040   2.055  0.00  0.00    -0.273 OA
ATOM      7  O   UNL     1     -35.672  20.889   3.175  0.00  0.00    -0.277 OA
ATOM      8  N   UNL     1     -36.351  22.838   4.260  0.00  0.00    -0.256 N 
ATOM      9  C   UNL     1     -36.989  23.476   3.197  0.00  0.00    +0.246 C 
ATOM     10  C   UNL     1     -35.733  21.587   4.184  0.00  0.00    +0.206 C 
ATOM     11  H   UNL     1     -36.334  23.303   5.128  0.00  0.00    +0.157 HD
BRANCH  10  12
ATOM     12  C   UNL     1     -35.132  21.194   5.517  0.00  0.00    +0.002 C 
BRANCH  12  13
ATOM     13  N   UNL     1     -35.828  21.894   6.585  0.00  0.00    +0.386 N 
ATOM     14  H   UNL     1     -35.860  22.892   6.374  0.00  0.00    -0.089 HD
ATOM     15  H   UNL     1     -35.335  21.750   7.466  0.00  0.00    -0.089 HD
ATOM     16  H   UNL     1     -36.779  21.534   6.666  0.00  0.00    -0.089 HD
ENDBRANCH  12  13
ENDBRANCH  10  12
ENDBRANCH   2   9
BRANCH   1  17
ATOM     17  C   UNL     1     -35.513  26.229   3.941  0.00  0.00    +0.048 C 
ATOM     18  C   UNL     1     -35.348  25.859   5.300  0.00  0.00    +0.016 C 
ATOM     19  C   UNL     1     -34.467  26.985   3.353  0.00  0.00    +0.016 C 
ATOM     20  C   UNL     1     -34.211  26.220   6.023  0.00  0.00    +0.019 C 
ATOM     21  C   UNL     1     -33.331  27.346   4.076  0.00  0.00    +0.019 C 
ATOM     22  C   UNL     1     -33.202  26.963   5.411  0.00  0.00    +0.089 C 
BRANCH  22  23
ATOM     23  N   UNL     1     -32.062  27.325   6.137  0.00  0.00    -0.128 NA
BRANCH  23  24
ATOM     24  N   UNL     1     -32.251  28.422   6.711  0.00  0.00    -0.128 NA
BRANCH  24  25
ATOM     25  C   UNL     1     -31.389  29.397   6.179  0.00  0.00    +0.089 C 
ATOM     26  C   UNL     1     -31.920  30.495   5.507  0.00  0.00    +0.018 C 
ATOM     27  C   UNL     1     -30.013  29.258   6.328  0.00  0.00    +0.018 C 
ATOM     28  C   UNL     1     -31.065  31.462   4.979  0.00  0.00    +0.001 C 
ATOM     29  C   UNL     1     -29.158  30.226   5.801  0.00  0.00    +0.001 C 
ATOM     30  C   UNL     1     -29.684  31.328   5.125  0.00  0.00    +0.000 C 
ENDBRANCH  24  25
ENDBRANCH  23  24
ENDBRANCH  22  23
ENDBRANCH   1  17
TORSDOF 7
ENDMDL
MODEL 2
REMARK VINA RESULT:      -6.8      1.868      3.402
REMARK  Name = 191253
REMARK  7 active torsions:
REMARK  status: ('A' for Active; 'I' for Inactive)
REMARK    1  A    between atoms: N_1  and  C_17
REMARK    2  A    between atoms: C_2  and  C_9
REMARK    3  A    between atoms: C_10  and  C_12
REMARK    4  A    between atoms: C_12  and  N_13
REMARK    5  A    between atoms: C_22  and  N_23
REMARK    6  A    between atoms: N_23  and  N_24
REMARK    7  A    between atoms: N_24  and  C_25
REMARK                            x       y       z     vdW  Elec       q    Type
REMARK                         _______ _______ _______ _____ _____    ______ ____
ROOT
ATOM      1  N   UNL     1     -34.773  23.823   4.803  0.00  0.00    -0.302 N 
ATOM      2  C   UNL     1     -35.573  23.215   3.738  0.00  0.00    +0.150 C 
ATOM      3  C   UNL     1     -35.583  21.725   4.085  0.00  0.00    +0.031 C 
ATOM      4  C   UNL     1     -35.458  21.709   5.601  0.00  0.00    +0.024 C 
ATOM      5  C   UNL     1     -34.518  22.876   5.890  0.00  0.00    +0.091 C 
ENDROOT
BRANCH   2   9
ATOM      6  O   UNL     1     -37.292  24.659   4.552  0.00  0.00    -0.273 OA
ATOM      7  O   UNL     1     -39.779  24.285   3.288  0.00  0.00    -0.277 OA
ATOM      8  N   UNL     1     -37.797  23.138   2.849  0.00  0.00    -0.256 N 
ATOM      9  C   UNL     1     -36.965  23.766   3.774  0.00  0.00    +0.246 C 
ATOM     10  C   UNL     1     -39.149  23.436   2.663  0.00  0.00    +0.206 C 
ATOM     11  H   UNL     1     -37.403  22.434   2.285  0.00  0.00    +0.157 HD
BRANCH  10  12
ATOM     12  C   UNL     1     -39.752  22.574   1.573  0.00  0.00    +0.002 C 
BRANCH  12  13
ATOM     13  N   UNL     1     -40.035  21.250   2.106  0.00  0.00    +0.386 N 
ATOM     14  H   UNL     1     -39.165  20.813   2.410  0.00  0.00    -0.089 HD
ATOM     15  H   UNL     1     -40.469  20.677   1.383  0.00  0.00    -0.089 HD
ATOM     16  H   UNL     1     -40.669  21.332   2.901  0.00  0.00    -0.089 HD
ENDBRANCH  12  13
ENDBRANCH  10  12
ENDBRANCH   2   9
BRANCH   1  17
ATOM     17  C   UNL     1     -34.195  25.076   4.736  0.00  0.00    +0.048 C 
ATOM     18  C   UNL     1     -33.921  25.830   5.905  0.00  0.00    +0.016 C 
ATOM     19  C   UNL     1     -33.848  25.670   3.496  0.00  0.00    +0.016 C 
ATOM     20  C   UNL     1     -33.338  27.095   5.839  0.00  0.00    +0.019 C 
ATOM     21  C   UNL     1     -33.265  26.935   3.430  0.00  0.00    +0.019 C 
ATOM     22  C   UNL     1     -33.009  27.648   4.600  0.00  0.00    +0.089 C 
BRANCH  22  23
ATOM     23  N   UNL     1     -32.425  28.917   4.535  0.00  0.00    -0.128 NA
BRANCH  23  24
ATOM     24  N   UNL     1     -32.220  29.354   5.692  0.00  0.00    -0.128 NA
BRANCH  24  25
ATOM     25  C   UNL     1     -30.894  29.809   5.805  0.00  0.00    +0.089 C 
ATOM     26  C   UNL     1     -30.014  29.161   6.667  0.00  0.00    +0.018 C 
ATOM     27  C   UNL     1     -30.473  30.903   5.057  0.00  0.00    +0.018 C 
ATOM     28  C   UNL     1     -28.699  29.612   6.780  0.00  0.00    +0.001 C 
ATOM     29  C   UNL     1     -29.157  31.353   5.170  0.00  0.00    +0.001 C 
ATOM     30  C   UNL     1     -28.271  30.709   6.033  0.00  0.00    +0.000 C 
ENDBRANCH  24  25
ENDBRANCH  23  24
ENDBRANCH  22  23
ENDBRANCH   1  17
TORSDOF 7
ENDMDL
MODEL 3
REMARK VINA RESULT:      -6.8      3.879      8.164
REMARK  Name = 191253
REMARK  7 active torsions:
REMARK  status: ('A' for Active; 'I' for Inactive)
REMARK    1  A    between atoms: N_1  and  C_17
REMARK    2  A    between atoms: C_2  and  C_9
REMARK    3  A    between atoms: C_10  and  C_12
REMARK    4  A    between atoms: C_12  and  N_13
REMARK    5  A    between atoms: C_22  and  N_23
REMARK    6  A    between atoms: N_23  and  N_24
REMARK    7  A    between atoms: N_24  and  C_25
REMARK                            x       y       z     vdW  Elec       q    Type
REMARK                         _______ _______ _______ _____ _____    ______ ____
ROOT
ATOM      1  N   UNL     1     -35.277  24.258   4.018  0.00  0.00    -0.302 N 
ATOM      2  C   UNL     1     -36.485  24.889   4.551  0.00  0.00    +0.150 C 
ATOM      3  C   UNL     1     -35.969  25.781   5.683  0.00  0.00    +0.031 C 
ATOM      4  C   UNL     1     -34.563  26.149   5.235  0.00  0.00    +0.024 C 
ATOM      5  C   UNL     1     -34.064  24.878   4.554  0.00  0.00    +0.091 C 
ENDROOT
BRANCH   2   9
ATOM      6  O   UNL     1     -36.479  26.446   2.741  0.00  0.00    -0.273 OA
ATOM      7  O   UNL     1     -39.043  27.024   1.734  0.00  0.00    -0.277 OA
ATOM      8  N   UNL     1     -38.517  25.569   3.479  0.00  0.00    -0.256 N 
ATOM      9  C   UNL     1     -37.132  25.722   3.487  0.00  0.00    +0.246 C 
ATOM     10  C   UNL     1     -39.386  26.228   2.605  0.00  0.00    +0.206 C 
ATOM     11  H   UNL     1     -38.913  24.952   4.136  0.00  0.00    +0.157 HD
BRANCH  10  12
ATOM     12  C   UNL     1     -40.824  25.828   2.861  0.00  0.00    +0.002 C 
BRANCH  12  13
ATOM     13  N   UNL     1     -41.285  26.452   4.092  0.00  0.00    +0.386 N 
ATOM     14  H   UNL     1     -41.112  25.824   4.877  0.00  0.00    -0.089 HD
ATOM     15  H   UNL     1     -42.285  26.642   4.023  0.00  0.00    -0.089 HD
ATOM     16  H   UNL     1     -40.783  27.327   4.239  0.00  0.00    -0.089 HD
ENDBRANCH  12  13
ENDBRANCH  10  12
ENDBRANCH   2   9
BRANCH   1  17
ATOM     17  C   UNL     1     -35.264  23.122   3.231  0.00  0.00    +0.048 C 
ATOM     18  C   UNL     1     -35.070  23.193   1.828  0.00  0.00    +0.016 C 
ATOM     19  C   UNL     1     -35.445  21.830   3.787  0.00  0.00    +0.016 C 
ATOM     20  C   UNL     1     -35.058  22.047   1.033  0.00  0.00    +0.019 C 
ATOM     21  C   UNL     1     -35.433  20.684   2.992  0.00  0.00    +0.019 C 
ATOM     22  C   UNL     1     -35.239  20.791   1.616  0.00  0.00    +0.089 C 
BRANCH  22  23
ATOM     23  N   UNL     1     -35.226  19.643   0.818  0.00  0.00    -0.128 NA
BRANCH  23  24
ATOM     24  N   UNL     1     -34.469  19.814  -0.166  0.00  0.00    -0.128 NA
BRANCH  24  25
ATOM     25  C   UNL     1     -33.188  19.308   0.120  0.00  0.00    +0.089 C 
ATOM     26  C   UNL     1     -32.060  20.027  -0.266  0.00  0.00    +0.018 C 
ATOM     27  C   UNL     1     -33.058  18.094   0.787  0.00  0.00    +0.018 C 
ATOM     28  C   UNL     1     -30.790  19.526   0.018  0.00  0.00    +0.001 C 
ATOM     29  C   UNL     1     -31.787  17.594   1.070  0.00  0.00    +0.001 C 
ATOM     30  C   UNL     1     -30.653  18.309   0.685  0.00  0.00    +0.000 C 
ENDBRANCH  24  25
ENDBRANCH  23  24
ENDBRANCH  22  23
ENDBRANCH   1  17
TORSDOF 7
ENDMDL
MODEL 4
REMARK VINA RESULT:      -6.7      1.950      3.764
REMARK  Name = 191253
REMARK  7 active torsions:
REMARK  status: ('A' for Active; 'I' for Inactive)
REMARK    1  A    between atoms: N_1  and  C_17
REMARK    2  A    between atoms: C_2  and  C_9
REMARK    3  A    between atoms: C_10  and  C_12
REMARK    4  A    between atoms: C_12  and  N_13
REMARK    5  A    between atoms: C_22  and  N_23
REMARK    6  A    between atoms: N_23  and  N_24
REMARK    7  A    between atoms: N_24  and  C_25
REMARK                            x       y       z     vdW  Elec       q    Type
REMARK                         _______ _______ _______ _____ _____    ______ ____
ROOT
ATOM      1  N   UNL     1     -35.695  22.199   2.570  0.00  0.00    -0.302 N 
ATOM      2  C   UNL     1     -36.456  22.311   1.325  0.00  0.00    +0.150 C 
ATOM      3  C   UNL     1     -36.253  20.957   0.641  0.00  0.00    +0.031 C 
ATOM      4  C   UNL     1     -36.056  19.996   1.803  0.00  0.00    +0.024 C 
ATOM      5  C   UNL     1     -35.266  20.821   2.815  0.00  0.00    +0.091 C 
ENDROOT
BRANCH   2   9
ATOM      6  O   UNL     1     -38.736  21.627   1.511  0.00  0.00    -0.273 OA
ATOM      7  O   UNL     1     -40.465  23.669   2.385  0.00  0.00    -0.277 OA
ATOM      8  N   UNL     1     -38.162  23.827   2.056  0.00  0.00    -0.256 N 
ATOM      9  C   UNL     1     -37.906  22.523   1.636  0.00  0.00    +0.246 C 
ATOM     10  C   UNL     1     -39.423  24.319   2.404  0.00  0.00    +0.206 C 
ATOM     11  H   UNL     1     -37.400  24.447   2.111  0.00  0.00    +0.157 HD
BRANCH  10  12
ATOM     12  C   UNL     1     -39.345  25.773   2.822  0.00  0.00    +0.002 C 
BRANCH  12  13
ATOM     13  N   UNL     1     -38.154  25.978   3.632  0.00  0.00    +0.386 N 
ATOM     14  H   UNL     1     -37.667  26.817   3.314  0.00  0.00    -0.089 HD
ATOM     15  H   UNL     1     -37.536  25.171   3.539  0.00  0.00    -0.089 HD
ATOM     16  H   UNL     1     -38.422  26.091   4.609  0.00  0.00    -0.089 HD
ENDBRANCH  12  13
ENDBRANCH  10  12
ENDBRANCH   2   9
BRANCH   1  17
ATOM     17  C   UNL     1     -35.292  23.268   3.345  0.00  0.00    +0.048 C 
ATOM     18  C   UNL     1     -35.497  23.288   4.748  0.00  0.00    +0.016 C 
ATOM     19  C   UNL     1     -34.654  24.401   2.777  0.00  0.00    +0.016 C 
ATOM     20  C   UNL     1     -35.091  24.368   5.532  0.00  0.00    +0.019 C 
ATOM     21  C   UNL     1     -34.247  25.481   3.561  0.00  0.00    +0.019 C 
ATOM     22  C   UNL     1     -34.465  25.464   4.938  0.00  0.00    +0.089 C 
BRANCH  22  23
ATOM     23  N   UNL     1     -34.058  26.546   5.725  0.00  0.00    -0.128 NA
BRANCH  23  24
ATOM     24  N   UNL     1     -32.808  26.640   5.711  0.00  0.00    -0.128 NA
BRANCH  24  25
ATOM     25  C   UNL     1     -32.429  27.992   5.633  0.00  0.00    +0.089 C 
ATOM     26  C   UNL     1     -31.961  28.644   6.770  0.00  0.00    +0.018 C 
ATOM     27  C   UNL     1     -32.524  28.667   4.420  0.00  0.00    +0.018 C 
ATOM     28  C   UNL     1     -31.584  29.984   6.693  0.00  0.00    +0.001 C 
ATOM     29  C   UNL     1     -32.147  30.008   4.344  0.00  0.00    +0.001 C 
ATOM     30  C   UNL     1     -31.678  30.667   5.480  0.00  0.00    +0.000 C 
ENDBRANCH  24  25
ENDBRANCH  23  24
ENDBRANCH  22  23
ENDBRANCH   1  17
TORSDOF 7
ENDMDL
MODEL 5
REMARK VINA RESULT:      -6.7      2.522      4.119
REMARK  Name = 191253
REMARK  7 active torsions:
REMARK  status: ('A' for Active; 'I' for Inactive)
REMARK    1  A    between atoms: N_1  and  C_17
REMARK    2  A    between atoms: C_2  and  C_9
REMARK    3  A    between atoms: C_10  and  C_12
REMARK    4  A    between atoms: C_12  and  N_13
REMARK    5  A    between atoms: C_22  and  N_23
REMARK    6  A    between atoms: N_23  and  N_24
REMARK    7  A    between atoms: N_24  and  C_25
REMARK                            x       y       z     vdW  Elec       q    Type
REMARK                         _______ _______ _______ _____ _____    ______ ____
ROOT
ATOM      1  N   UNL     1     -34.700  23.901   4.753  0.00  0.00    -0.302 N 
ATOM      2  C   UNL     1     -35.539  23.226   3.762  0.00  0.00    +0.150 C 
ATOM      3  C   UNL     1     -35.577  21.771   4.235  0.00  0.00    +0.031 C 
ATOM      4  C   UNL     1     -35.416  21.881   5.744  0.00  0.00    +0.024 C 
ATOM      5  C   UNL     1     -34.442  23.043   5.911  0.00  0.00    +0.091 C 
ENDROOT
BRANCH   2   9
ATOM      6  O   UNL     1     -37.202  24.780   4.484  0.00  0.00    -0.273 OA
ATOM      7  O   UNL     1     -39.729  24.362   3.317  0.00  0.00    -0.277 OA
ATOM      8  N   UNL     1     -37.786  23.130   2.935  0.00  0.00    -0.256 N 
ATOM      9  C   UNL     1     -36.916  23.814   3.782  0.00  0.00    +0.246 C 
ATOM     10  C   UNL     1     -39.136  23.445   2.755  0.00  0.00    +0.206 C 
ATOM     11  H   UNL     1     -37.424  22.369   2.426  0.00  0.00    +0.157 HD
BRANCH  10  12
ATOM     12  C   UNL     1     -39.787  22.507   1.759  0.00  0.00    +0.002 C 
BRANCH  12  13
ATOM     13  N   UNL     1     -39.515  21.130   2.146  0.00  0.00    +0.386 N 
ATOM     14  H   UNL     1     -38.581  21.069   2.553  0.00  0.00    -0.089 HD
ATOM     15  H   UNL     1     -39.567  20.529   1.323  0.00  0.00    -0.089 HD
ATOM     16  H   UNL     1     -40.205  20.827   2.832  0.00  0.00    -0.089 HD
ENDBRANCH  12  13
ENDBRANCH  10  12
ENDBRANCH   2   9
BRANCH   1  17
ATOM     17  C   UNL     1     -34.093  25.128   4.567  0.00  0.00    +0.048 C 
ATOM     18  C   UNL     1     -33.661  25.556   3.286  0.00  0.00    +0.016 C 
ATOM     19  C   UNL     1     -33.872  26.020   5.648  0.00  0.00    +0.016 C 
ATOM     20  C   UNL     1     -33.048  26.794   3.098  0.00  0.00    +0.019 C 
ATOM     21  C   UNL     1     -33.258  27.258   5.459  0.00  0.00    +0.019 C 
ATOM     22  C   UNL     1     -32.847  27.646   4.185  0.00  0.00    +0.089 C 
BRANCH  22  23
ATOM     23  N   UNL     1     -32.232  28.888   3.994  0.00  0.00    -0.128 NA
BRANCH  23  24
ATOM     24  N   UNL     1     -32.886  29.784   4.577  0.00  0.00    -0.128 NA
BRANCH  24  25
ATOM     25  C   UNL     1     -33.355  30.722   3.641  0.00  0.00    +0.089 C 
ATOM     26  C   UNL     1     -32.506  31.726   3.185  0.00  0.00    +0.018 C 
ATOM     27  C   UNL     1     -34.665  30.640   3.177  0.00  0.00    +0.018 C 
ATOM     28  C   UNL     1     -32.971  32.656   2.256  0.00  0.00    +0.001 C 
ATOM     29  C   UNL     1     -35.129  31.571   2.248  0.00  0.00    +0.001 C 
ATOM     30  C   UNL     1     -34.283  32.580   1.788  0.00  0.00    +0.000 C 
ENDBRANCH  24  25
ENDBRANCH  23  24
ENDBRANCH  22  23
ENDBRANCH   1  17
TORSDOF 7
ENDMDL
MODEL 6
REMARK VINA RESULT:      -6.5      1.459      2.146
REMARK  Name = 191253
REMARK  7 active torsions:
REMARK  status: ('A' for Active; 'I' for Inactive)
REMARK    1  A    between atoms: N_1  and  C_17
REMARK    2  A    between atoms: C_2  and  C_9
REMARK    3  A    between atoms: C_10  and  C_12
REMARK    4  A    between atoms: C_12  and  N_13
REMARK    5  A    between atoms: C_22  and  N_23
REMARK    6  A    between atoms: N_23  and  N_24
REMARK    7  A    between atoms: N_24  and  C_25
REMARK                            x       y       z     vdW  Elec       q    Type
REMARK                         _______ _______ _______ _____ _____    ______ ____
ROOT
ATOM      1  N   UNL     1     -36.751  25.830   3.357  0.00  0.00    -0.302 N 
ATOM      2  C   UNL     1     -37.629  24.715   3.717  0.00  0.00    +0.150 C 
ATOM      3  C   UNL     1     -38.939  25.023   2.988  0.00  0.00    +0.031 C 
ATOM      4  C   UNL     1     -38.491  25.804   1.762  0.00  0.00    +0.024 C 
ATOM      5  C   UNL     1     -37.325  26.640   2.281  0.00  0.00    +0.091 C 
ENDROOT
BRANCH   2   9
ATOM      6  O   UNL     1     -35.890  23.099   3.466  0.00  0.00    -0.273 OA
ATOM      7  O   UNL     1     -36.626  20.873   1.908  0.00  0.00    -0.277 OA
ATOM      8  N   UNL     1     -37.960  22.707   2.452  0.00  0.00    -0.256 N 
ATOM      9  C   UNL     1     -37.045  23.430   3.216  0.00  0.00    +0.246 C 
ATOM     10  C   UNL     1     -37.695  21.476   1.847  0.00  0.00    +0.206 C 
ATOM     11  H   UNL     1     -38.858  23.091   2.331  0.00  0.00    +0.157 HD
BRANCH  10  12
ATOM     12  C   UNL     1     -38.909  20.963   1.099  0.00  0.00    +0.002 C 
BRANCH  12  13
ATOM     13  N   UNL     1     -40.107  21.252   1.872  0.00  0.00    +0.386 N 
ATOM     14  H   UNL     1     -39.985  22.133   2.373  0.00  0.00    -0.089 HD
ATOM     15  H   UNL     1     -40.269  20.500   2.542  0.00  0.00    -0.089 HD
ATOM     16  H   UNL     1     -40.907  21.326   1.244  0.00  0.00    -0.089 HD
ENDBRANCH  12  13
ENDBRANCH  10  12
ENDBRANCH   2   9
BRANCH   1  17
ATOM     17  C   UNL     1     -35.600  26.178   4.038  0.00  0.00    +0.048 C 
ATOM     18  C   UNL     1     -35.396  25.803   5.390  0.00  0.00    +0.016 C 
ATOM     19  C   UNL     1     -34.568  26.928   3.419  0.00  0.00    +0.016 C 
ATOM     20  C   UNL     1     -34.235  26.155   6.079  0.00  0.00    +0.019 C 
ATOM     21  C   UNL     1     -33.407  27.279   4.107  0.00  0.00    +0.019 C 
ATOM     22  C   UNL     1     -33.240  26.893   5.436  0.00  0.00    +0.089 C 
BRANCH  22  23
ATOM     23  N   UNL     1     -32.076  27.245   6.127  0.00  0.00    -0.128 NA
BRANCH  23  24
ATOM     24  N   UNL     1     -32.249  28.328   6.733  0.00  0.00    -0.128 NA
BRANCH  24  25
ATOM     25  C   UNL     1     -31.417  29.322   6.187  0.00  0.00    +0.089 C 
ATOM     26  C   UNL     1     -30.034  29.188   6.274  0.00  0.00    +0.018 C 
ATOM     27  C   UNL     1     -31.982  30.431   5.565  0.00  0.00    +0.018 C 
ATOM     28  C   UNL     1     -29.209  30.174   5.733  0.00  0.00    +0.001 C 
ATOM     29  C   UNL     1     -31.156  31.416   5.024  0.00  0.00    +0.001 C 
ATOM     30  C   UNL     1     -29.769  31.288   5.108  0.00  0.00    +0.000 C 
ENDBRANCH  24  25
ENDBRANCH  23  24
ENDBRANCH  22  23
ENDBRANCH   1  17
TORSDOF 7
ENDMDL
MODEL 7
REMARK VINA RESULT:      -6.5      5.795      9.000
REMARK  Name = 191253
REMARK  7 active torsions:
REMARK  status: ('A' for Active; 'I' for Inactive)
REMARK    1  A    between atoms: N_1  and  C_17
REMARK    2  A    between atoms: C_2  and  C_9
REMARK    3  A    between atoms: C_10  and  C_12
REMARK    4  A    between atoms: C_12  and  N_13
REMARK    5  A    between atoms: C_22  and  N_23
REMARK    6  A    between atoms: N_23  and  N_24
REMARK    7  A    between atoms: N_24  and  C_25
REMARK                            x       y       z     vdW  Elec       q    Type
REMARK                         _______ _______ _______ _____ _____    ______ ____
ROOT
ATOM      1  N   UNL     1     -40.863  25.350   1.979  0.00  0.00    -0.302 N 
ATOM      2  C   UNL     1     -39.948  24.458   2.691  0.00  0.00    +0.150 C 
ATOM      3  C   UNL     1     -39.864  23.220   1.796  0.00  0.00    +0.031 C 
ATOM      4  C   UNL     1     -40.099  23.772   0.399  0.00  0.00    +0.024 C 
ATOM      5  C   UNL     1     -41.134  24.871   0.622  0.00  0.00    +0.091 C 
ENDROOT
BRANCH   2   9
ATOM      6  O   UNL     1     -38.282  26.071   2.127  0.00  0.00    -0.273 OA
ATOM      7  O   UNL     1     -35.883  25.778   3.571  0.00  0.00    -0.277 OA
ATOM      8  N   UNL     1     -37.804  24.469   3.761  0.00  0.00    -0.256 N 
ATOM      9  C   UNL     1     -38.603  25.104   2.812  0.00  0.00    +0.246 C 
ATOM     10  C   UNL     1     -36.496  24.844   4.082  0.00  0.00    +0.206 C 
ATOM     11  H   UNL     1     -38.188  23.700   4.241  0.00  0.00    +0.157 HD
BRANCH  10  12
ATOM     12  C   UNL     1     -35.921  23.948   5.159  0.00  0.00    +0.002 C 
BRANCH  12  13
ATOM     13  N   UNL     1     -36.297  22.568   4.890  0.00  0.00    +0.386 N 
ATOM     14  H   UNL     1     -37.042  22.288   5.529  0.00  0.00    -0.089 HD
ATOM     15  H   UNL     1     -35.487  21.963   5.025  0.00  0.00    -0.089 HD
ATOM     16  H   UNL     1     -36.626  22.487   3.929  0.00  0.00    -0.089 HD
ENDBRANCH  12  13
ENDBRANCH  10  12
ENDBRANCH   2   9
BRANCH   1  17
ATOM     17  C   UNL     1     -41.517  26.426   2.548  0.00  0.00    +0.048 C 
ATOM     18  C   UNL     1     -41.599  26.585   3.955  0.00  0.00    +0.016 C 
ATOM     19  C   UNL     1     -42.141  27.422   1.754  0.00  0.00    +0.016 C 
ATOM     20  C   UNL     1     -42.260  27.670   4.531  0.00  0.00    +0.019 C 
ATOM     21  C   UNL     1     -42.803  28.507   2.330  0.00  0.00    +0.019 C 
ATOM     22  C   UNL     1     -42.862  28.632   3.718  0.00  0.00    +0.089 C 
BRANCH  22  23
ATOM     23  N   UNL     1     -43.525  29.719   4.296  0.00  0.00    -0.128 NA
BRANCH  23  24
ATOM     24  N   UNL     1     -43.025  29.978   5.416  0.00  0.00    -0.128 NA
BRANCH  24  25
ATOM     25  C   UNL     1     -44.029  30.412   6.300  0.00  0.00    +0.089 C 
ATOM     26  C   UNL     1     -43.869  30.226   7.670  0.00  0.00    +0.018 C 
ATOM     27  C   UNL     1     -45.174  31.022   5.799  0.00  0.00    +0.018 C 
ATOM     28  C   UNL     1     -44.864  30.656   8.548  0.00  0.00    +0.001 C 
ATOM     29  C   UNL     1     -46.169  31.453   6.677  0.00  0.00    +0.001 C 
ATOM     30  C   UNL     1     -46.015  31.269   8.052  0.00  0.00    +0.000 C 
ENDBRANCH  24  25
ENDBRANCH  23  24
ENDBRANCH  22  23
ENDBRANCH   1  17
TORSDOF 7
ENDMDL
MODEL 8
REMARK VINA RESULT:      -6.4      2.490      3.276
REMARK  Name = 191253
REMARK  7 active torsions:
REMARK  status: ('A' for Active; 'I' for Inactive)
REMARK    1  A    between atoms: N_1  and  C_17
REMARK    2  A    between atoms: C_2  and  C_9
REMARK    3  A    between atoms: C_10  and  C_12
REMARK    4  A    between atoms: C_12  and  N_13
REMARK    5  A    between atoms: C_22  and  N_23
REMARK    6  A    between atoms: N_23  and  N_24
REMARK    7  A    between atoms: N_24  and  C_25
REMARK                            x       y       z     vdW  Elec       q    Type
REMARK                         _______ _______ _______ _____ _____    ______ ____
ROOT
ATOM      1  N   UNL     1     -37.554  23.734   2.948  0.00  0.00    -0.302 N 
ATOM      2  C   UNL     1     -37.494  22.312   2.606  0.00  0.00    +0.150 C 
ATOM      3  C   UNL     1     -38.940  21.951   2.260  0.00  0.00    +0.031 C 
ATOM      4  C   UNL     1     -39.515  23.254   1.726  0.00  0.00    +0.024 C 
ATOM      5  C   UNL     1     -38.849  24.317   2.594  0.00  0.00    +0.091 C 
ENDROOT
BRANCH   2   9
ATOM      6  O   UNL     1     -36.002  23.048   0.894  0.00  0.00    -0.273 OA
ATOM      7  O   UNL     1     -35.148  20.990  -0.827  0.00  0.00    -0.277 OA
ATOM      8  N   UNL     1     -36.589  20.787   0.995  0.00  0.00    -0.256 N 
ATOM      9  C   UNL     1     -36.609  22.116   1.414  0.00  0.00    +0.246 C 
ATOM     10  C   UNL     1     -35.861  20.307  -0.097  0.00  0.00    +0.206 C 
ATOM     11  H   UNL     1     -37.125  20.139   1.506  0.00  0.00    +0.157 HD
BRANCH  10  12
ATOM     12  C   UNL     1     -36.056  18.814  -0.268  0.00  0.00    +0.002 C 
BRANCH  12  13
ATOM     13  N   UNL     1     -37.054  18.347   0.681  0.00  0.00    +0.386 N 
ATOM     14  H   UNL     1     -36.995  18.900   1.537  0.00  0.00    -0.089 HD
ATOM     15  H   UNL     1     -36.884  17.365   0.899  0.00  0.00    -0.089 HD
ATOM     16  H   UNL     1     -37.984  18.448   0.275  0.00  0.00    -0.089 HD
ENDBRANCH  12  13
ENDBRANCH  10  12
ENDBRANCH   2   9
BRANCH   1  17
ATOM     17  C   UNL     1     -36.582  24.417   3.654  0.00  0.00    +0.048 C 
ATOM     18  C   UNL     1     -36.208  25.741   3.313  0.00  0.00    +0.016 C 
ATOM     19  C   UNL     1     -35.910  23.826   4.755  0.00  0.00    +0.016 C 
ATOM     20  C   UNL     1     -35.227  26.430   4.025  0.00  0.00    +0.019 C 
ATOM     21  C   UNL     1     -34.928  24.515   5.467  0.00  0.00    +0.019 C 
ATOM     22  C   UNL     1     -34.587  25.817   5.103  0.00  0.00    +0.089 C 
BRANCH  22  23
ATOM     23  N   UNL     1     -33.603  26.510   5.816  0.00  0.00    -0.128 NA
BRANCH  23  24
ATOM     24  N   UNL     1     -32.681  26.860   5.043  0.00  0.00    -0.128 NA
BRANCH  24  25
ATOM     25  C   UNL     1     -32.334  28.200   5.287  0.00  0.00    +0.089 C 
ATOM     26  C   UNL     1     -31.845  28.571   6.536  0.00  0.00    +0.018 C 
ATOM     27  C   UNL     1     -32.483  29.147   4.277  0.00  0.00    +0.018 C 
ATOM     28  C   UNL     1     -31.500  29.901   6.777  0.00  0.00    +0.001 C 
ATOM     29  C   UNL     1     -32.138  30.476   4.519  0.00  0.00    +0.001 C 
ATOM     30  C   UNL     1     -31.648  30.854   5.769  0.00  0.00    +0.000 C 
ENDBRANCH  24  25
ENDBRANCH  23  24
ENDBRANCH  22  23
ENDBRANCH   1  17
TORSDOF 7
ENDMDL
MODEL 9
REMARK VINA RESULT:      -6.4      2.714      3.427
REMARK  Name = 191253
REMARK  7 active torsions:
REMARK  status: ('A' for Active; 'I' for Inactive)
REMARK    1  A    between atoms: N_1  and  C_17
REMARK    2  A    between atoms: C_2  and  C_9
REMARK    3  A    between atoms: C_10  and  C_12
REMARK    4  A    between atoms: C_12  and  N_13
REMARK    5  A    between atoms: C_22  and  N_23
REMARK    6  A    between atoms: N_23  and  N_24
REMARK    7  A    between atoms: N_24  and  C_25
REMARK                            x       y       z     vdW  Elec       q    Type
REMARK                         _______ _______ _______ _____ _____    ______ ____
ROOT
ATOM      1  N   UNL     1     -36.525  23.020   2.666  0.00  0.00    -0.302 N 
ATOM      2  C   UNL     1     -36.193  21.599   2.559  0.00  0.00    +0.150 C 
ATOM      3  C   UNL     1     -37.420  20.979   1.887  0.00  0.00    +0.031 C 
ATOM      4  C   UNL     1     -37.974  22.113   1.038  0.00  0.00    +0.024 C 
ATOM      5  C   UNL     1     -37.725  23.351   1.895  0.00  0.00    +0.091 C 
ENDROOT
BRANCH   2   9
ATOM      6  O   UNL     1     -34.487  22.365   1.074  0.00  0.00    -0.273 OA
ATOM      7  O   UNL     1     -32.723  20.340   0.231  0.00  0.00    -0.277 OA
ATOM      8  N   UNL     1     -34.536  20.107   1.679  0.00  0.00    -0.256 N 
ATOM      9  C   UNL     1     -34.984  21.427   1.691  0.00  0.00    +0.246 C 
ATOM     10  C   UNL     1     -33.436  19.646   0.952  0.00  0.00    +0.206 C 
ATOM     11  H   UNL     1     -35.030  19.452   2.223  0.00  0.00    +0.157 HD
BRANCH  10  12
ATOM     12  C   UNL     1     -33.221  18.162   1.170  0.00  0.00    +0.002 C 
BRANCH  12  13
ATOM     13  N   UNL     1     -34.264  17.418   0.482  0.00  0.00    +0.386 N 
ATOM     14  H   UNL     1     -34.569  17.941  -0.340  0.00  0.00    -0.089 HD
ATOM     15  H   UNL     1     -35.056  17.281   1.110  0.00  0.00    -0.089 HD
ATOM     16  H   UNL     1     -33.900  16.511   0.191  0.00  0.00    -0.089 HD
ENDBRANCH  12  13
ENDBRANCH  10  12
ENDBRANCH   2   9
BRANCH   1  17
ATOM     17  C   UNL     1     -35.892  23.915   3.506  0.00  0.00    +0.048 C 
ATOM     18  C   UNL     1     -35.257  23.491   4.702  0.00  0.00    +0.016 C 
ATOM     19  C   UNL     1     -35.846  25.303   3.216  0.00  0.00    +0.016 C 
ATOM     20  C   UNL     1     -34.619  24.395   5.551  0.00  0.00    +0.019 C 
ATOM     21  C   UNL     1     -35.208  26.207   4.065  0.00  0.00    +0.019 C 
ATOM     22  C   UNL     1     -34.593  25.753   5.232  0.00  0.00    +0.089 C 
BRANCH  22  23
ATOM     23  N   UNL     1     -33.952  26.659   6.084  0.00  0.00    -0.128 NA
BRANCH  23  24
ATOM     24  N   UNL     1     -32.739  26.745   5.782  0.00  0.00    -0.128 NA
BRANCH  24  25
ATOM     25  C   UNL     1     -32.365  28.097   5.678  0.00  0.00    +0.089 C 
ATOM     26  C   UNL     1     -31.838  28.754   6.786  0.00  0.00    +0.018 C 
ATOM     27  C   UNL     1     -32.526  28.767   4.470  0.00  0.00    +0.018 C 
ATOM     28  C   UNL     1     -31.468  30.095   6.683  0.00  0.00    +0.001 C 
ATOM     29  C   UNL     1     -32.155  30.108   4.368  0.00  0.00    +0.001 C 
ATOM     30  C   UNL     1     -31.627  30.772   5.474  0.00  0.00    +0.000 C 
ENDBRANCH  24  25
ENDBRANCH  23  24
ENDBRANCH  22  23
ENDBRANCH   1  17
TORSDOF 7
ENDMDL
