MODEL 1
REMARK VINA RESULT:      -5.3      0.000      0.000
REMARK  Name = 60122226
REMARK  5 active torsions:
REMARK  status: ('A' for Active; 'I' for Inactive)
REMARK    1  A    between atoms: C_2  and  O_16
REMARK    2  A    between atoms: C_3  and  O_18
REMARK    3  A    between atoms: C_4  and  N_9
REMARK    4  A    between atoms: C_5  and  C_20
REMARK    5  A    between atoms: C_20  and  O_21
REMARK                            x       y       z     vdW  Elec       q    Type
REMARK                         _______ _______ _______ _____ _____    ______ ____
ROOT
ATOM      1  O   UNL     1     -36.627  24.142   4.987  0.00  0.00    -0.333 OA
ATOM      2  C   UNL     1     -35.338  23.887   3.022  0.00  0.00    +0.158 C 
ATOM      3  C   UNL     1     -34.380  24.159   4.182  0.00  0.00    +0.168 C 
ATOM      4  C   UNL     1     -36.552  23.362   3.788  0.00  0.00    +0.227 C 
ATOM      5  C   UNL     1     -35.297  24.575   5.334  0.00  0.00    +0.175 C 
ATOM      6  C   UNL     1     -35.621  25.116   2.155  0.00  0.00    +0.036 C 
ENDROOT
BRANCH   4   9
ATOM      7  O   UNL     1     -37.524  21.412   1.992  0.00  0.00    -0.252 OA
ATOM      8  O   UNL     1     -41.337  23.851   1.129  0.00  0.00    -0.270 OA
ATOM      9  N   UNL     1     -37.796  23.461   3.081  0.00  0.00    -0.217 N 
ATOM     10  N   UNL     1     -39.422  22.629   1.564  0.00  0.00    -0.236 N 
ATOM     11  C   UNL     1     -38.191  22.427   2.203  0.00  0.00    +0.315 C 
ATOM     12  C   UNL     1     -38.608  24.574   3.263  0.00  0.00    +0.076 C 
ATOM     13  C   UNL     1     -39.779  24.751   2.649  0.00  0.00    +0.074 C 
ATOM     14  C   UNL     1     -40.266  23.718   1.711  0.00  0.00    +0.254 C 
ATOM     15  H   UNL     1     -39.719  21.922   0.946  0.00  0.00    +0.159 HD
ENDBRANCH   4   9
BRANCH   2  16
ATOM     16  O   UNL     1     -34.809  22.884   2.161  0.00  0.00    -0.380 OA
ATOM     17  H   UNL     1     -33.842  22.949   2.144  0.00  0.00    +0.211 HD
ENDBRANCH   2  16
BRANCH   3  18
ATOM     18  O   UNL     1     -33.383  25.112   3.867  0.00  0.00    -0.379 OA
ATOM     19  H   UNL     1     -32.546  24.854   4.282  0.00  0.00    +0.211 HD
ENDBRANCH   3  18
BRANCH   5  20
ATOM     20  C   UNL     1     -35.335  26.058   5.671  0.00  0.00    +0.169 C 
BRANCH  20  21
ATOM     21  O   UNL     1     -36.606  26.576   5.314  0.00  0.00    -0.379 OA
ATOM     22  H   UNL     1     -37.167  26.629   6.104  0.00  0.00    +0.211 HD
ENDBRANCH  20  21
ENDBRANCH   5  20
TORSDOF 5
ENDMDL
MODEL 2
REMARK VINA RESULT:      -5.1      2.567      4.867
REMARK  Name = 60122226
REMARK  5 active torsions:
REMARK  status: ('A' for Active; 'I' for Inactive)
REMARK    1  A    between atoms: C_2  and  O_16
REMARK    2  A    between atoms: C_3  and  O_18
REMARK    3  A    between atoms: C_4  and  N_9
REMARK    4  A    between atoms: C_5  and  C_20
REMARK    5  A    between atoms: C_20  and  O_21
REMARK                            x       y       z     vdW  Elec       q    Type
REMARK                         _______ _______ _______ _____ _____    ______ ____
ROOT
ATOM      1  O   UNL     1     -34.805  22.657   1.420  0.00  0.00    -0.333 OA
ATOM      2  C   UNL     1     -36.369  22.283   3.153  0.00  0.00    +0.158 C 
ATOM      3  C   UNL     1     -35.707  20.946   2.820  0.00  0.00    +0.168 C 
ATOM      4  C   UNL     1     -35.313  23.251   2.622  0.00  0.00    +0.227 C 
ATOM      5  C   UNL     1     -34.929  21.225   1.531  0.00  0.00    +0.175 C 
ATOM      6  C   UNL     1     -37.756  22.458   2.530  0.00  0.00    +0.036 C 
ENDROOT
BRANCH   4   9
ATOM      7  O   UNL     1     -35.719  25.266   4.556  0.00  0.00    -0.252 OA
ATOM      8  O   UNL     1     -37.188  28.267   1.381  0.00  0.00    -0.270 OA
ATOM      9  N   UNL     1     -35.799  24.568   2.329  0.00  0.00    -0.217 N 
ATOM     10  N   UNL     1     -36.450  26.759   2.973  0.00  0.00    -0.236 N 
ATOM     11  C   UNL     1     -35.968  25.505   3.372  0.00  0.00    +0.315 C 
ATOM     12  C   UNL     1     -36.102  24.917   1.018  0.00  0.00    +0.076 C 
ATOM     13  C   UNL     1     -36.560  26.116   0.653  0.00  0.00    +0.074 C 
ATOM     14  C   UNL     1     -36.767  27.154   1.683  0.00  0.00    +0.254 C 
ATOM     15  H   UNL     1     -36.577  27.429   3.683  0.00  0.00    +0.159 HD
ENDBRANCH   4   9
BRANCH   2  16
ATOM     16  O   UNL     1     -36.524  22.426   4.561  0.00  0.00    -0.380 OA
ATOM     17  H   UNL     1     -35.711  22.795   4.941  0.00  0.00    +0.211 HD
ENDBRANCH   2  16
BRANCH   3  18
ATOM     18  O   UNL     1     -36.631  19.881   2.713  0.00  0.00    -0.379 OA
ATOM     19  H   UNL     1     -36.225  19.148   2.225  0.00  0.00    +0.211 HD
ENDBRANCH   3  18
BRANCH   5  20
ATOM     20  C   UNL     1     -35.530  20.684   0.244  0.00  0.00    +0.169 C 
BRANCH  20  21
ATOM     21  O   UNL     1     -35.350  19.278   0.209  0.00  0.00    -0.379 OA
ATOM     22  H   UNL     1     -36.192  18.849  -0.009  0.00  0.00    +0.211 HD
ENDBRANCH  20  21
ENDBRANCH   5  20
TORSDOF 5
ENDMDL
MODEL 3
REMARK VINA RESULT:      -5.1      2.295      5.240
REMARK  Name = 60122226
REMARK  5 active torsions:
REMARK  status: ('A' for Active; 'I' for Inactive)
REMARK    1  A    between atoms: C_2  and  O_16
REMARK    2  A    between atoms: C_3  and  O_18
REMARK    3  A    between atoms: C_4  and  N_9
REMARK    4  A    between atoms: C_5  and  C_20
REMARK    5  A    between atoms: C_20  and  O_21
REMARK                            x       y       z     vdW  Elec       q    Type
REMARK                         _______ _______ _______ _____ _____    ______ ____
ROOT
ATOM      1  O   UNL     1     -35.940  21.268   3.311  0.00  0.00    -0.333 OA
ATOM      2  C   UNL     1     -36.811  22.616   1.576  0.00  0.00    +0.158 C 
ATOM      3  C   UNL     1     -36.877  21.159   1.118  0.00  0.00    +0.168 C 
ATOM      4  C   UNL     1     -36.757  22.425   3.091  0.00  0.00    +0.227 C 
ATOM      5  C   UNL     1     -36.057  20.401   2.165  0.00  0.00    +0.175 C 
ATOM      6  C   UNL     1     -35.628  23.393   0.994  0.00  0.00    +0.036 C 
ENDROOT
BRANCH   4   9
ATOM      7  O   UNL     1     -38.236  24.697   3.879  0.00  0.00    -0.252 OA
ATOM      8  O   UNL     1     -34.552  26.624   5.868  0.00  0.00    -0.270 OA
ATOM      9  N   UNL     1     -36.211  23.534   3.816  0.00  0.00    -0.217 N 
ATOM     10  N   UNL     1     -36.400  25.655   4.869  0.00  0.00    -0.236 N 
ATOM     11  C   UNL     1     -37.038  24.626   4.163  0.00  0.00    +0.315 C 
ATOM     12  C   UNL     1     -34.868  23.531   4.176  0.00  0.00    +0.076 C 
ATOM     13  C   UNL     1     -34.274  24.519   4.849  0.00  0.00    +0.074 C 
ATOM     14  C   UNL     1     -35.068  25.699   5.249  0.00  0.00    +0.254 C 
ATOM     15  H   UNL     1     -36.956  26.427   5.122  0.00  0.00    +0.159 HD
ENDBRANCH   4   9
BRANCH   2  16
ATOM     16  O   UNL     1     -37.993  23.313   1.196  0.00  0.00    -0.380 OA
ATOM     17  H   UNL     1     -37.754  24.169   0.807  0.00  0.00    +0.211 HD
ENDBRANCH   2  16
BRANCH   3  18
ATOM     18  O   UNL     1     -36.426  20.973  -0.209  0.00  0.00    -0.379 OA
ATOM     19  H   UNL     1     -36.404  21.828  -0.666  0.00  0.00    +0.211 HD
ENDBRANCH   3  18
BRANCH   5  20
ATOM     20  C   UNL     1     -34.667  19.952   1.745  0.00  0.00    +0.169 C 
BRANCH  20  21
ATOM     21  O   UNL     1     -34.779  18.755   0.994  0.00  0.00    -0.379 OA
ATOM     22  H   UNL     1     -33.927  18.553   0.578  0.00  0.00    +0.211 HD
ENDBRANCH  20  21
ENDBRANCH   5  20
TORSDOF 5
ENDMDL
MODEL 4
REMARK VINA RESULT:      -5.1      2.988      5.375
REMARK  Name = 60122226
REMARK  5 active torsions:
REMARK  status: ('A' for Active; 'I' for Inactive)
REMARK    1  A    between atoms: C_2  and  O_16
REMARK    2  A    between atoms: C_3  and  O_18
REMARK    3  A    between atoms: C_4  and  N_9
REMARK    4  A    between atoms: C_5  and  C_20
REMARK    5  A    between atoms: C_20  and  O_21
REMARK                            x       y       z     vdW  Elec       q    Type
REMARK                         _______ _______ _______ _____ _____    ______ ____
ROOT
ATOM      1  O   UNL     1     -35.557  24.345   5.580  0.00  0.00    -0.333 OA
ATOM      2  C   UNL     1     -35.950  24.092   3.263  0.00  0.00    +0.158 C 
ATOM      3  C   UNL     1     -36.517  22.863   3.974  0.00  0.00    +0.168 C 
ATOM      4  C   UNL     1     -35.935  25.093   4.418  0.00  0.00    +0.227 C 
ATOM      5  C   UNL     1     -35.985  22.980   5.404  0.00  0.00    +0.175 C 
ATOM      6  C   UNL     1     -34.584  23.855   2.615  0.00  0.00    +0.036 C 
ENDROOT
BRANCH   4   9
ATOM      7  O   UNL     1     -36.317  27.203   2.582  0.00  0.00    -0.252 OA
ATOM      8  O   UNL     1     -32.389  29.254   3.849  0.00  0.00    -0.270 OA
ATOM      9  N   UNL     1     -35.029  26.192   4.248  0.00  0.00    -0.217 N 
ATOM     10  N   UNL     1     -34.360  28.223   3.215  0.00  0.00    -0.236 N 
ATOM     11  C   UNL     1     -35.313  27.199   3.299  0.00  0.00    +0.315 C 
ATOM     12  C   UNL     1     -33.875  26.261   5.019  0.00  0.00    +0.076 C 
ATOM     13  C   UNL     1     -32.976  27.244   4.928  0.00  0.00    +0.074 C 
ATOM     14  C   UNL     1     -33.196  28.336   3.959  0.00  0.00    +0.254 C 
ATOM     15  H   UNL     1     -34.536  28.936   2.559  0.00  0.00    +0.159 HD
ENDBRANCH   4   9
BRANCH   2  16
ATOM     16  O   UNL     1     -36.831  24.524   2.231  0.00  0.00    -0.380 OA
ATOM     17  H   UNL     1     -36.542  24.153   1.383  0.00  0.00    +0.211 HD
ENDBRANCH   2  16
BRANCH   3  18
ATOM     18  O   UNL     1     -36.182  21.648   3.333  0.00  0.00    -0.379 OA
ATOM     19  H   UNL     1     -36.483  20.903   3.875  0.00  0.00    +0.211 HD
ENDBRANCH   3  18
BRANCH   5  20
ATOM     20  C   UNL     1     -34.839  22.054   5.780  0.00  0.00    +0.169 C 
BRANCH  20  21
ATOM     21  O   UNL     1     -35.329  20.726   5.860  0.00  0.00    -0.379 OA
ATOM     22  H   UNL     1     -35.906  20.640   6.636  0.00  0.00    +0.211 HD
ENDBRANCH  20  21
ENDBRANCH   5  20
TORSDOF 5
ENDMDL
MODEL 5
REMARK VINA RESULT:      -5.1      2.427      4.237
REMARK  Name = 60122226
REMARK  5 active torsions:
REMARK  status: ('A' for Active; 'I' for Inactive)
REMARK    1  A    between atoms: C_2  and  O_16
REMARK    2  A    between atoms: C_3  and  O_18
REMARK    3  A    between atoms: C_4  and  N_9
REMARK    4  A    between atoms: C_5  and  C_20
REMARK    5  A    between atoms: C_20  and  O_21
REMARK                            x       y       z     vdW  Elec       q    Type
REMARK                         _______ _______ _______ _____ _____    ______ ____
ROOT
ATOM      1  O   UNL     1     -35.058  26.218   1.577  0.00  0.00    -0.333 OA
ATOM      2  C   UNL     1     -35.139  26.485   3.924  0.00  0.00    +0.158 C 
ATOM      3  C   UNL     1     -34.734  27.826   3.311  0.00  0.00    +0.168 C 
ATOM      4  C   UNL     1     -35.825  25.832   2.725  0.00  0.00    +0.227 C 
ATOM      5  C   UNL     1     -34.444  27.494   1.845  0.00  0.00    +0.175 C 
ATOM      6  C   UNL     1     -33.964  25.686   4.493  0.00  0.00    +0.036 C 
ENDROOT
BRANCH   4   9
ATOM      7  O   UNL     1     -37.724  24.399   4.245  0.00  0.00    -0.252 OA
ATOM      8  O   UNL     1     -36.020  20.341   2.876  0.00  0.00    -0.270 OA
ATOM      9  N   UNL     1     -35.901  24.402   2.783  0.00  0.00    -0.217 N 
ATOM     10  N   UNL     1     -36.874  22.379   3.562  0.00  0.00    -0.236 N 
ATOM     11  C   UNL     1     -36.892  23.781   3.577  0.00  0.00    +0.315 C 
ATOM     12  C   UNL     1     -35.000  23.631   2.058  0.00  0.00    +0.076 C 
ATOM     13  C   UNL     1     -34.996  22.296   2.053  0.00  0.00    +0.074 C 
ATOM     14  C   UNL     1     -35.997  21.568   2.858  0.00  0.00    +0.254 C 
ATOM     15  H   UNL     1     -37.554  21.923   4.108  0.00  0.00    +0.159 HD
ENDBRANCH   4   9
BRANCH   2  16
ATOM     16  O   UNL     1     -36.062  26.682   4.990  0.00  0.00    -0.380 OA
ATOM     17  H   UNL     1     -36.822  27.192   4.670  0.00  0.00    +0.211 HD
ENDBRANCH   2  16
BRANCH   3  18
ATOM     18  O   UNL     1     -33.653  28.440   3.985  0.00  0.00    -0.379 OA
ATOM     19  H   UNL     1     -32.816  28.090   3.642  0.00  0.00    +0.211 HD
ENDBRANCH   3  18
BRANCH   5  20
ATOM     20  C   UNL     1     -32.981  27.429   1.439  0.00  0.00    +0.169 C 
BRANCH  20  21
ATOM     21  O   UNL     1     -32.478  28.750   1.325  0.00  0.00    -0.379 OA
ATOM     22  H   UNL     1     -33.095  29.369   1.745  0.00  0.00    +0.211 HD
ENDBRANCH  20  21
ENDBRANCH   5  20
TORSDOF 5
ENDMDL
MODEL 6
REMARK VINA RESULT:      -5.0      2.029      3.615
REMARK  Name = 60122226
REMARK  5 active torsions:
REMARK  status: ('A' for Active; 'I' for Inactive)
REMARK    1  A    between atoms: C_2  and  O_16
REMARK    2  A    between atoms: C_3  and  O_18
REMARK    3  A    between atoms: C_4  and  N_9
REMARK    4  A    between atoms: C_5  and  C_20
REMARK    5  A    between atoms: C_20  and  O_21
REMARK                            x       y       z     vdW  Elec       q    Type
REMARK                         _______ _______ _______ _____ _____    ______ ____
ROOT
ATOM      1  O   UNL     1     -34.837  25.254   2.241  0.00  0.00    -0.333 OA
ATOM      2  C   UNL     1     -35.838  25.004   4.368  0.00  0.00    +0.158 C 
ATOM      3  C   UNL     1     -35.155  26.371   4.326  0.00  0.00    +0.168 C 
ATOM      4  C   UNL     1     -36.017  24.742   2.873  0.00  0.00    +0.227 C 
ATOM      5  C   UNL     1     -34.320  26.333   3.044  0.00  0.00    +0.175 C 
ATOM      6  C   UNL     1     -35.030  23.933   5.105  0.00  0.00    +0.036 C 
ENDROOT
BRANCH   4   9
ATOM      7  O   UNL     1     -38.441  23.315   3.115  0.00  0.00    -0.252 OA
ATOM      8  O   UNL     1     -36.529  19.446   1.497  0.00  0.00    -0.270 OA
ATOM      9  N   UNL     1     -36.182  23.362   2.522  0.00  0.00    -0.217 N 
ATOM     10  N   UNL     1     -37.487  21.389   2.309  0.00  0.00    -0.236 N 
ATOM     11  C   UNL     1     -37.440  22.739   2.682  0.00  0.00    +0.315 C 
ATOM     12  C   UNL     1     -35.102  22.642   2.024  0.00  0.00    +0.076 C 
ATOM     13  C   UNL     1     -35.162  21.356   1.672  0.00  0.00    +0.074 C 
ATOM     14  C   UNL     1     -36.440  20.629   1.810  0.00  0.00    +0.254 C 
ATOM     15  H   UNL     1     -38.353  20.933   2.412  0.00  0.00    +0.159 HD
ENDBRANCH   4   9
BRANCH   2  16
ATOM     16  O   UNL     1     -37.100  25.096   5.021  0.00  0.00    -0.380 OA
ATOM     17  H   UNL     1     -37.308  26.027   5.196  0.00  0.00    +0.211 HD
ENDBRANCH   2  16
BRANCH   3  18
ATOM     18  O   UNL     1     -34.406  26.653   5.492  0.00  0.00    -0.379 OA
ATOM     19  H   UNL     1     -34.892  26.344   6.272  0.00  0.00    +0.211 HD
ENDBRANCH   3  18
BRANCH   5  20
ATOM     20  C   UNL     1     -32.821  26.142   3.215  0.00  0.00    +0.169 C 
BRANCH  20  21
ATOM     21  O   UNL     1     -32.282  27.289   3.852  0.00  0.00    -0.379 OA
ATOM     22  H   UNL     1     -32.917  27.625   4.504  0.00  0.00    +0.211 HD
ENDBRANCH  20  21
ENDBRANCH   5  20
TORSDOF 5
ENDMDL
MODEL 7
REMARK VINA RESULT:      -4.9      3.040      6.048
REMARK  Name = 60122226
REMARK  5 active torsions:
REMARK  status: ('A' for Active; 'I' for Inactive)
REMARK    1  A    between atoms: C_2  and  O_16
REMARK    2  A    between atoms: C_3  and  O_18
REMARK    3  A    between atoms: C_4  and  N_9
REMARK    4  A    between atoms: C_5  and  C_20
REMARK    5  A    between atoms: C_20  and  O_21
REMARK                            x       y       z     vdW  Elec       q    Type
REMARK                         _______ _______ _______ _____ _____    ______ ____
ROOT
ATOM      1  O   UNL     1     -34.855  23.874   3.732  0.00  0.00    -0.333 OA
ATOM      2  C   UNL     1     -36.146  25.801   4.189  0.00  0.00    +0.158 C 
ATOM      3  C   UNL     1     -37.014  24.574   4.471  0.00  0.00    +0.168 C 
ATOM      4  C   UNL     1     -34.753  25.183   4.307  0.00  0.00    +0.227 C 
ATOM      5  C   UNL     1     -36.208  23.407   3.897  0.00  0.00    +0.175 C 
ATOM      6  C   UNL     1     -36.432  26.462   2.839  0.00  0.00    +0.036 C 
ENDROOT
BRANCH   4   9
ATOM      7  O   UNL     1     -33.458  27.450   5.381  0.00  0.00    -0.252 OA
ATOM      8  O   UNL     1     -30.785  27.908   1.655  0.00  0.00    -0.270 OA
ATOM      9  N   UNL     1     -33.715  25.913   3.640  0.00  0.00    -0.217 N 
ATOM     10  N   UNL     1     -32.128  27.676   3.524  0.00  0.00    -0.236 N 
ATOM     11  C   UNL     1     -33.131  27.038   4.266  0.00  0.00    +0.315 C 
ATOM     12  C   UNL     1     -33.287  25.512   2.380  0.00  0.00    +0.076 C 
ATOM     13  C   UNL     1     -32.329  26.130   1.686  0.00  0.00    +0.074 C 
ATOM     14  C   UNL     1     -31.668  27.316   2.267  0.00  0.00    +0.254 C 
ATOM     15  H   UNL     1     -31.706  28.463   3.939  0.00  0.00    +0.159 HD
ENDBRANCH   4   9
BRANCH   2  16
ATOM     16  O   UNL     1     -36.346  26.794   5.189  0.00  0.00    -0.380 OA
ATOM     17  H   UNL     1     -35.946  26.501   6.022  0.00  0.00    +0.211 HD
ENDBRANCH   2  16
BRANCH   3  18
ATOM     18  O   UNL     1     -38.321  24.685   3.941  0.00  0.00    -0.379 OA
ATOM     19  H   UNL     1     -38.400  25.517   3.448  0.00  0.00    +0.211 HD
ENDBRANCH   3  18
BRANCH   5  20
ATOM     20  C   UNL     1     -36.692  22.830   2.576  0.00  0.00    +0.169 C 
BRANCH  20  21
ATOM     21  O   UNL     1     -37.776  21.951   2.829  0.00  0.00    -0.379 OA
ATOM     22  H   UNL     1     -38.547  22.463   3.119  0.00  0.00    +0.211 HD
ENDBRANCH  20  21
ENDBRANCH   5  20
TORSDOF 5
ENDMDL
MODEL 8
REMARK VINA RESULT:      -4.9      2.875      5.367
REMARK  Name = 60122226
REMARK  5 active torsions:
REMARK  status: ('A' for Active; 'I' for Inactive)
REMARK    1  A    between atoms: C_2  and  O_16
REMARK    2  A    between atoms: C_3  and  O_18
REMARK    3  A    between atoms: C_4  and  N_9
REMARK    4  A    between atoms: C_5  and  C_20
REMARK    5  A    between atoms: C_20  and  O_21
REMARK                            x       y       z     vdW  Elec       q    Type
REMARK                         _______ _______ _______ _____ _____    ______ ____
ROOT
ATOM      1  O   UNL     1     -35.043  24.305   2.349  0.00  0.00    -0.333 OA
ATOM      2  C   UNL     1     -35.126  24.554   4.698  0.00  0.00    +0.158 C 
ATOM      3  C   UNL     1     -35.285  23.068   4.377  0.00  0.00    +0.168 C 
ATOM      4  C   UNL     1     -34.439  25.038   3.422  0.00  0.00    +0.227 C 
ATOM      5  C   UNL     1     -35.492  23.034   2.860  0.00  0.00    +0.175 C 
ATOM      6  C   UNL     1     -36.446  25.262   5.013  0.00  0.00    +0.036 C 
ENDROOT
BRANCH   4   9
ATOM      7  O   UNL     1     -32.837  27.031   4.619  0.00  0.00    -0.252 OA
ATOM      8  O   UNL     1     -35.034  30.400   2.369  0.00  0.00    -0.270 OA
ATOM      9  N   UNL     1     -34.569  26.443   3.167  0.00  0.00    -0.217 N 
ATOM     10  N   UNL     1     -33.933  28.707   3.498  0.00  0.00    -0.236 N 
ATOM     11  C   UNL     1     -33.716  27.361   3.820  0.00  0.00    +0.315 C 
ATOM     12  C   UNL     1     -35.536  26.897   2.277  0.00  0.00    +0.076 C 
ATOM     13  C   UNL     1     -35.730  28.184   1.979  0.00  0.00    +0.074 C 
ATOM     14  C   UNL     1     -34.881  29.209   2.620  0.00  0.00    +0.254 C 
ATOM     15  H   UNL     1     -33.350  29.366   3.941  0.00  0.00    +0.159 HD
ENDBRANCH   4   9
BRANCH   2  16
ATOM     16  O   UNL     1     -34.278  24.733   5.828  0.00  0.00    -0.380 OA
ATOM     17  H   UNL     1     -33.852  23.890   6.051  0.00  0.00    +0.211 HD
ENDBRANCH   2  16
BRANCH   3  18
ATOM     18  O   UNL     1     -36.322  22.449   5.112  0.00  0.00    -0.379 OA
ATOM     19  H   UNL     1     -35.954  22.044   5.912  0.00  0.00    +0.211 HD
ENDBRANCH   3  18
BRANCH   5  20
ATOM     20  C   UNL     1     -36.910  22.783   2.373  0.00  0.00    +0.169 C 
BRANCH  20  21
ATOM     21  O   UNL     1     -37.243  21.425   2.611  0.00  0.00    -0.379 OA
ATOM     22  H   UNL     1     -38.184  21.357   2.834  0.00  0.00    +0.211 HD
ENDBRANCH  20  21
ENDBRANCH   5  20
TORSDOF 5
ENDMDL
MODEL 9
REMARK VINA RESULT:      -4.9      2.662      5.415
REMARK  Name = 60122226
REMARK  5 active torsions:
REMARK  status: ('A' for Active; 'I' for Inactive)
REMARK    1  A    between atoms: C_2  and  O_16
REMARK    2  A    between atoms: C_3  and  O_18
REMARK    3  A    between atoms: C_4  and  N_9
REMARK    4  A    between atoms: C_5  and  C_20
REMARK    5  A    between atoms: C_20  and  O_21
REMARK                            x       y       z     vdW  Elec       q    Type
REMARK                         _______ _______ _______ _____ _____    ______ ____
ROOT
ATOM      1  O   UNL     1     -34.795  22.067   1.049  0.00  0.00    -0.333 OA
ATOM      2  C   UNL     1     -36.558  20.728   1.876  0.00  0.00    +0.158 C 
ATOM      3  C   UNL     1     -36.111  20.142   0.538  0.00  0.00    +0.168 C 
ATOM      4  C   UNL     1     -35.304  21.509   2.267  0.00  0.00    +0.227 C 
ATOM      5  C   UNL     1     -35.177  21.207  -0.043  0.00  0.00    +0.175 C 
ATOM      6  C   UNL     1     -37.828  21.578   1.785  0.00  0.00    +0.036 C 
ENDROOT
BRANCH   4   9
ATOM      7  O   UNL     1     -35.350  21.149   5.066  0.00  0.00    -0.252 OA
ATOM      8  O   UNL     1     -36.159  25.625   5.807  0.00  0.00    -0.270 OA
ATOM      9  N   UNL     1     -35.523  22.562   3.214  0.00  0.00    -0.217 N 
ATOM     10  N   UNL     1     -35.753  23.379   5.433  0.00  0.00    -0.236 N 
ATOM     11  C   UNL     1     -35.528  22.276   4.598  0.00  0.00    +0.315 C 
ATOM     12  C   UNL     1     -35.730  23.862   2.768  0.00  0.00    +0.076 C 
ATOM     13  C   UNL     1     -35.943  24.903   3.575  0.00  0.00    +0.074 C 
ATOM     14  C   UNL     1     -35.965  24.690   5.037  0.00  0.00    +0.254 C 
ATOM     15  H   UNL     1     -35.761  23.204   6.402  0.00  0.00    +0.159 HD
ENDBRANCH   4   9
BRANCH   2  16
ATOM     16  O   UNL     1     -36.820  19.689   2.814  0.00  0.00    -0.380 OA
ATOM     17  H   UNL     1     -36.355  18.883   2.543  0.00  0.00    +0.211 HD
ENDBRANCH   2  16
BRANCH   3  18
ATOM     18  O   UNL     1     -37.192  19.803  -0.309  0.00  0.00    -0.379 OA
ATOM     19  H   UNL     1     -36.860  19.630  -1.203  0.00  0.00    +0.211 HD
ENDBRANCH   3  18
BRANCH   5  20
ATOM     20  C   UNL     1     -35.736  22.062  -1.168  0.00  0.00    +0.169 C 
BRANCH  20  21
ATOM     21  O   UNL     1     -35.739  21.301  -2.365  0.00  0.00    -0.379 OA
ATOM     22  H   UNL     1     -35.769  21.898  -3.128  0.00  0.00    +0.211 HD
ENDBRANCH  20  21
ENDBRANCH   5  20
TORSDOF 5
ENDMDL
