MODEL 1
REMARK VINA RESULT:      -6.4      0.000      0.000
REMARK  Name = 58603070
REMARK  5 active torsions:
REMARK  status: ('A' for Active; 'I' for Inactive)
REMARK    1  A    between atoms: N_2  and  C1*_15
REMARK    2  A    between atoms: C2*_16  and  O2*_19
REMARK    3  A    between atoms: C3*_17  and  O3*_21
REMARK    4  A    between atoms: C4*_18  and  C5*_23
REMARK    5  A    between atoms: C5*_23  and  O5*_24
REMARK                            x       y       z     vdW  Elec       q    Type
REMARK                         _______ _______ _______ _____ _____    ______ ____
ROOT
ATOM      1  O   UNL     1     -31.505  28.212   3.076  0.00  0.00    -0.191 OA
ATOM      2  N   UNL     1     -35.302  25.911   3.858  0.00  0.00    -0.222 N 
ATOM      3  N   UNL     1     -33.414  27.048   3.583  0.00  0.00    -0.142 N 
ATOM      4  N   UNL     1     -33.962  26.564   5.802  0.00  0.00    -0.295 NA
ATOM      5  N   UNL     1     -31.985  27.774   5.269  0.00  0.00    -0.240 NA
ATOM      6  N   UNL     1     -32.492  27.316   7.487  0.00  0.00    -0.283 N 
ATOM      7  C   UNL     1     -34.245  26.488   4.548  0.00  0.00    +0.277 C 
ATOM      8  C   UNL     1     -35.093  26.119   2.504  0.00  0.00    +0.088 C 
ATOM      9  C   UNL     1     -33.953  26.811   2.337  0.00  0.00    +0.102 C 
ATOM     10  C   UNL     1     -32.254  27.711   3.914  0.00  0.00    +0.290 C 
ATOM     11  C   UNL     1     -32.795  27.232   6.149  0.00  0.00    +0.210 C 
ATOM     12  H   UNL     1     -33.093  26.912   8.153  0.00  0.00    +0.156 HD
ATOM     13  H   UNL     1     -31.674  27.779   7.777  0.00  0.00    +0.156 HD
ENDROOT
BRANCH   2  15
ATOM     14  O4* UNL     1     -35.878  24.361   5.545  0.00  0.00    -0.333 OA
ATOM     15  C1* UNL     1     -36.378  25.152   4.451  0.00  0.00    +0.229 C 
ATOM     16  C2* UNL     1     -36.979  24.185   3.433  0.00  0.00    +0.187 C 
ATOM     17  C3* UNL     1     -36.298  22.872   3.758  0.00  0.00    +0.171 C 
ATOM     18  C4* UNL     1     -36.130  22.972   5.269  0.00  0.00    +0.175 C 
BRANCH  16  19
ATOM     19  O2* UNL     1     -38.377  24.052   3.675  0.00  0.00    -0.378 OA
ATOM     20  H2* UNL     1     -38.666  24.743   4.293  0.00  0.00    +0.211 HD
ENDBRANCH  16  19
BRANCH  17  21
ATOM     21  O3* UNL     1     -35.031  22.818   3.115  0.00  0.00    -0.379 OA
ATOM     22  H3* UNL     1     -35.110  23.177   2.217  0.00  0.00    +0.211 HD
ENDBRANCH  17  21
BRANCH  18  23
ATOM     23  C5* UNL     1     -35.011  22.133   5.859  0.00  0.00    +0.169 C 
BRANCH  23  24
ATOM     24  O5* UNL     1     -35.193  20.783   5.462  0.00  0.00    -0.379 OA
ATOM     25  H5* UNL     1     -36.030  20.450   5.822  0.00  0.00    +0.211 HD
ENDBRANCH  23  24
ENDBRANCH  18  23
ENDBRANCH   2  15
TORSDOF 5
ENDMDL
MODEL 2
REMARK VINA RESULT:      -6.1      2.667      3.973
REMARK  Name = 58603070
REMARK  5 active torsions:
REMARK  status: ('A' for Active; 'I' for Inactive)
REMARK    1  A    between atoms: N_2  and  C1*_15
REMARK    2  A    between atoms: C2*_16  and  O2*_19
REMARK    3  A    between atoms: C3*_17  and  O3*_21
REMARK    4  A    between atoms: C4*_18  and  C5*_23
REMARK    5  A    between atoms: C5*_23  and  O5*_24
REMARK                            x       y       z     vdW  Elec       q    Type
REMARK                         _______ _______ _______ _____ _____    ______ ____
ROOT
ATOM      1  O   UNL     1     -33.104  25.321   4.245  0.00  0.00    -0.191 OA
ATOM      2  N   UNL     1     -37.462  25.652   3.139  0.00  0.00    -0.222 N 
ATOM      3  N   UNL     1     -35.341  25.400   3.748  0.00  0.00    -0.142 N 
ATOM      4  N   UNL     1     -36.820  23.831   4.647  0.00  0.00    -0.295 NA
ATOM      5  N   UNL     1     -34.499  23.756   5.162  0.00  0.00    -0.240 NA
ATOM      6  N   UNL     1     -35.933  22.179   6.079  0.00  0.00    -0.283 N 
ATOM      7  C   UNL     1     -36.615  24.864   3.905  0.00  0.00    +0.277 C 
ATOM      8  C   UNL     1     -36.698  26.634   2.530  0.00  0.00    +0.088 C 
ATOM      9  C   UNL     1     -35.415  26.485   2.901  0.00  0.00    +0.102 C 
ATOM     10  C   UNL     1     -34.239  24.862   4.374  0.00  0.00    +0.290 C 
ATOM     11  C   UNL     1     -35.717  23.280   5.285  0.00  0.00    +0.210 C 
ATOM     12  H   UNL     1     -36.842  21.814   6.176  0.00  0.00    +0.156 HD
ATOM     13  H   UNL     1     -35.179  21.756   6.548  0.00  0.00    +0.156 HD
ENDROOT
BRANCH   2  15
ATOM     14  O4* UNL     1     -39.200  24.057   3.253  0.00  0.00    -0.333 OA
ATOM     15  C1* UNL     1     -38.875  25.425   2.946  0.00  0.00    +0.229 C 
ATOM     16  C2* UNL     1     -39.265  25.666   1.490  0.00  0.00    +0.187 C 
ATOM     17  C3* UNL     1     -39.284  24.271   0.901  0.00  0.00    +0.171 C 
ATOM     18  C4* UNL     1     -39.764  23.438   2.083  0.00  0.00    +0.175 C 
BRANCH  16  19
ATOM     19  O2* UNL     1     -40.582  26.208   1.436  0.00  0.00    -0.378 OA
ATOM     20  H2* UNL     1     -40.716  26.648   0.582  0.00  0.00    +0.211 HD
ENDBRANCH  16  19
BRANCH  17  21
ATOM     21  O3* UNL     1     -37.966  23.893   0.522  0.00  0.00    -0.379 OA
ATOM     22  H3* UNL     1     -37.328  24.296   1.132  0.00  0.00    +0.211 HD
ENDBRANCH  17  21
BRANCH  18  23
ATOM     23  C5* UNL     1     -39.370  21.973   2.051  0.00  0.00    +0.169 C 
BRANCH  23  24
ATOM     24  O5* UNL     1     -38.084  21.831   2.632  0.00  0.00    -0.379 OA
ATOM     25  H5* UNL     1     -38.173  21.474   3.530  0.00  0.00    +0.211 HD
ENDBRANCH  23  24
ENDBRANCH  18  23
ENDBRANCH   2  15
TORSDOF 5
ENDMDL
MODEL 3
REMARK VINA RESULT:      -6.1      2.948      4.985
REMARK  Name = 58603070
REMARK  5 active torsions:
REMARK  status: ('A' for Active; 'I' for Inactive)
REMARK    1  A    between atoms: N_2  and  C1*_15
REMARK    2  A    between atoms: C2*_16  and  O2*_19
REMARK    3  A    between atoms: C3*_17  and  O3*_21
REMARK    4  A    between atoms: C4*_18  and  C5*_23
REMARK    5  A    between atoms: C5*_23  and  O5*_24
REMARK                            x       y       z     vdW  Elec       q    Type
REMARK                         _______ _______ _______ _____ _____    ______ ____
ROOT
ATOM      1  O   UNL     1     -33.717  25.805   5.490  0.00  0.00    -0.191 OA
ATOM      2  N   UNL     1     -37.162  25.012   2.693  0.00  0.00    -0.222 N 
ATOM      3  N   UNL     1     -35.485  25.302   4.119  0.00  0.00    -0.142 N 
ATOM      4  N   UNL     1     -36.625  23.275   4.335  0.00  0.00    -0.295 NA
ATOM      5  N   UNL     1     -34.793  23.803   5.757  0.00  0.00    -0.240 NA
ATOM      6  N   UNL     1     -35.897  21.778   6.007  0.00  0.00    -0.283 N 
ATOM      7  C   UNL     1     -36.481  24.409   3.740  0.00  0.00    +0.277 C 
ATOM      8  C   UNL     1     -36.571  26.241   2.450  0.00  0.00    +0.088 C 
ATOM      9  C   UNL     1     -35.559  26.420   3.314  0.00  0.00    +0.102 C 
ATOM     10  C   UNL     1     -34.606  25.028   5.143  0.00  0.00    +0.290 C 
ATOM     11  C   UNL     1     -35.745  22.987   5.370  0.00  0.00    +0.210 C 
ATOM     12  H   UNL     1     -36.608  21.159   5.723  0.00  0.00    +0.156 HD
ATOM     13  H   UNL     1     -35.295  21.532   6.746  0.00  0.00    +0.156 HD
ENDROOT
BRANCH   2  15
ATOM     14  O4* UNL     1     -38.646  25.300   0.878  0.00  0.00    -0.333 OA
ATOM     15  C1* UNL     1     -38.240  24.416   1.938  0.00  0.00    +0.229 C 
ATOM     16  C2* UNL     1     -39.459  24.189   2.828  0.00  0.00    +0.187 C 
ATOM     17  C3* UNL     1     -40.336  25.386   2.529  0.00  0.00    +0.171 C 
ATOM     18  C4* UNL     1     -40.034  25.634   1.056  0.00  0.00    +0.175 C 
BRANCH  16  19
ATOM     19  O2* UNL     1     -40.136  23.006   2.411  0.00  0.00    -0.378 OA
ATOM     20  H2* UNL     1     -39.490  22.366   2.072  0.00  0.00    +0.211 HD
ENDBRANCH  16  19
BRANCH  17  21
ATOM     21  O3* UNL     1     -39.920  26.493   3.319  0.00  0.00    -0.379 OA
ATOM     22  H3* UNL     1     -39.683  27.233   2.739  0.00  0.00    +0.211 HD
ENDBRANCH  17  21
BRANCH  18  23
ATOM     23  C5* UNL     1     -40.275  27.052   0.569  0.00  0.00    +0.169 C 
BRANCH  23  24
ATOM     24  O5* UNL     1     -39.069  27.789   0.690  0.00  0.00    -0.379 OA
ATOM     25  H5* UNL     1     -39.230  28.587   1.217  0.00  0.00    +0.211 HD
ENDBRANCH  23  24
ENDBRANCH  18  23
ENDBRANCH   2  15
TORSDOF 5
ENDMDL
MODEL 4
REMARK VINA RESULT:      -5.8      3.206      5.976
REMARK  Name = 58603070
REMARK  5 active torsions:
REMARK  status: ('A' for Active; 'I' for Inactive)
REMARK    1  A    between atoms: N_2  and  C1*_15
REMARK    2  A    between atoms: C2*_16  and  O2*_19
REMARK    3  A    between atoms: C3*_17  and  O3*_21
REMARK    4  A    between atoms: C4*_18  and  C5*_23
REMARK    5  A    between atoms: C5*_23  and  O5*_24
REMARK                            x       y       z     vdW  Elec       q    Type
REMARK                         _______ _______ _______ _____ _____    ______ ____
ROOT
ATOM      1  O   UNL     1     -41.342  24.190   1.436  0.00  0.00    -0.191 OA
ATOM      2  N   UNL     1     -37.081  25.397   2.279  0.00  0.00    -0.222 N 
ATOM      3  N   UNL     1     -39.149  24.695   1.873  0.00  0.00    -0.142 N 
ATOM      4  N   UNL     1     -37.589  23.000   2.263  0.00  0.00    -0.295 NA
ATOM      5  N   UNL     1     -39.865  22.483   1.806  0.00  0.00    -0.240 NA
ATOM      6  N   UNL     1     -38.349  20.768   2.186  0.00  0.00    -0.283 N 
ATOM      7  C   UNL     1     -37.860  24.255   2.158  0.00  0.00    +0.277 C 
ATOM      8  C   UNL     1     -37.900  26.496   2.078  0.00  0.00    +0.088 C 
ATOM      9  C   UNL     1     -39.150  26.073   1.828  0.00  0.00    +0.102 C 
ATOM     10  C   UNL     1     -40.196  23.820   1.687  0.00  0.00    +0.290 C 
ATOM     11  C   UNL     1     -38.636  22.108   2.076  0.00  0.00    +0.210 C 
ATOM     12  H   UNL     1     -37.430  20.477   2.390  0.00  0.00    +0.156 HD
ATOM     13  H   UNL     1     -39.061  20.101   2.062  0.00  0.00    +0.156 HD
ENDROOT
BRANCH   2  15
ATOM     14  O4* UNL     1     -35.323  24.206   3.315  0.00  0.00    -0.333 OA
ATOM     15  C1* UNL     1     -35.683  25.425   2.640  0.00  0.00    +0.229 C 
ATOM     16  C2* UNL     1     -35.400  26.574   3.605  0.00  0.00    +0.187 C 
ATOM     17  C3* UNL     1     -35.409  25.900   4.961  0.00  0.00    +0.171 C 
ATOM     18  C4* UNL     1     -34.839  24.526   4.631  0.00  0.00    +0.175 C 
BRANCH  16  19
ATOM     19  O2* UNL     1     -34.095  27.091   3.356  0.00  0.00    -0.378 OA
ATOM     20  H2* UNL     1     -33.952  27.883   3.898  0.00  0.00    +0.211 HD
ENDBRANCH  16  19
BRANCH  17  21
ATOM     21  O3* UNL     1     -36.747  25.788   5.430  0.00  0.00    -0.379 OA
ATOM     22  H3* UNL     1     -37.066  24.884   5.282  0.00  0.00    +0.211 HD
ENDBRANCH  17  21
BRANCH  18  23
ATOM     23  C5* UNL     1     -35.219  23.413   5.590  0.00  0.00    +0.169 C 
BRANCH  23  24
ATOM     24  O5* UNL     1     -36.430  22.821   5.148  0.00  0.00    -0.379 OA
ATOM     25  H5* UNL     1     -36.543  22.987   4.199  0.00  0.00    +0.211 HD
ENDBRANCH  23  24
ENDBRANCH  18  23
ENDBRANCH   2  15
TORSDOF 5
ENDMDL
MODEL 5
REMARK VINA RESULT:      -5.7      3.198      5.853
REMARK  Name = 58603070
REMARK  5 active torsions:
REMARK  status: ('A' for Active; 'I' for Inactive)
REMARK    1  A    between atoms: N_2  and  C1*_15
REMARK    2  A    between atoms: C2*_16  and  O2*_19
REMARK    3  A    between atoms: C3*_17  and  O3*_21
REMARK    4  A    between atoms: C4*_18  and  C5*_23
REMARK    5  A    between atoms: C5*_23  and  O5*_24
REMARK                            x       y       z     vdW  Elec       q    Type
REMARK                         _______ _______ _______ _____ _____    ______ ____
ROOT
ATOM      1  O   UNL     1     -39.476  25.115  -0.441  0.00  0.00    -0.191 OA
ATOM      2  N   UNL     1     -37.242  25.092   3.474  0.00  0.00    -0.222 N 
ATOM      3  N   UNL     1     -38.380  25.000   1.569  0.00  0.00    -0.142 N 
ATOM      4  N   UNL     1     -38.572  23.108   2.927  0.00  0.00    -0.295 NA
ATOM      5  N   UNL     1     -39.704  23.232   0.839  0.00  0.00    -0.240 NA
ATOM      6  N   UNL     1     -39.922  21.334   2.155  0.00  0.00    -0.283 N 
ATOM      7  C   UNL     1     -38.085  24.284   2.724  0.00  0.00    +0.277 C 
ATOM      8  C   UNL     1     -37.050  26.273   2.776  0.00  0.00    +0.088 C 
ATOM      9  C   UNL     1     -37.735  26.217   1.621  0.00  0.00    +0.102 C 
ATOM     10  C   UNL     1     -39.202  24.495   0.586  0.00  0.00    +0.290 C 
ATOM     11  C   UNL     1     -39.401  22.589   1.942  0.00  0.00    +0.210 C 
ATOM     12  H   UNL     1     -39.701  20.844   2.981  0.00  0.00    +0.156 HD
ATOM     13  H   UNL     1     -40.515  20.928   1.484  0.00  0.00    +0.156 HD
ENDROOT
BRANCH   2  15
ATOM     14  O4* UNL     1     -35.978  25.897   5.300  0.00  0.00    -0.333 OA
ATOM     15  C1* UNL     1     -36.733  24.783   4.790  0.00  0.00    +0.229 C 
ATOM     16  C2* UNL     1     -35.787  23.586   4.733  0.00  0.00    +0.187 C 
ATOM     17  C3* UNL     1     -34.416  24.228   4.701  0.00  0.00    +0.171 C 
ATOM     18  C4* UNL     1     -34.630  25.467   5.561  0.00  0.00    +0.175 C 
BRANCH  16  19
ATOM     19  O2* UNL     1     -35.912  22.826   5.932  0.00  0.00    -0.378 OA
ATOM     20  H2* UNL     1     -35.527  21.945   5.800  0.00  0.00    +0.211 HD
ENDBRANCH  16  19
BRANCH  17  21
ATOM     21  O3* UNL     1     -34.090  24.594   3.365  0.00  0.00    -0.379 OA
ATOM     22  H3* UNL     1     -33.153  24.409   3.200  0.00  0.00    +0.211 HD
ENDBRANCH  17  21
BRANCH  18  23
ATOM     23  C5* UNL     1     -33.677  26.618   5.297  0.00  0.00    +0.169 C 
BRANCH  23  24
ATOM     24  O5* UNL     1     -34.235  27.456   4.297  0.00  0.00    -0.379 OA
ATOM     25  H5* UNL     1     -34.520  26.914   3.544  0.00  0.00    +0.211 HD
ENDBRANCH  23  24
ENDBRANCH  18  23
ENDBRANCH   2  15
TORSDOF 5
ENDMDL
MODEL 6
REMARK VINA RESULT:      -5.7      3.445      5.352
REMARK  Name = 58603070
REMARK  5 active torsions:
REMARK  status: ('A' for Active; 'I' for Inactive)
REMARK    1  A    between atoms: N_2  and  C1*_15
REMARK    2  A    between atoms: C2*_16  and  O2*_19
REMARK    3  A    between atoms: C3*_17  and  O3*_21
REMARK    4  A    between atoms: C4*_18  and  C5*_23
REMARK    5  A    between atoms: C5*_23  and  O5*_24
REMARK                            x       y       z     vdW  Elec       q    Type
REMARK                         _______ _______ _______ _____ _____    ______ ____
ROOT
ATOM      1  O   UNL     1     -35.913  25.880   5.843  0.00  0.00    -0.191 OA
ATOM      2  N   UNL     1     -37.196  23.503   2.234  0.00  0.00    -0.222 N 
ATOM      3  N   UNL     1     -36.521  24.579   4.055  0.00  0.00    -0.142 N 
ATOM      4  N   UNL     1     -36.016  22.299   4.011  0.00  0.00    -0.295 NA
ATOM      5  N   UNL     1     -35.390  23.653   5.864  0.00  0.00    -0.240 NA
ATOM      6  N   UNL     1     -34.869  21.392   5.862  0.00  0.00    -0.283 N 
ATOM      7  C   UNL     1     -36.542  23.330   3.445  0.00  0.00    +0.277 C 
ATOM      8  C   UNL     1     -37.548  24.838   2.125  0.00  0.00    +0.088 C 
ATOM      9  C   UNL     1     -37.144  25.490   3.229  0.00  0.00    +0.102 C 
ATOM     10  C   UNL     1     -35.943  24.781   5.288  0.00  0.00    +0.290 C 
ATOM     11  C   UNL     1     -35.430  22.490   5.255  0.00  0.00    +0.210 C 
ATOM     12  H   UNL     1     -34.893  20.516   5.413  0.00  0.00    +0.156 HD
ATOM     13  H   UNL     1     -34.442  21.481   6.744  0.00  0.00    +0.156 HD
ENDROOT
BRANCH   2  15
ATOM     14  O4* UNL     1     -38.143  23.015   0.125  0.00  0.00    -0.333 OA
ATOM     15  C1* UNL     1     -37.390  22.483   1.231  0.00  0.00    +0.229 C 
ATOM     16  C2* UNL     1     -38.192  21.314   1.800  0.00  0.00    +0.187 C 
ATOM     17  C3* UNL     1     -39.603  21.599   1.328  0.00  0.00    +0.171 C 
ATOM     18  C4* UNL     1     -39.354  22.255  -0.024  0.00  0.00    +0.175 C 
BRANCH  16  19
ATOM     19  O2* UNL     1     -37.744  20.099   1.206  0.00  0.00    -0.378 OA
ATOM     20  H2* UNL     1     -37.765  19.388   1.867  0.00  0.00    +0.211 HD
ENDBRANCH  16  19
BRANCH  17  21
ATOM     21  O3* UNL     1     -40.230  22.511   2.221  0.00  0.00    -0.379 OA
ATOM     22  H3* UNL     1     -40.435  22.058   3.054  0.00  0.00    +0.211 HD
ENDBRANCH  17  21
BRANCH  18  23
ATOM     23  C5* UNL     1     -40.461  23.167  -0.520  0.00  0.00    +0.169 C 
BRANCH  23  24
ATOM     24  O5* UNL     1     -41.712  22.632  -0.118  0.00  0.00    -0.379 OA
ATOM     25  H5* UNL     1     -42.428  23.169  -0.492  0.00  0.00    +0.211 HD
ENDBRANCH  23  24
ENDBRANCH  18  23
ENDBRANCH   2  15
TORSDOF 5
ENDMDL
MODEL 7
REMARK VINA RESULT:      -5.7      3.279      5.104
REMARK  Name = 58603070
REMARK  5 active torsions:
REMARK  status: ('A' for Active; 'I' for Inactive)
REMARK    1  A    between atoms: N_2  and  C1*_15
REMARK    2  A    between atoms: C2*_16  and  O2*_19
REMARK    3  A    between atoms: C3*_17  and  O3*_21
REMARK    4  A    between atoms: C4*_18  and  C5*_23
REMARK    5  A    between atoms: C5*_23  and  O5*_24
REMARK                            x       y       z     vdW  Elec       q    Type
REMARK                         _______ _______ _______ _____ _____    ______ ____
ROOT
ATOM      1  O   UNL     1     -34.726  21.986   5.824  0.00  0.00    -0.191 OA
ATOM      2  N   UNL     1     -36.903  23.095   2.036  0.00  0.00    -0.222 N 
ATOM      3  N   UNL     1     -35.849  22.653   3.939  0.00  0.00    -0.142 N 
ATOM      4  N   UNL     1     -36.700  24.821   3.762  0.00  0.00    -0.295 NA
ATOM      5  N   UNL     1     -35.532  24.124   5.713  0.00  0.00    -0.240 NA
ATOM      6  N   UNL     1     -36.361  26.287   5.579  0.00  0.00    -0.283 N 
ATOM      7  C   UNL     1     -36.527  23.652   3.249  0.00  0.00    +0.277 C 
ATOM      8  C   UNL     1     -36.461  21.782   2.013  0.00  0.00    +0.088 C 
ATOM      9  C   UNL     1     -35.819  21.514   3.162  0.00  0.00    +0.102 C 
ATOM     10  C   UNL     1     -35.327  22.857   5.197  0.00  0.00    +0.290 C 
ATOM     11  C   UNL     1     -36.179  25.040   5.030  0.00  0.00    +0.210 C 
ATOM     12  H   UNL     1     -36.845  26.980   5.075  0.00  0.00    +0.156 HD
ATOM     13  H   UNL     1     -36.008  26.485   6.476  0.00  0.00    +0.156 HD
ENDROOT
BRANCH   2  15
ATOM     14  O4* UNL     1     -38.411  24.859   1.592  0.00  0.00    -0.333 OA
ATOM     15  C1* UNL     1     -37.694  23.749   1.020  0.00  0.00    +0.229 C 
ATOM     16  C2* UNL     1     -38.733  22.790   0.444  0.00  0.00    +0.187 C 
ATOM     17  C3* UNL     1     -39.993  23.146   1.205  0.00  0.00    +0.171 C 
ATOM     18  C4* UNL     1     -39.822  24.646   1.409  0.00  0.00    +0.175 C 
BRANCH  16  19
ATOM     19  O2* UNL     1     -38.930  23.078  -0.937  0.00  0.00    -0.378 OA
ATOM     20  H2* UNL     1     -39.743  22.647  -1.245  0.00  0.00    +0.211 HD
ENDBRANCH  16  19
BRANCH  17  21
ATOM     21  O3* UNL     1     -40.005  22.467   2.455  0.00  0.00    -0.379 OA
ATOM     22  H3* UNL     1     -39.829  21.525   2.311  0.00  0.00    +0.211 HD
ENDBRANCH  17  21
BRANCH  18  23
ATOM     23  C5* UNL     1     -40.574  25.235   2.588  0.00  0.00    +0.169 C 
BRANCH  23  24
ATOM     24  O5* UNL     1     -39.854  24.955   3.778  0.00  0.00    -0.379 OA
ATOM     25  H5* UNL     1     -39.164  25.626   3.903  0.00  0.00    +0.211 HD
ENDBRANCH  23  24
ENDBRANCH  18  23
ENDBRANCH   2  15
TORSDOF 5
ENDMDL
MODEL 8
REMARK VINA RESULT:      -5.6      2.872      5.323
REMARK  Name = 58603070
REMARK  5 active torsions:
REMARK  status: ('A' for Active; 'I' for Inactive)
REMARK    1  A    between atoms: N_2  and  C1*_15
REMARK    2  A    between atoms: C2*_16  and  O2*_19
REMARK    3  A    between atoms: C3*_17  and  O3*_21
REMARK    4  A    between atoms: C4*_18  and  C5*_23
REMARK    5  A    between atoms: C5*_23  and  O5*_24
REMARK                            x       y       z     vdW  Elec       q    Type
REMARK                         _______ _______ _______ _____ _____    ______ ____
ROOT
ATOM      1  O   UNL     1     -35.070  20.057   1.689  0.00  0.00    -0.191 OA
ATOM      2  N   UNL     1     -35.562  24.457   2.538  0.00  0.00    -0.222 N 
ATOM      3  N   UNL     1     -35.323  22.271   2.231  0.00  0.00    -0.142 N 
ATOM      4  N   UNL     1     -35.529  22.938   4.460  0.00  0.00    -0.295 NA
ATOM      5  N   UNL     1     -35.263  20.644   3.892  0.00  0.00    -0.240 NA
ATOM      6  N   UNL     1     -35.462  21.263   6.119  0.00  0.00    -0.283 N 
ATOM      7  C   UNL     1     -35.481  23.246   3.210  0.00  0.00    +0.277 C 
ATOM      8  C   UNL     1     -35.462  24.200   1.180  0.00  0.00    +0.088 C 
ATOM      9  C   UNL     1     -35.314  22.878   0.993  0.00  0.00    +0.102 C 
ATOM     10  C   UNL     1     -35.208  20.934   2.541  0.00  0.00    +0.290 C 
ATOM     11  C   UNL     1     -35.413  21.594   4.786  0.00  0.00    +0.210 C 
ATOM     12  H   UNL     1     -35.576  21.968   6.797  0.00  0.00    +0.156 HD
ATOM     13  H   UNL     1     -35.385  20.322   6.396  0.00  0.00    +0.156 HD
ENDROOT
BRANCH   2  15
ATOM     14  O4* UNL     1     -34.875  26.716   2.627  0.00  0.00    -0.333 OA
ATOM     15  C1* UNL     1     -35.798  25.743   3.151  0.00  0.00    +0.229 C 
ATOM     16  C2* UNL     1     -35.569  25.672   4.659  0.00  0.00    +0.187 C 
ATOM     17  C3* UNL     1     -34.162  26.207   4.822  0.00  0.00    +0.171 C 
ATOM     18  C4* UNL     1     -34.091  27.247   3.710  0.00  0.00    +0.175 C 
BRANCH  16  19
ATOM     19  O2* UNL     1     -36.477  26.551   5.318  0.00  0.00    -0.378 OA
ATOM     20  H2* UNL     1     -36.542  27.381   4.820  0.00  0.00    +0.211 HD
ENDBRANCH  16  19
BRANCH  17  21
ATOM     21  O3* UNL     1     -33.223  25.163   4.593  0.00  0.00    -0.379 OA
ATOM     22  H3* UNL     1     -33.657  24.306   4.722  0.00  0.00    +0.211 HD
ENDBRANCH  17  21
BRANCH  18  23
ATOM     23  C5* UNL     1     -32.697  27.572   3.208  0.00  0.00    +0.169 C 
BRANCH  23  24
ATOM     24  O5* UNL     1     -31.807  27.600   4.312  0.00  0.00    -0.379 OA
ATOM     25  H5* UNL     1     -32.032  26.883   4.926  0.00  0.00    +0.211 HD
ENDBRANCH  23  24
ENDBRANCH  18  23
ENDBRANCH   2  15
TORSDOF 5
ENDMDL
MODEL 9
REMARK VINA RESULT:      -5.6      2.794      3.786
REMARK  Name = 58603070
REMARK  5 active torsions:
REMARK  status: ('A' for Active; 'I' for Inactive)
REMARK    1  A    between atoms: N_2  and  C1*_15
REMARK    2  A    between atoms: C2*_16  and  O2*_19
REMARK    3  A    between atoms: C3*_17  and  O3*_21
REMARK    4  A    between atoms: C4*_18  and  C5*_23
REMARK    5  A    between atoms: C5*_23  and  O5*_24
REMARK                            x       y       z     vdW  Elec       q    Type
REMARK                         _______ _______ _______ _____ _____    ______ ____
ROOT
ATOM      1  O   UNL     1     -37.279  29.662   0.449  0.00  0.00    -0.191 OA
ATOM      2  N   UNL     1     -35.145  26.545   2.910  0.00  0.00    -0.222 N 
ATOM      3  N   UNL     1     -36.139  28.160   1.754  0.00  0.00    -0.142 N 
ATOM      4  N   UNL     1     -34.587  28.892   3.338  0.00  0.00    -0.295 NA
ATOM      5  N   UNL     1     -35.774  30.445   1.984  0.00  0.00    -0.240 NA
ATOM      6  N   UNL     1     -34.242  31.216   3.547  0.00  0.00    -0.283 N 
ATOM      7  C   UNL     1     -35.204  27.922   2.755  0.00  0.00    +0.277 C 
ATOM      8  C   UNL     1     -36.027  25.976   2.005  0.00  0.00    +0.088 C 
ATOM      9  C   UNL     1     -36.632  26.952   1.308  0.00  0.00    +0.102 C 
ATOM     10  C   UNL     1     -36.456  29.433   1.335  0.00  0.00    +0.290 C 
ATOM     11  C   UNL     1     -34.898  30.180   2.926  0.00  0.00    +0.210 C 
ATOM     12  H   UNL     1     -33.582  31.026   4.253  0.00  0.00    +0.156 HD
ATOM     13  H   UNL     1     -34.430  32.145   3.285  0.00  0.00    +0.156 HD
ENDROOT
BRANCH   2  15
ATOM     14  O4* UNL     1     -34.355  24.419   3.569  0.00  0.00    -0.333 OA
ATOM     15  C1* UNL     1     -34.254  25.836   3.797  0.00  0.00    +0.229 C 
ATOM     16  C2* UNL     1     -34.634  26.086   5.255  0.00  0.00    +0.187 C 
ATOM     17  C3* UNL     1     -35.452  24.863   5.614  0.00  0.00    +0.171 C 
ATOM     18  C4* UNL     1     -34.773  23.778   4.787  0.00  0.00    +0.175 C 
BRANCH  16  19
ATOM     19  O2* UNL     1     -33.456  26.105   6.055  0.00  0.00    -0.378 OA
ATOM     20  H2* UNL     1     -32.713  26.444   5.530  0.00  0.00    +0.211 HD
ENDBRANCH  16  19
BRANCH  17  21
ATOM     21  O3* UNL     1     -36.798  25.047   5.194  0.00  0.00    -0.379 OA
ATOM     22  H3* UNL     1     -37.397  24.801   5.916  0.00  0.00    +0.211 HD
ENDBRANCH  17  21
BRANCH  18  23
ATOM     23  C5* UNL     1     -35.638  22.577   4.451  0.00  0.00    +0.169 C 
BRANCH  23  24
ATOM     24  O5* UNL     1     -36.205  22.071   5.648  0.00  0.00    -0.379 OA
ATOM     25  H5* UNL     1     -37.149  22.293   5.677  0.00  0.00    +0.211 HD
ENDBRANCH  23  24
ENDBRANCH  18  23
ENDBRANCH   2  15
TORSDOF 5
ENDMDL
