MODEL 1
REMARK VINA RESULT:      -5.7      0.000      0.000
REMARK  Name = 54235934
REMARK  8 active torsions:
REMARK  status: ('A' for Active; 'I' for Inactive)
REMARK    1  A    between atoms: C_2  and  O_17
REMARK    2  A    between atoms: C_3  and  C_19
REMARK    3  A    between atoms: C_5  and  N_8
REMARK    4  A    between atoms: C_12  and  S_15
REMARK    5  A    between atoms: C_19  and  O_20
REMARK    6  A    between atoms: O_20  and  P_21
REMARK    7  A    between atoms: P_21  and  O_23
REMARK    8  A    between atoms: P_21  and  O_25
REMARK                            x       y       z     vdW  Elec       q    Type
REMARK                         _______ _______ _______ _____ _____    ______ ____
ROOT
ATOM      1  O   UNL     1     -36.798  23.163   4.467  0.00  0.00    -0.335 OA
ATOM      2  C   UNL     1     -35.264  21.563   3.626  0.00  0.00    +0.144 C 
ATOM      3  C   UNL     1     -35.671  22.356   4.860  0.00  0.00    +0.174 C 
ATOM      4  C   UNL     1     -35.673  22.468   2.487  0.00  0.00    +0.083 C 
ATOM      5  C   UNL     1     -36.917  23.148   3.037  0.00  0.00    +0.202 C 
ENDROOT
BRANCH   5   8
ATOM      6  O   UNL     1     -39.141  24.785   3.602  0.00  0.00    -0.252 OA
ATOM      7  O   UNL     1     -37.453  28.298   1.168  0.00  0.00    -0.269 OA
ATOM      8  N   UNL     1     -37.074  24.491   2.560  0.00  0.00    -0.218 N 
ATOM      9  N   UNL     1     -38.281  26.525   2.382  0.00  0.00    -0.235 N 
ATOM     10  C   UNL     1     -36.089  25.061   1.763  0.00  0.00    +0.082 C 
ATOM     11  C   UNL     1     -38.230  25.226   2.902  0.00  0.00    +0.315 C 
ATOM     12  C   UNL     1     -36.149  26.304   1.271  0.00  0.00    +0.090 C 
ATOM     13  C   UNL     1     -37.331  27.149   1.584  0.00  0.00    +0.259 C 
ATOM     14  H   UNL     1     -39.079  27.056   2.609  0.00  0.00    +0.159 HD
BRANCH  12  15
ATOM     15  S   UNL     1     -34.900  26.970   0.285  0.00  0.00    -0.136 S 
ATOM     16  H   UNL     1     -35.445  27.835  -0.612  0.00  0.00    +0.107 HD
ENDBRANCH  12  15
ENDBRANCH   5   8
BRANCH   2  17
ATOM     17  O   UNL     1     -36.007  20.347   3.564  0.00  0.00    -0.382 OA
ATOM     18  H   UNL     1     -35.910  19.954   2.683  0.00  0.00    +0.210 HD
ENDBRANCH   2  17
BRANCH   3  19
ATOM     19  C   UNL     1     -34.574  23.291   5.352  0.00  0.00    +0.186 C 
BRANCH  19  20
ATOM     20  O   UNL     1     -35.146  24.556   5.641  0.00  0.00    -0.271 OA
BRANCH  20  21
ATOM     21  P   UNL     1     -34.376  25.885   5.131  0.00  0.00    +0.473 P 
ATOM     22  O   UNL     1     -33.380  25.658   4.031  0.00  0.00    -0.227 OA
BRANCH  21  23
ATOM     23  O   UNL     1     -35.590  26.884   4.757  0.00  0.00    -0.303 OA
ATOM     24  H   UNL     1     -35.594  27.045   3.800  0.00  0.00    +0.222 HD
ENDBRANCH  21  23
BRANCH  21  25
ATOM     25  O   UNL     1     -33.773  26.525   6.489  0.00  0.00    -0.303 OA
ATOM     26  H   UNL     1     -34.442  27.090   6.904  0.00  0.00    +0.222 HD
ENDBRANCH  21  25
ENDBRANCH  20  21
ENDBRANCH  19  20
ENDBRANCH   3  19
TORSDOF 8
ENDMDL
MODEL 2
REMARK VINA RESULT:      -5.6      1.411      1.670
REMARK  Name = 54235934
REMARK  8 active torsions:
REMARK  status: ('A' for Active; 'I' for Inactive)
REMARK    1  A    between atoms: C_2  and  O_17
REMARK    2  A    between atoms: C_3  and  C_19
REMARK    3  A    between atoms: C_5  and  N_8
REMARK    4  A    between atoms: C_12  and  S_15
REMARK    5  A    between atoms: C_19  and  O_20
REMARK    6  A    between atoms: O_20  and  P_21
REMARK    7  A    between atoms: P_21  and  O_23
REMARK    8  A    between atoms: P_21  and  O_25
REMARK                            x       y       z     vdW  Elec       q    Type
REMARK                         _______ _______ _______ _____ _____    ______ ____
ROOT
ATOM      1  O   UNL     1     -37.076  22.998   4.073  0.00  0.00    -0.335 OA
ATOM      2  C   UNL     1     -35.563  21.588   2.914  0.00  0.00    +0.144 C 
ATOM      3  C   UNL     1     -35.744  22.455   4.152  0.00  0.00    +0.174 C 
ATOM      4  C   UNL     1     -36.461  22.252   1.897  0.00  0.00    +0.083 C 
ATOM      5  C   UNL     1     -37.602  22.776   2.756  0.00  0.00    +0.202 C 
ENDROOT
BRANCH   5   8
ATOM      6  O   UNL     1     -40.320  23.125   2.095  0.00  0.00    -0.252 OA
ATOM      7  O   UNL     1     -39.680  27.498   0.837  0.00  0.00    -0.269 OA
ATOM      8  N   UNL     1     -38.161  23.997   2.255  0.00  0.00    -0.218 N 
ATOM      9  N   UNL     1     -39.979  25.305   1.472  0.00  0.00    -0.235 N 
ATOM     10  C   UNL     1     -37.344  25.106   2.068  0.00  0.00    +0.082 C 
ATOM     11  C   UNL     1     -39.539  24.067   1.955  0.00  0.00    +0.315 C 
ATOM     12  C   UNL     1     -37.776  26.284   1.606  0.00  0.00    +0.090 C 
ATOM     13  C   UNL     1     -39.214  26.445   1.265  0.00  0.00    +0.259 C 
ATOM     14  H   UNL     1     -40.936  25.375   1.256  0.00  0.00    +0.159 HD
BRANCH  12  15
ATOM     15  S   UNL     1     -36.724  27.634   1.389  0.00  0.00    -0.136 S 
ATOM     16  H   UNL     1     -35.637  27.495   2.195  0.00  0.00    +0.107 HD
ENDBRANCH  12  15
ENDBRANCH   5   8
BRANCH   2  17
ATOM     17  O   UNL     1     -36.029  20.265   3.175  0.00  0.00    -0.382 OA
ATOM     18  H   UNL     1     -36.997  20.249   3.128  0.00  0.00    +0.210 HD
ENDBRANCH   2  17
BRANCH   3  19
ATOM     19  C   UNL     1     -34.766  23.620   4.209  0.00  0.00    +0.186 C 
BRANCH  19  20
ATOM     20  O   UNL     1     -35.061  24.411   5.349  0.00  0.00    -0.271 OA
BRANCH  20  21
ATOM     21  P   UNL     1     -34.839  26.012   5.254  0.00  0.00    +0.473 P 
ATOM     22  O   UNL     1     -33.897  26.583   6.273  0.00  0.00    -0.227 OA
BRANCH  21  23
ATOM     23  O   UNL     1     -34.390  26.222   3.715  0.00  0.00    -0.303 OA
ATOM     24  H   UNL     1     -33.994  25.403   3.378  0.00  0.00    +0.222 HD
ENDBRANCH  21  23
BRANCH  21  25
ATOM     25  O   UNL     1     -36.341  26.610   5.288  0.00  0.00    -0.303 OA
ATOM     26  H   UNL     1     -36.900  26.118   4.667  0.00  0.00    +0.222 HD
ENDBRANCH  21  25
ENDBRANCH  20  21
ENDBRANCH  19  20
ENDBRANCH   3  19
TORSDOF 8
ENDMDL
MODEL 3
REMARK VINA RESULT:      -5.5      2.933      4.656
REMARK  Name = 54235934
REMARK  8 active torsions:
REMARK  status: ('A' for Active; 'I' for Inactive)
REMARK    1  A    between atoms: C_2  and  O_17
REMARK    2  A    between atoms: C_3  and  C_19
REMARK    3  A    between atoms: C_5  and  N_8
REMARK    4  A    between atoms: C_12  and  S_15
REMARK    5  A    between atoms: C_19  and  O_20
REMARK    6  A    between atoms: O_20  and  P_21
REMARK    7  A    between atoms: P_21  and  O_23
REMARK    8  A    between atoms: P_21  and  O_25
REMARK                            x       y       z     vdW  Elec       q    Type
REMARK                         _______ _______ _______ _____ _____    ______ ____
ROOT
ATOM      1  O   UNL     1     -34.615  23.440   3.499  0.00  0.00    -0.335 OA
ATOM      2  C   UNL     1     -35.632  22.589   5.465  0.00  0.00    +0.144 C 
ATOM      3  C   UNL     1     -35.540  22.433   3.953  0.00  0.00    +0.174 C 
ATOM      4  C   UNL     1     -35.359  24.061   5.674  0.00  0.00    +0.083 C 
ATOM      5  C   UNL     1     -34.372  24.374   4.560  0.00  0.00    +0.202 C 
ENDROOT
BRANCH   5   8
ATOM      6  O   UNL     1     -32.879  26.578   5.487  0.00  0.00    -0.252 OA
ATOM      7  O   UNL     1     -34.940  29.478   2.578  0.00  0.00    -0.269 OA
ATOM      8  N   UNL     1     -34.506  25.710   4.057  0.00  0.00    -0.218 N 
ATOM      9  N   UNL     1     -33.920  28.009   4.028  0.00  0.00    -0.235 N 
ATOM     10  C   UNL     1     -35.420  25.978   3.045  0.00  0.00    +0.082 C 
ATOM     11  C   UNL     1     -33.708  26.745   4.591  0.00  0.00    +0.315 C 
ATOM     12  C   UNL     1     -35.615  27.191   2.514  0.00  0.00    +0.090 C 
ATOM     13  C   UNL     1     -34.815  28.338   3.019  0.00  0.00    +0.259 C 
ATOM     14  H   UNL     1     -33.374  28.745   4.386  0.00  0.00    +0.159 HD
BRANCH  12  15
ATOM     15  S   UNL     1     -36.763  27.478   1.259  0.00  0.00    -0.136 S 
ATOM     16  H   UNL     1     -36.183  27.238   0.052  0.00  0.00    +0.107 HD
ENDBRANCH  12  15
ENDBRANCH   5   8
BRANCH   2  17
ATOM     17  O   UNL     1     -34.612  21.817   6.096  0.00  0.00    -0.382 OA
ATOM     18  H   UNL     1     -33.746  22.083   5.751  0.00  0.00    +0.210 HD
ENDBRANCH   2  17
BRANCH   3  19
ATOM     19  C   UNL     1     -36.870  22.669   3.251  0.00  0.00    +0.186 C 
BRANCH  19  20
ATOM     20  O   UNL     1     -36.773  22.200   1.915  0.00  0.00    -0.271 OA
BRANCH  20  21
ATOM     21  P   UNL     1     -37.562  20.845   1.514  0.00  0.00    +0.473 P 
ATOM     22  O   UNL     1     -37.624  20.560   0.042  0.00  0.00    -0.227 OA
BRANCH  21  23
ATOM     23  O   UNL     1     -36.812  19.717   2.397  0.00  0.00    -0.303 OA
ATOM     24  H   UNL     1     -37.205  19.686   3.284  0.00  0.00    +0.222 HD
ENDBRANCH  21  23
BRANCH  21  25
ATOM     25  O   UNL     1     -38.993  21.002   2.250  0.00  0.00    -0.303 OA
ATOM     26  H   UNL     1     -39.034  21.860   2.699  0.00  0.00    +0.222 HD
ENDBRANCH  21  25
ENDBRANCH  20  21
ENDBRANCH  19  20
ENDBRANCH   3  19
TORSDOF 8
ENDMDL
MODEL 4
REMARK VINA RESULT:      -5.5      2.614      4.610
REMARK  Name = 54235934
REMARK  8 active torsions:
REMARK  status: ('A' for Active; 'I' for Inactive)
REMARK    1  A    between atoms: C_2  and  O_17
REMARK    2  A    between atoms: C_3  and  C_19
REMARK    3  A    between atoms: C_5  and  N_8
REMARK    4  A    between atoms: C_12  and  S_15
REMARK    5  A    between atoms: C_19  and  O_20
REMARK    6  A    between atoms: O_20  and  P_21
REMARK    7  A    between atoms: P_21  and  O_23
REMARK    8  A    between atoms: P_21  and  O_25
REMARK                            x       y       z     vdW  Elec       q    Type
REMARK                         _______ _______ _______ _____ _____    ______ ____
ROOT
ATOM      1  O   UNL     1     -37.747  22.937   3.378  0.00  0.00    -0.335 OA
ATOM      2  C   UNL     1     -39.095  23.714   1.589  0.00  0.00    +0.144 C 
ATOM      3  C   UNL     1     -38.304  22.525   2.115  0.00  0.00    +0.174 C 
ATOM      4  C   UNL     1     -38.365  24.899   2.178  0.00  0.00    +0.083 C 
ATOM      5  C   UNL     1     -37.887  24.359   3.517  0.00  0.00    +0.202 C 
ENDROOT
BRANCH   5   8
ATOM      6  O   UNL     1     -36.240  23.267   5.527  0.00  0.00    -0.252 OA
ATOM      7  O   UNL     1     -33.084  26.572   5.045  0.00  0.00    -0.269 OA
ATOM      8  N   UNL     1     -36.634  24.921   3.928  0.00  0.00    -0.218 N 
ATOM      9  N   UNL     1     -34.678  24.926   5.271  0.00  0.00    -0.235 N 
ATOM     10  C   UNL     1     -36.163  26.079   3.322  0.00  0.00    +0.082 C 
ATOM     11  C   UNL     1     -35.884  24.294   4.947  0.00  0.00    +0.315 C 
ATOM     12  C   UNL     1     -35.008  26.675   3.639  0.00  0.00    +0.090 C 
ATOM     13  C   UNL     1     -34.156  26.081   4.702  0.00  0.00    +0.259 C 
ATOM     14  H   UNL     1     -34.139  24.505   5.980  0.00  0.00    +0.159 HD
BRANCH  12  15
ATOM     15  S   UNL     1     -34.465  28.114   2.859  0.00  0.00    -0.136 S 
ATOM     16  H   UNL     1     -34.911  28.129   1.574  0.00  0.00    +0.107 HD
ENDBRANCH  12  15
ENDBRANCH   5   8
BRANCH   2  17
ATOM     17  O   UNL     1     -40.428  23.672   2.095  0.00  0.00    -0.382 OA
ATOM     18  H   UNL     1     -40.955  24.370   1.676  0.00  0.00    +0.210 HD
ENDBRANCH   2  17
BRANCH   3  19
ATOM     19  C   UNL     1     -37.151  22.130   1.202  0.00  0.00    +0.186 C 
BRANCH  19  20
ATOM     20  O   UNL     1     -35.966  22.033   1.976  0.00  0.00    -0.271 OA
BRANCH  20  21
ATOM     21  P   UNL     1     -35.523  20.578   2.529  0.00  0.00    +0.473 P 
ATOM     22  O   UNL     1     -34.287  20.008   1.895  0.00  0.00    -0.227 OA
BRANCH  21  23
ATOM     23  O   UNL     1     -35.424  20.815   4.125  0.00  0.00    -0.303 OA
ATOM     24  H   UNL     1     -34.971  21.655   4.301  0.00  0.00    +0.222 HD
ENDBRANCH  21  23
BRANCH  21  25
ATOM     25  O   UNL     1     -36.860  19.683   2.368  0.00  0.00    -0.303 OA
ATOM     26  H   UNL     1     -37.640  20.231   2.544  0.00  0.00    +0.222 HD
ENDBRANCH  21  25
ENDBRANCH  20  21
ENDBRANCH  19  20
ENDBRANCH   3  19
TORSDOF 8
ENDMDL
MODEL 5
REMARK VINA RESULT:      -5.4      3.060      4.494
REMARK  Name = 54235934
REMARK  8 active torsions:
REMARK  status: ('A' for Active; 'I' for Inactive)
REMARK    1  A    between atoms: C_2  and  O_17
REMARK    2  A    between atoms: C_3  and  C_19
REMARK    3  A    between atoms: C_5  and  N_8
REMARK    4  A    between atoms: C_12  and  S_15
REMARK    5  A    between atoms: C_19  and  O_20
REMARK    6  A    between atoms: O_20  and  P_21
REMARK    7  A    between atoms: P_21  and  O_23
REMARK    8  A    between atoms: P_21  and  O_25
REMARK                            x       y       z     vdW  Elec       q    Type
REMARK                         _______ _______ _______ _____ _____    ______ ____
ROOT
ATOM      1  O   UNL     1     -34.305  24.460   3.680  0.00  0.00    -0.335 OA
ATOM      2  C   UNL     1     -35.895  23.796   5.309  0.00  0.00    +0.144 C 
ATOM      3  C   UNL     1     -35.444  23.598   3.869  0.00  0.00    +0.174 C 
ATOM      4  C   UNL     1     -35.486  25.221   5.602  0.00  0.00    +0.083 C 
ATOM      5  C   UNL     1     -34.214  25.374   4.782  0.00  0.00    +0.202 C 
ENDROOT
BRANCH   5   8
ATOM      6  O   UNL     1     -32.252  27.169   5.716  0.00  0.00    -0.252 OA
ATOM      7  O   UNL     1     -33.574  30.473   2.809  0.00  0.00    -0.269 OA
ATOM      8  N   UNL     1     -34.033  26.705   4.281  0.00  0.00    -0.218 N 
ATOM      9  N   UNL     1     -32.928  28.804   4.258  0.00  0.00    -0.235 N 
ATOM     10  C   UNL     1     -34.857  27.181   3.268  0.00  0.00    +0.082 C 
ATOM     11  C   UNL     1     -33.017  27.525   4.819  0.00  0.00    +0.315 C 
ATOM     12  C   UNL     1     -34.762  28.406   2.739  0.00  0.00    +0.090 C 
ATOM     13  C   UNL     1     -33.719  29.335   3.247  0.00  0.00    +0.259 C 
ATOM     14  H   UNL     1     -32.226  29.393   4.619  0.00  0.00    +0.159 HD
BRANCH  12  15
ATOM     15  S   UNL     1     -35.809  28.954   1.483  0.00  0.00    -0.136 S 
ATOM     16  H   UNL     1     -35.987  27.957   0.574  0.00  0.00    +0.107 HD
ENDBRANCH  12  15
ENDBRANCH   5   8
BRANCH   2  17
ATOM     17  O   UNL     1     -35.184  22.905   6.167  0.00  0.00    -0.382 OA
ATOM     18  H   UNL     1     -35.444  21.992   5.971  0.00  0.00    +0.210 HD
ENDBRANCH   2  17
BRANCH   3  19
ATOM     19  C   UNL     1     -36.507  23.997   2.854  0.00  0.00    +0.186 C 
BRANCH  19  20
ATOM     20  O   UNL     1     -37.777  23.966   3.485  0.00  0.00    -0.271 OA
BRANCH  20  21
ATOM     21  P   UNL     1     -38.893  25.044   3.024  0.00  0.00    +0.473 P 
ATOM     22  O   UNL     1     -39.347  24.917   1.599  0.00  0.00    -0.227 OA
BRANCH  21  23
ATOM     23  O   UNL     1     -40.057  24.852   4.130  0.00  0.00    -0.303 OA
ATOM     24  H   UNL     1     -40.432  23.960   4.055  0.00  0.00    +0.222 HD
ENDBRANCH  21  23
BRANCH  21  25
ATOM     25  O   UNL     1     -38.237  26.469   3.417  0.00  0.00    -0.303 OA
ATOM     26  H   UNL     1     -38.811  26.925   4.052  0.00  0.00    +0.222 HD
ENDBRANCH  21  25
ENDBRANCH  20  21
ENDBRANCH  19  20
ENDBRANCH   3  19
TORSDOF 8
ENDMDL
MODEL 6
REMARK VINA RESULT:      -5.3      2.571      4.549
REMARK  Name = 54235934
REMARK  8 active torsions:
REMARK  status: ('A' for Active; 'I' for Inactive)
REMARK    1  A    between atoms: C_2  and  O_17
REMARK    2  A    between atoms: C_3  and  C_19
REMARK    3  A    between atoms: C_5  and  N_8
REMARK    4  A    between atoms: C_12  and  S_15
REMARK    5  A    between atoms: C_19  and  O_20
REMARK    6  A    between atoms: O_20  and  P_21
REMARK    7  A    between atoms: P_21  and  O_23
REMARK    8  A    between atoms: P_21  and  O_25
REMARK                            x       y       z     vdW  Elec       q    Type
REMARK                         _______ _______ _______ _____ _____    ______ ____
ROOT
ATOM      1  O   UNL     1     -37.313  23.718   3.742  0.00  0.00    -0.335 OA
ATOM      2  C   UNL     1     -38.904  24.257   2.070  0.00  0.00    +0.144 C 
ATOM      3  C   UNL     1     -38.118  23.121   2.708  0.00  0.00    +0.174 C 
ATOM      4  C   UNL     1     -37.995  25.450   2.258  0.00  0.00    +0.083 C 
ATOM      5  C   UNL     1     -37.322  25.144   3.587  0.00  0.00    +0.202 C 
ENDROOT
BRANCH   5   8
ATOM      6  O   UNL     1     -36.175  26.314   5.881  0.00  0.00    -0.252 OA
ATOM      7  O   UNL     1     -32.150  27.019   3.779  0.00  0.00    -0.269 OA
ATOM      8  N   UNL     1     -35.978  25.638   3.656  0.00  0.00    -0.218 N 
ATOM      9  N   UNL     1     -34.175  26.657   4.814  0.00  0.00    -0.235 N 
ATOM     10  C   UNL     1     -35.152  25.554   2.541  0.00  0.00    +0.082 C 
ATOM     11  C   UNL     1     -35.500  26.207   4.857  0.00  0.00    +0.315 C 
ATOM     12  C   UNL     1     -33.887  25.988   2.511  0.00  0.00    +0.090 C 
ATOM     13  C   UNL     1     -33.303  26.600   3.734  0.00  0.00    +0.259 C 
ATOM     14  H   UNL     1     -33.821  27.057   5.641  0.00  0.00    +0.159 HD
BRANCH  12  15
ATOM     15  S   UNL     1     -32.899  25.863   1.103  0.00  0.00    -0.136 S 
ATOM     16  H   UNL     1     -33.482  25.013   0.215  0.00  0.00    +0.107 HD
ENDBRANCH  12  15
ENDBRANCH   5   8
BRANCH   2  17
ATOM     17  O   UNL     1     -40.122  24.464   2.783  0.00  0.00    -0.382 OA
ATOM     18  H   UNL     1     -40.457  23.613   3.104  0.00  0.00    +0.210 HD
ENDBRANCH   2  17
BRANCH   3  19
ATOM     19  C   UNL     1     -37.182  22.425   1.729  0.00  0.00    +0.186 C 
BRANCH  19  20
ATOM     20  O   UNL     1     -35.945  22.174   2.376  0.00  0.00    -0.271 OA
BRANCH  20  21
ATOM     21  P   UNL     1     -35.528  20.638   2.672  0.00  0.00    +0.473 P 
ATOM     22  O   UNL     1     -34.381  20.124   1.852  0.00  0.00    -0.227 OA
BRANCH  21  23
ATOM     23  O   UNL     1     -35.281  20.634   4.270  0.00  0.00    -0.303 OA
ATOM     24  H   UNL     1     -35.799  19.921   4.676  0.00  0.00    +0.222 HD
ENDBRANCH  21  23
BRANCH  21  25
ATOM     25  O   UNL     1     -36.916  19.825   2.508  0.00  0.00    -0.303 OA
ATOM     26  H   UNL     1     -37.330  19.714   3.378  0.00  0.00    +0.222 HD
ENDBRANCH  21  25
ENDBRANCH  20  21
ENDBRANCH  19  20
ENDBRANCH   3  19
TORSDOF 8
ENDMDL
MODEL 7
REMARK VINA RESULT:      -5.3      2.522      5.242
REMARK  Name = 54235934
REMARK  8 active torsions:
REMARK  status: ('A' for Active; 'I' for Inactive)
REMARK    1  A    between atoms: C_2  and  O_17
REMARK    2  A    between atoms: C_3  and  C_19
REMARK    3  A    between atoms: C_5  and  N_8
REMARK    4  A    between atoms: C_12  and  S_15
REMARK    5  A    between atoms: C_19  and  O_20
REMARK    6  A    between atoms: O_20  and  P_21
REMARK    7  A    between atoms: P_21  and  O_23
REMARK    8  A    between atoms: P_21  and  O_25
REMARK                            x       y       z     vdW  Elec       q    Type
REMARK                         _______ _______ _______ _____ _____    ______ ____
ROOT
ATOM      1  O   UNL     1     -35.957  25.804   4.012  0.00  0.00    -0.335 OA
ATOM      2  C   UNL     1     -33.951  27.002   3.612  0.00  0.00    +0.144 C 
ATOM      3  C   UNL     1     -35.460  27.016   3.413  0.00  0.00    +0.174 C 
ATOM      4  C   UNL     1     -33.623  25.527   3.634  0.00  0.00    +0.083 C 
ATOM      5  C   UNL     1     -34.857  24.925   4.287  0.00  0.00    +0.202 C 
ENDROOT
BRANCH   5   8
ATOM      6  O   UNL     1     -35.908  22.841   5.869  0.00  0.00    -0.252 OA
ATOM      7  O   UNL     1     -36.009  19.910   2.331  0.00  0.00    -0.269 OA
ATOM      8  N   UNL     1     -35.163  23.613   3.796  0.00  0.00    -0.218 N 
ATOM      9  N   UNL     1     -35.949  21.394   4.090  0.00  0.00    -0.235 N 
ATOM     10  C   UNL     1     -34.942  23.307   2.458  0.00  0.00    +0.082 C 
ATOM     11  C   UNL     1     -35.687  22.640   4.673  0.00  0.00    +0.315 C 
ATOM     12  C   UNL     1     -35.196  22.113   1.911  0.00  0.00    +0.090 C 
ATOM     13  C   UNL     1     -35.751  21.030   2.765  0.00  0.00    +0.259 C 
ATOM     14  H   UNL     1     -36.315  20.700   4.685  0.00  0.00    +0.159 HD
BRANCH  12  15
ATOM     15  S   UNL     1     -34.904  21.778   0.244  0.00  0.00    -0.136 S 
ATOM     16  H   UNL     1     -35.839  20.900  -0.211  0.00  0.00    +0.107 HD
ENDBRANCH  12  15
ENDBRANCH   5   8
BRANCH   2  17
ATOM     17  O   UNL     1     -33.621  27.586   4.871  0.00  0.00    -0.382 OA
ATOM     18  H   UNL     1     -32.693  27.869   4.862  0.00  0.00    +0.210 HD
ENDBRANCH   2  17
BRANCH   3  19
ATOM     19  C   UNL     1     -35.865  27.015   1.946  0.00  0.00    +0.186 C 
BRANCH  19  20
ATOM     20  O   UNL     1     -37.203  27.474   1.839  0.00  0.00    -0.271 OA
BRANCH  20  21
ATOM     21  P   UNL     1     -38.395  26.380   1.822  0.00  0.00    +0.473 P 
ATOM     22  O   UNL     1     -38.009  25.030   1.290  0.00  0.00    -0.227 OA
BRANCH  21  23
ATOM     23  O   UNL     1     -38.912  26.387   3.353  0.00  0.00    -0.303 OA
ATOM     24  H   UNL     1     -38.216  26.039   3.932  0.00  0.00    +0.222 HD
ENDBRANCH  21  23
BRANCH  21  25
ATOM     25  O   UNL     1     -39.588  27.123   1.023  0.00  0.00    -0.303 OA
ATOM     26  H   UNL     1     -39.574  26.850   0.092  0.00  0.00    +0.222 HD
ENDBRANCH  21  25
ENDBRANCH  20  21
ENDBRANCH  19  20
ENDBRANCH   3  19
TORSDOF 8
ENDMDL
MODEL 8
REMARK VINA RESULT:      -5.3      3.301      5.321
REMARK  Name = 54235934
REMARK  8 active torsions:
REMARK  status: ('A' for Active; 'I' for Inactive)
REMARK    1  A    between atoms: C_2  and  O_17
REMARK    2  A    between atoms: C_3  and  C_19
REMARK    3  A    between atoms: C_5  and  N_8
REMARK    4  A    between atoms: C_12  and  S_15
REMARK    5  A    between atoms: C_19  and  O_20
REMARK    6  A    between atoms: O_20  and  P_21
REMARK    7  A    between atoms: P_21  and  O_23
REMARK    8  A    between atoms: P_21  and  O_25
REMARK                            x       y       z     vdW  Elec       q    Type
REMARK                         _______ _______ _______ _____ _____    ______ ____
ROOT
ATOM      1  O   UNL     1     -35.801  21.192   3.377  0.00  0.00    -0.335 OA
ATOM      2  C   UNL     1     -37.201  21.133   1.465  0.00  0.00    +0.144 C 
ATOM      3  C   UNL     1     -36.072  20.418   2.192  0.00  0.00    +0.174 C 
ATOM      4  C   UNL     1     -37.001  22.578   1.858  0.00  0.00    +0.083 C 
ATOM      5  C   UNL     1     -36.461  22.462   3.275  0.00  0.00    +0.202 C 
ENDROOT
BRANCH   5   8
ATOM      6  O   UNL     1     -35.912  23.326   5.901  0.00  0.00    -0.252 OA
ATOM      7  O   UNL     1     -32.890  26.477   4.467  0.00  0.00    -0.269 OA
ATOM      8  N   UNL     1     -35.535  23.505   3.605  0.00  0.00    -0.218 N 
ATOM      9  N   UNL     1     -34.408  24.893   5.165  0.00  0.00    -0.235 N 
ATOM     10  C   UNL     1     -34.842  24.160   2.594  0.00  0.00    +0.082 C 
ATOM     11  C   UNL     1     -35.332  23.863   4.956  0.00  0.00    +0.315 C 
ATOM     12  C   UNL     1     -33.960  25.143   2.805  0.00  0.00    +0.090 C 
ATOM     13  C   UNL     1     -33.686  25.582   4.199  0.00  0.00    +0.259 C 
ATOM     14  H   UNL     1     -34.252  25.158   6.100  0.00  0.00    +0.159 HD
BRANCH  12  15
ATOM     15  S   UNL     1     -33.123  25.928   1.517  0.00  0.00    -0.136 S 
ATOM     16  H   UNL     1     -32.293  25.038   0.908  0.00  0.00    +0.107 HD
ENDBRANCH  12  15
ENDBRANCH   5   8
BRANCH   2  17
ATOM     17  O   UNL     1     -38.461  20.672   1.952  0.00  0.00    -0.382 OA
ATOM     18  H   UNL     1     -38.388  19.738   2.201  0.00  0.00    +0.210 HD
ENDBRANCH   2  17
BRANCH   3  19
ATOM     19  C   UNL     1     -34.789  20.350   1.374  0.00  0.00    +0.186 C 
BRANCH  19  20
ATOM     20  O   UNL     1     -33.899  19.434   1.992  0.00  0.00    -0.271 OA
BRANCH  20  21
ATOM     21  P   UNL     1     -33.093  18.391   1.054  0.00  0.00    +0.473 P 
ATOM     22  O   UNL     1     -31.888  17.764   1.692  0.00  0.00    -0.227 OA
BRANCH  21  23
ATOM     23  O   UNL     1     -34.245  17.350   0.601  0.00  0.00    -0.303 OA
ATOM     24  H   UNL     1     -35.073  17.831   0.444  0.00  0.00    +0.222 HD
ENDBRANCH  21  23
BRANCH  21  25
ATOM     25  O   UNL     1     -32.802  19.233  -0.296  0.00  0.00    -0.303 OA
ATOM     26  H   UNL     1     -33.147  20.134  -0.195  0.00  0.00    +0.222 HD
ENDBRANCH  21  25
ENDBRANCH  20  21
ENDBRANCH  19  20
ENDBRANCH   3  19
TORSDOF 8
ENDMDL
MODEL 9
REMARK VINA RESULT:      -5.1      2.153      2.610
REMARK  Name = 54235934
REMARK  8 active torsions:
REMARK  status: ('A' for Active; 'I' for Inactive)
REMARK    1  A    between atoms: C_2  and  O_17
REMARK    2  A    between atoms: C_3  and  C_19
REMARK    3  A    between atoms: C_5  and  N_8
REMARK    4  A    between atoms: C_12  and  S_15
REMARK    5  A    between atoms: C_19  and  O_20
REMARK    6  A    between atoms: O_20  and  P_21
REMARK    7  A    between atoms: P_21  and  O_23
REMARK    8  A    between atoms: P_21  and  O_25
REMARK                            x       y       z     vdW  Elec       q    Type
REMARK                         _______ _______ _______ _____ _____    ______ ____
ROOT
ATOM      1  O   UNL     1     -36.784  24.235   4.475  0.00  0.00    -0.335 OA
ATOM      2  C   UNL     1     -35.284  22.737   5.537  0.00  0.00    +0.144 C 
ATOM      3  C   UNL     1     -35.756  24.183   5.483  0.00  0.00    +0.174 C 
ATOM      4  C   UNL     1     -35.520  22.248   4.126  0.00  0.00    +0.083 C 
ATOM      5  C   UNL     1     -36.765  23.019   3.714  0.00  0.00    +0.202 C 
ENDROOT
BRANCH   5   8
ATOM      6  O   UNL     1     -39.117  23.326   2.192  0.00  0.00    -0.252 OA
ATOM      7  O   UNL     1     -36.773  24.229  -1.656  0.00  0.00    -0.269 OA
ATOM      8  N   UNL     1     -36.787  23.333   2.316  0.00  0.00    -0.218 N 
ATOM      9  N   UNL     1     -37.928  23.774   0.283  0.00  0.00    -0.235 N 
ATOM     10  C   UNL     1     -35.592  23.506   1.627  0.00  0.00    +0.082 C 
ATOM     11  C   UNL     1     -38.022  23.466   1.646  0.00  0.00    +0.315 C 
ATOM     12  C   UNL     1     -35.514  23.800   0.324  0.00  0.00    +0.090 C 
ATOM     13  C   UNL     1     -36.768  23.959  -0.458  0.00  0.00    +0.259 C 
ATOM     14  H   UNL     1     -38.778  23.871  -0.203  0.00  0.00    +0.159 HD
BRANCH  12  15
ATOM     15  S   UNL     1     -34.007  24.005  -0.489  0.00  0.00    -0.136 S 
ATOM     16  H   UNL     1     -33.164  22.995  -0.143  0.00  0.00    +0.107 HD
ENDBRANCH  12  15
ENDBRANCH   5   8
BRANCH   2  17
ATOM     17  O   UNL     1     -36.095  21.994   6.445  0.00  0.00    -0.382 OA
ATOM     18  H   UNL     1     -35.627  21.895   7.288  0.00  0.00    +0.210 HD
ENDBRANCH   2  17
BRANCH   3  19
ATOM     19  C   UNL     1     -34.654  25.153   5.078  0.00  0.00    +0.186 C 
BRANCH  19  20
ATOM     20  O   UNL     1     -35.228  26.429   4.849  0.00  0.00    -0.271 OA
BRANCH  20  21
ATOM     21  P   UNL     1     -35.182  27.037   3.350  0.00  0.00    +0.473 P 
ATOM     22  O   UNL     1     -34.077  26.507   2.484  0.00  0.00    -0.227 OA
BRANCH  21  23
ATOM     23  O   UNL     1     -36.676  26.753   2.801  0.00  0.00    -0.303 OA
ATOM     24  H   UNL     1     -37.325  27.126   3.418  0.00  0.00    +0.222 HD
ENDBRANCH  21  23
BRANCH  21  25
ATOM     25  O   UNL     1     -35.171  28.637   3.585  0.00  0.00    -0.303 OA
ATOM     26  H   UNL     1     -35.284  29.090   2.734  0.00  0.00    +0.222 HD
ENDBRANCH  21  25
ENDBRANCH  20  21
ENDBRANCH  19  20
ENDBRANCH   3  19
TORSDOF 8
ENDMDL
