MODEL 1
REMARK VINA RESULT:      -6.4      0.000      0.000
REMARK  Name = 5355255
REMARK  9 active torsions:
REMARK  status: ('A' for Active; 'I' for Inactive)
REMARK    1  A    between atoms: C_6  and  C_34
REMARK    2  A    between atoms: C_8  and  O_20
REMARK    3  A    between atoms: C_9  and  C_18
REMARK    4  A    between atoms: C_12  and  O_22
REMARK    5  A    between atoms: C_13  and  C_27
REMARK    6  A    between atoms: C_15  and  C_31
REMARK    7  A    between atoms: C_16  and  O_24
REMARK    8  A    between atoms: C_27  and  O_28
REMARK    9  A    between atoms: C_31  and  O_32
REMARK                            x       y       z     vdW  Elec       q    Type
REMARK                         _______ _______ _______ _____ _____    ______ ____
ROOT
ATOM      1  O   UNL     1     -33.618  25.943   1.404  0.00  0.00    -0.286 OA
ATOM      2  O   UNL     1     -33.630  26.552   6.712  0.00  0.00    -0.286 OA
ATOM      3  C   UNL     1     -32.957  27.418   4.618  0.00  0.00    +0.078 A 
ATOM      4  C   UNL     1     -32.959  27.251   3.232  0.00  0.00    +0.079 A 
ATOM      5  C   UNL     1     -34.282  25.091   3.495  0.00  0.00    +0.049 C 
ATOM      6  C   UNL     1     -31.699  29.471   4.365  0.00  0.00    +0.017 A 
ATOM      7  C   UNL     1     -34.280  25.259   4.882  0.00  0.00    +0.045 C 
ATOM      8  C   UNL     1     -32.325  28.532   5.186  0.00  0.00    +0.133 A 
ATOM      9  C   UNL     1     -31.702  29.303   2.983  0.00  0.00    +0.067 A 
ATOM     10  C   UNL     1     -33.622  26.081   2.620  0.00  0.00    +0.199 C 
ATOM     11  C   UNL     1     -33.617  26.429   5.494  0.00  0.00    +0.199 C 
ATOM     12  C   UNL     1     -32.330  28.195   2.413  0.00  0.00    +0.139 A 
ATOM     13  C   UNL     1     -34.913  23.978   2.929  0.00  0.00    +0.088 C 
ATOM     14  C   UNL     1     -34.909  24.313   5.701  0.00  0.00    +0.040 C 
ATOM     15  C   UNL     1     -35.539  23.038   3.748  0.00  0.00    +0.115 C 
ATOM     16  C   UNL     1     -35.536  23.205   5.132  0.00  0.00    +0.140 C 
ENDROOT
BRANCH   9  18
ATOM     17  O   UNL     1     -29.890  30.111   1.706  0.00  0.00    -0.291 OA
ATOM     18  C   UNL     1     -31.048  30.288   2.125  0.00  0.00    +0.176 C 
ATOM     19  C   UNL     1     -31.782  31.561   1.728  0.00  0.00    +0.077 C 
ENDBRANCH   9  18
BRANCH   8  20
ATOM     20  O   UNL     1     -32.298  28.740   6.534  0.00  0.00    -0.506 OA
ATOM     21  H   UNL     1     -31.507  28.592   7.015  0.00  0.00    +0.292 HD
ENDBRANCH   8  20
BRANCH  12  22
ATOM     22  O   UNL     1     -32.305  28.077   1.053  0.00  0.00    -0.505 OA
ATOM     23  H   UNL     1     -32.777  27.384   0.634  0.00  0.00    +0.292 HD
ENDBRANCH  12  22
BRANCH  16  24
ATOM     24  O   UNL     1     -36.140  22.297   5.950  0.00  0.00    -0.505 OA
ATOM     25  H   UNL     1     -36.303  22.512   6.848  0.00  0.00    +0.292 HD
ENDBRANCH  16  24
BRANCH  13  27
ATOM     26  O   UNL     1     -34.153  23.038   0.863  0.00  0.00    -0.245 OA
ATOM     27  C   UNL     1     -34.959  23.727   1.487  0.00  0.00    +0.338 C 
BRANCH  27  28
ATOM     28  O   UNL     1     -36.011  24.347   0.894  0.00  0.00    -0.477 OA
ATOM     29  H   UNL     1     -36.247  24.131   0.013  0.00  0.00    +0.295 HD
ENDBRANCH  27  28
ENDBRANCH  13  27
BRANCH  15  31
ATOM     30  O   UNL     1     -37.196  21.898   2.452  0.00  0.00    -0.245 OA
ATOM     31  C   UNL     1     -36.203  21.866   3.180  0.00  0.00    +0.341 C 
BRANCH  31  32
ATOM     32  O   UNL     1     -35.599  20.706   3.546  0.00  0.00    -0.477 OA
ATOM     33  H   UNL     1     -34.664  20.653   3.572  0.00  0.00    +0.295 HD
ENDBRANCH  31  32
ENDBRANCH  15  31
BRANCH   6  34
ATOM     34  C   UNL     1     -31.027  30.661   4.979  0.00  0.00    +0.030 C 
ATOM     35  C   UNL     1     -29.588  30.363   5.381  0.00  0.00    +0.005 C 
ENDBRANCH   6  34
TORSDOF 9
ENDMDL
MODEL 2
REMARK VINA RESULT:      -6.3      5.495      8.778
REMARK  Name = 5355255
REMARK  9 active torsions:
REMARK  status: ('A' for Active; 'I' for Inactive)
REMARK    1  A    between atoms: C_6  and  C_34
REMARK    2  A    between atoms: C_8  and  O_20
REMARK    3  A    between atoms: C_9  and  C_18
REMARK    4  A    between atoms: C_12  and  O_22
REMARK    5  A    between atoms: C_13  and  C_27
REMARK    6  A    between atoms: C_15  and  C_31
REMARK    7  A    between atoms: C_16  and  O_24
REMARK    8  A    between atoms: C_27  and  O_28
REMARK    9  A    between atoms: C_31  and  O_32
REMARK                            x       y       z     vdW  Elec       q    Type
REMARK                         _______ _______ _______ _____ _____    ______ ____
ROOT
ATOM      1  O   UNL     1     -38.394  25.060   3.578  0.00  0.00    -0.286 OA
ATOM      2  O   UNL     1     -41.279  22.290   0.036  0.00  0.00    -0.286 OA
ATOM      3  C   UNL     1     -41.125  24.219   1.394  0.00  0.00    +0.078 A 
ATOM      4  C   UNL     1     -40.364  24.936   2.319  0.00  0.00    +0.079 A 
ATOM      5  C   UNL     1     -38.558  23.143   2.222  0.00  0.00    +0.049 C 
ATOM      6  C   UNL     1     -42.841  25.924   1.488  0.00  0.00    +0.017 A 
ATOM      7  C   UNL     1     -39.320  22.426   1.296  0.00  0.00    +0.045 C 
ATOM      8  C   UNL     1     -42.367  24.715   0.978  0.00  0.00    +0.133 A 
ATOM      9  C   UNL     1     -42.081  26.639   2.410  0.00  0.00    +0.067 A 
ATOM     10  C   UNL     1     -39.053  24.424   2.766  0.00  0.00    +0.199 C 
ATOM     11  C   UNL     1     -40.631  22.938   0.848  0.00  0.00    +0.199 C 
ATOM     12  C   UNL     1     -40.844  26.148   2.828  0.00  0.00    +0.139 A 
ATOM     13  C   UNL     1     -37.318  22.647   2.638  0.00  0.00    +0.088 C 
ATOM     14  C   UNL     1     -38.840  21.213   0.787  0.00  0.00    +0.040 C 
ATOM     15  C   UNL     1     -36.843  21.438   2.129  0.00  0.00    +0.115 C 
ATOM     16  C   UNL     1     -37.603  20.722   1.205  0.00  0.00    +0.140 C 
ENDROOT
BRANCH   9  18
ATOM     17  O   UNL     1     -42.240  28.992   2.442  0.00  0.00    -0.291 OA
ATOM     18  C   UNL     1     -42.578  27.905   2.942  0.00  0.00    +0.176 C 
ATOM     19  C   UNL     1     -43.529  27.912   4.131  0.00  0.00    +0.077 C 
ENDBRANCH   9  18
BRANCH   8  20
ATOM     20  O   UNL     1     -43.146  24.051   0.075  0.00  0.00    -0.506 OA
ATOM     21  H   UNL     1     -42.889  23.204  -0.232  0.00  0.00    +0.292 HD
ENDBRANCH   8  20
BRANCH  12  22
ATOM     22  O   UNL     1     -40.137  26.887   3.734  0.00  0.00    -0.505 OA
ATOM     23  H   UNL     1     -40.463  27.718   4.017  0.00  0.00    +0.292 HD
ENDBRANCH  12  22
BRANCH  16  24
ATOM     24  O   UNL     1     -37.159  19.538   0.697  0.00  0.00    -0.505 OA
ATOM     25  H   UNL     1     -36.264  19.284   0.816  0.00  0.00    +0.292 HD
ENDBRANCH  16  24
BRANCH  13  27
ATOM     26  O   UNL     1     -36.436  23.111   4.814  0.00  0.00    -0.245 OA
ATOM     27  C   UNL     1     -36.459  23.334   3.605  0.00  0.00    +0.338 C 
BRANCH  27  28
ATOM     28  O   UNL     1     -35.669  24.268   3.013  0.00  0.00    -0.477 OA
ATOM     29  H   UNL     1     -35.951  25.160   2.966  0.00  0.00    +0.295 HD
ENDBRANCH  27  28
ENDBRANCH  13  27
BRANCH  15  31
ATOM     30  O   UNL     1     -34.555  20.805   1.831  0.00  0.00    -0.245 OA
ATOM     31  C   UNL     1     -35.551  20.898   2.549  0.00  0.00    +0.341 C 
BRANCH  31  32
ATOM     32  O   UNL     1     -35.559  20.499   3.847  0.00  0.00    -0.477 OA
ATOM     33  H   UNL     1     -35.058  20.967   4.485  0.00  0.00    +0.295 HD
ENDBRANCH  31  32
ENDBRANCH  15  31
BRANCH   6  34
ATOM     34  C   UNL     1     -44.169  26.450   1.037  0.00  0.00    +0.030 C 
ATOM     35  C   UNL     1     -45.328  25.787   1.771  0.00  0.00    +0.005 C 
ENDBRANCH   6  34
TORSDOF 9
ENDMDL
MODEL 3
REMARK VINA RESULT:      -6.2      1.803      2.093
REMARK  Name = 5355255
REMARK  9 active torsions:
REMARK  status: ('A' for Active; 'I' for Inactive)
REMARK    1  A    between atoms: C_6  and  C_34
REMARK    2  A    between atoms: C_8  and  O_20
REMARK    3  A    between atoms: C_9  and  C_18
REMARK    4  A    between atoms: C_12  and  O_22
REMARK    5  A    between atoms: C_13  and  C_27
REMARK    6  A    between atoms: C_15  and  C_31
REMARK    7  A    between atoms: C_16  and  O_24
REMARK    8  A    between atoms: C_27  and  O_28
REMARK    9  A    between atoms: C_31  and  O_32
REMARK                            x       y       z     vdW  Elec       q    Type
REMARK                         _______ _______ _______ _____ _____    ______ ____
ROOT
ATOM      1  O   UNL     1     -34.799  28.185   2.203  0.00  0.00    -0.286 OA
ATOM      2  O   UNL     1     -32.507  26.602   6.762  0.00  0.00    -0.286 OA
ATOM      3  C   UNL     1     -32.542  28.182   5.005  0.00  0.00    +0.078 A 
ATOM      4  C   UNL     1     -33.147  28.588   3.814  0.00  0.00    +0.079 A 
ATOM      5  C   UNL     1     -34.754  26.618   3.959  0.00  0.00    +0.049 C 
ATOM      6  C   UNL     1     -31.016  30.057   4.865  0.00  0.00    +0.017 A 
ATOM      7  C   UNL     1     -34.148  26.212   5.150  0.00  0.00    +0.045 C 
ATOM      8  C   UNL     1     -31.473  28.919   5.531  0.00  0.00    +0.133 A 
ATOM      9  C   UNL     1     -31.621  30.461   3.677  0.00  0.00    +0.067 A 
ATOM     10  C   UNL     1     -34.275  27.821   3.248  0.00  0.00    +0.199 C 
ATOM     11  C   UNL     1     -33.020  26.980   5.716  0.00  0.00    +0.199 C 
ATOM     12  C   UNL     1     -32.685  29.730   3.149  0.00  0.00    +0.139 A 
ATOM     13  C   UNL     1     -35.821  25.881   3.433  0.00  0.00    +0.088 C 
ATOM     14  C   UNL     1     -34.610  25.069   5.815  0.00  0.00    +0.040 C 
ATOM     15  C   UNL     1     -36.278  24.743   4.098  0.00  0.00    +0.115 C 
ATOM     16  C   UNL     1     -35.674  24.338   5.287  0.00  0.00    +0.140 C 
ENDROOT
BRANCH   9  18
ATOM     17  O   UNL     1     -31.655  32.768   3.184  0.00  0.00    -0.291 OA
ATOM     18  C   UNL     1     -31.142  31.653   2.982  0.00  0.00    +0.176 C 
ATOM     19  C   UNL     1     -29.994  31.546   1.988  0.00  0.00    +0.077 C 
ENDBRANCH   9  18
BRANCH   8  20
ATOM     20  O   UNL     1     -30.851  28.563   6.692  0.00  0.00    -0.506 OA
ATOM     21  H   UNL     1     -30.142  27.949   6.674  0.00  0.00    +0.292 HD
ENDBRANCH   8  20
BRANCH  12  22
ATOM     22  O   UNL     1     -33.244  30.168   1.982  0.00  0.00    -0.505 OA
ATOM     23  H   UNL     1     -34.090  29.860   1.724  0.00  0.00    +0.292 HD
ENDBRANCH  12  22
BRANCH  16  24
ATOM     24  O   UNL     1     -36.105  23.228   5.951  0.00  0.00    -0.505 OA
ATOM     25  H   UNL     1     -36.966  23.208   6.320  0.00  0.00    +0.292 HD
ENDBRANCH  16  24
BRANCH  13  27
ATOM     26  O   UNL     1     -36.230  25.796   1.077  0.00  0.00    -0.245 OA
ATOM     27  C   UNL     1     -36.509  26.236   2.190  0.00  0.00    +0.338 C 
BRANCH  27  28
ATOM     28  O   UNL     1     -37.514  27.125   2.399  0.00  0.00    -0.477 OA
ATOM     29  H   UNL     1     -37.489  27.696   3.142  0.00  0.00    +0.295 HD
ENDBRANCH  27  28
ENDBRANCH  13  27
BRANCH  15  31
ATOM     30  O   UNL     1     -37.281  22.877   2.987  0.00  0.00    -0.245 OA
ATOM     31  C   UNL     1     -37.391  23.956   3.568  0.00  0.00    +0.341 C 
BRANCH  31  32
ATOM     32  O   UNL     1     -38.592  24.552   3.789  0.00  0.00    -0.477 OA
ATOM     33  H   UNL     1     -39.113  24.297   4.524  0.00  0.00    +0.295 HD
ENDBRANCH  31  32
ENDBRANCH  15  31
BRANCH   6  34
ATOM     34  C   UNL     1     -29.874  30.841   5.434  0.00  0.00    +0.030 C 
ATOM     35  C   UNL     1     -28.525  30.216   5.099  0.00  0.00    +0.005 C 
ENDBRANCH   6  34
TORSDOF 9
ENDMDL
MODEL 4
REMARK VINA RESULT:      -6.1     10.716     13.832
REMARK  Name = 5355255
REMARK  9 active torsions:
REMARK  status: ('A' for Active; 'I' for Inactive)
REMARK    1  A    between atoms: C_6  and  C_34
REMARK    2  A    between atoms: C_8  and  O_20
REMARK    3  A    between atoms: C_9  and  C_18
REMARK    4  A    between atoms: C_12  and  O_22
REMARK    5  A    between atoms: C_13  and  C_27
REMARK    6  A    between atoms: C_15  and  C_31
REMARK    7  A    between atoms: C_16  and  O_24
REMARK    8  A    between atoms: C_27  and  O_28
REMARK    9  A    between atoms: C_31  and  O_32
REMARK                            x       y       z     vdW  Elec       q    Type
REMARK                         _______ _______ _______ _____ _____    ______ ____
ROOT
ATOM      1  O   UNL     1     -43.969  27.459   3.097  0.00  0.00    -0.286 OA
ATOM      2  O   UNL     1     -47.693  25.286   6.252  0.00  0.00    -0.286 OA
ATOM      3  C   UNL     1     -46.517  25.174   4.205  0.00  0.00    +0.078 A 
ATOM      4  C   UNL     1     -45.542  25.748   3.388  0.00  0.00    +0.079 A 
ATOM      5  C   UNL     1     -45.147  27.561   5.133  0.00  0.00    +0.049 C 
ATOM      6  C   UNL     1     -46.890  23.452   2.544  0.00  0.00    +0.017 A 
ATOM      7  C   UNL     1     -46.122  26.985   5.950  0.00  0.00    +0.045 C 
ATOM      8  C   UNL     1     -47.193  24.023   3.782  0.00  0.00    +0.133 A 
ATOM      9  C   UNL     1     -45.918  24.027   1.730  0.00  0.00    +0.067 A 
ATOM     10  C   UNL     1     -44.822  26.963   3.822  0.00  0.00    +0.199 C 
ATOM     11  C   UNL     1     -46.843  25.771   5.516  0.00  0.00    +0.199 C 
ATOM     12  C   UNL     1     -45.242  25.174   2.147  0.00  0.00    +0.139 A 
ATOM     13  C   UNL     1     -44.472  28.711   5.556  0.00  0.00    +0.088 C 
ATOM     14  C   UNL     1     -46.422  27.561   7.191  0.00  0.00    +0.040 C 
ATOM     15  C   UNL     1     -44.774  29.282   6.792  0.00  0.00    +0.115 C 
ATOM     16  C   UNL     1     -45.747  28.708   7.609  0.00  0.00    +0.140 C 
ENDROOT
BRANCH   9  18
ATOM     17  O   UNL     1     -44.678  22.603   0.314  0.00  0.00    -0.291 OA
ATOM     18  C   UNL     1     -45.602  23.428   0.435  0.00  0.00    +0.176 C 
ATOM     19  C   UNL     1     -46.409  23.808  -0.798  0.00  0.00    +0.077 C 
ENDBRANCH   9  18
BRANCH   8  20
ATOM     20  O   UNL     1     -48.152  23.424   4.546  0.00  0.00    -0.506 OA
ATOM     21  H   UNL     1     -48.896  23.027   4.137  0.00  0.00    +0.292 HD
ENDBRANCH   8  20
BRANCH  12  22
ATOM     22  O   UNL     1     -44.297  25.698   1.312  0.00  0.00    -0.505 OA
ATOM     23  H   UNL     1     -43.827  26.468   1.562  0.00  0.00    +0.292 HD
ENDBRANCH  12  22
BRANCH  16  24
ATOM     24  O   UNL     1     -46.059  29.252   8.820  0.00  0.00    -0.505 OA
ATOM     25  H   UNL     1     -46.836  28.982   9.268  0.00  0.00    +0.292 HD
ENDBRANCH  16  24
BRANCH  13  27
ATOM     26  O   UNL     1     -42.233  29.157   4.840  0.00  0.00    -0.245 OA
ATOM     27  C   UNL     1     -43.440  29.377   4.760  0.00  0.00    +0.338 C 
BRANCH  27  28
ATOM     28  O   UNL     1     -43.966  30.286   3.898  0.00  0.00    -0.477 OA
ATOM     29  H   UNL     1     -43.419  30.946   3.521  0.00  0.00    +0.295 HD
ENDBRANCH  27  28
ENDBRANCH  13  27
BRANCH  15  31
ATOM     30  O   UNL     1     -44.215  31.608   6.770  0.00  0.00    -0.245 OA
ATOM     31  C   UNL     1     -44.084  30.485   7.256  0.00  0.00    +0.341 C 
BRANCH  31  32
ATOM     32  O   UNL     1     -43.262  30.231   8.308  0.00  0.00    -0.477 OA
ATOM     33  H   UNL     1     -43.184  29.360   8.643  0.00  0.00    +0.295 HD
ENDBRANCH  31  32
ENDBRANCH  15  31
BRANCH   6  34
ATOM     34  C   UNL     1     -47.616  22.220   2.098  0.00  0.00    +0.030 C 
ATOM     35  C   UNL     1     -48.979  22.542   1.500  0.00  0.00    +0.005 C 
ENDBRANCH   6  34
TORSDOF 9
ENDMDL
MODEL 5
REMARK VINA RESULT:      -6.1      1.163      3.631
REMARK  Name = 5355255
REMARK  9 active torsions:
REMARK  status: ('A' for Active; 'I' for Inactive)
REMARK    1  A    between atoms: C_6  and  C_34
REMARK    2  A    between atoms: C_8  and  O_20
REMARK    3  A    between atoms: C_9  and  C_18
REMARK    4  A    between atoms: C_12  and  O_22
REMARK    5  A    between atoms: C_13  and  C_27
REMARK    6  A    between atoms: C_15  and  C_31
REMARK    7  A    between atoms: C_16  and  O_24
REMARK    8  A    between atoms: C_27  and  O_28
REMARK    9  A    between atoms: C_31  and  O_32
REMARK                            x       y       z     vdW  Elec       q    Type
REMARK                         _______ _______ _______ _____ _____    ______ ____
ROOT
ATOM      1  O   UNL     1     -34.086  25.368   5.411  0.00  0.00    -0.286 OA
ATOM      2  O   UNL     1     -33.129  26.542   0.288  0.00  0.00    -0.286 OA
ATOM      3  C   UNL     1     -32.897  27.193   2.549  0.00  0.00    +0.078 A 
ATOM      4  C   UNL     1     -33.152  26.878   3.884  0.00  0.00    +0.079 A 
ATOM      5  C   UNL     1     -34.310  24.730   3.157  0.00  0.00    +0.049 C 
ATOM      6  C   UNL     1     -31.797  29.235   3.243  0.00  0.00    +0.017 A 
ATOM      7  C   UNL     1     -34.055  25.046   1.820  0.00  0.00    +0.045 C 
ATOM      8  C   UNL     1     -32.218  28.375   2.228  0.00  0.00    +0.133 A 
ATOM      9  C   UNL     1     -32.051  28.919   4.576  0.00  0.00    +0.067 A 
ATOM     10  C   UNL     1     -33.868  25.635   4.237  0.00  0.00    +0.199 C 
ATOM     11  C   UNL     1     -33.339  26.289   1.467  0.00  0.00    +0.199 C 
ATOM     12  C   UNL     1     -32.728  27.743   4.900  0.00  0.00    +0.139 A 
ATOM     13  C   UNL     1     -34.989  23.549   3.477  0.00  0.00    +0.088 C 
ATOM     14  C   UNL     1     -34.480  24.180   0.805  0.00  0.00    +0.040 C 
ATOM     15  C   UNL     1     -35.411  22.690   2.462  0.00  0.00    +0.115 C 
ATOM     16  C   UNL     1     -35.157  23.004   1.129  0.00  0.00    +0.140 C 
ENDROOT
BRANCH   9  18
ATOM     17  O   UNL     1     -32.381  30.658   6.135  0.00  0.00    -0.291 OA
ATOM     18  C   UNL     1     -31.609  29.819   5.637  0.00  0.00    +0.176 C 
ATOM     19  C   UNL     1     -30.180  29.743   6.156  0.00  0.00    +0.077 C 
ENDBRANCH   9  18
BRANCH   8  20
ATOM     20  O   UNL     1     -31.945  28.725   0.937  0.00  0.00    -0.506 OA
ATOM     21  H   UNL     1     -32.362  29.473   0.557  0.00  0.00    +0.292 HD
ENDBRANCH   8  20
BRANCH  12  22
ATOM     22  O   UNL     1     -32.952  27.479   6.221  0.00  0.00    -0.505 OA
ATOM     23  H   UNL     1     -33.165  26.609   6.495  0.00  0.00    +0.292 HD
ENDBRANCH  12  22
BRANCH  16  24
ATOM     24  O   UNL     1     -35.562  22.179   0.122  0.00  0.00    -0.505 OA
ATOM     25  H   UNL     1     -35.510  21.249   0.230  0.00  0.00    +0.292 HD
ENDBRANCH  16  24
BRANCH  13  27
ATOM     26  O   UNL     1     -34.590  22.427   5.552  0.00  0.00    -0.245 OA
ATOM     27  C   UNL     1     -35.298  23.146   4.850  0.00  0.00    +0.338 C 
BRANCH  27  28
ATOM     28  O   UNL     1     -36.478  23.663   5.281  0.00  0.00    -0.477 OA
ATOM     29  H   UNL     1     -36.484  24.366   5.900  0.00  0.00    +0.295 HD
ENDBRANCH  27  28
ENDBRANCH  13  27
BRANCH  15  31
ATOM     30  O   UNL     1     -35.608  20.334   2.837  0.00  0.00    -0.245 OA
ATOM     31  C   UNL     1     -36.123  21.451   2.771  0.00  0.00    +0.341 C 
BRANCH  31  32
ATOM     32  O   UNL     1     -37.449  21.661   2.986  0.00  0.00    -0.477 OA
ATOM     33  H   UNL     1     -37.817  21.504   3.833  0.00  0.00    +0.295 HD
ENDBRANCH  31  32
ENDBRANCH  15  31
BRANCH   6  34
ATOM     34  C   UNL     1     -31.069  30.496   2.893  0.00  0.00    +0.030 C 
ATOM     35  C   UNL     1     -32.022  31.659   2.648  0.00  0.00    +0.005 C 
ENDBRANCH   6  34
TORSDOF 9
ENDMDL
MODEL 6
REMARK VINA RESULT:      -6.0      1.882      3.860
REMARK  Name = 5355255
REMARK  9 active torsions:
REMARK  status: ('A' for Active; 'I' for Inactive)
REMARK    1  A    between atoms: C_6  and  C_34
REMARK    2  A    between atoms: C_8  and  O_20
REMARK    3  A    between atoms: C_9  and  C_18
REMARK    4  A    between atoms: C_12  and  O_22
REMARK    5  A    between atoms: C_13  and  C_27
REMARK    6  A    between atoms: C_15  and  C_31
REMARK    7  A    between atoms: C_16  and  O_24
REMARK    8  A    between atoms: C_27  and  O_28
REMARK    9  A    between atoms: C_31  and  O_32
REMARK                            x       y       z     vdW  Elec       q    Type
REMARK                         _______ _______ _______ _____ _____    ______ ____
ROOT
ATOM      1  O   UNL     1     -35.341  25.011   4.329  0.00  0.00    -0.286 OA
ATOM      2  O   UNL     1     -32.041  24.662   0.142  0.00  0.00    -0.286 OA
ATOM      3  C   UNL     1     -32.630  25.829   2.111  0.00  0.00    +0.078 A 
ATOM      4  C   UNL     1     -33.496  25.913   3.202  0.00  0.00    +0.079 A 
ATOM      5  C   UNL     1     -34.745  23.857   2.367  0.00  0.00    +0.049 C 
ATOM      6  C   UNL     1     -31.444  27.784   2.908  0.00  0.00    +0.017 A 
ATOM      7  C   UNL     1     -33.877  23.774   1.275  0.00  0.00    +0.045 C 
ATOM      8  C   UNL     1     -31.601  26.769   1.964  0.00  0.00    +0.133 A 
ATOM      9  C   UNL     1     -32.310  27.866   3.996  0.00  0.00    +0.067 A 
ATOM     10  C   UNL     1     -34.586  24.929   3.370  0.00  0.00    +0.199 C 
ATOM     11  C   UNL     1     -32.788  24.757   1.108  0.00  0.00    +0.199 C 
ATOM     12  C   UNL     1     -33.336  26.934   4.146  0.00  0.00    +0.139 A 
ATOM     13  C   UNL     1     -35.773  22.919   2.513  0.00  0.00    +0.088 C 
ATOM     14  C   UNL     1     -34.039  22.753   0.331  0.00  0.00    +0.040 C 
ATOM     15  C   UNL     1     -35.930  21.903   1.570  0.00  0.00    +0.115 C 
ATOM     16  C   UNL     1     -35.065  21.820   0.481  0.00  0.00    +0.140 C 
ENDROOT
BRANCH   9  18
ATOM     17  O   UNL     1     -32.753  30.009   4.878  0.00  0.00    -0.291 OA
ATOM     18  C   UNL     1     -32.144  28.930   4.983  0.00  0.00    +0.176 C 
ATOM     19  C   UNL     1     -31.213  28.730   6.171  0.00  0.00    +0.077 C 
ENDBRANCH   9  18
BRANCH   8  20
ATOM     20  O   UNL     1     -30.728  26.728   0.916  0.00  0.00    -0.506 OA
ATOM     21  H   UNL     1     -29.929  27.216   0.953  0.00  0.00    +0.292 HD
ENDBRANCH   8  20
BRANCH  12  22
ATOM     22  O   UNL     1     -34.157  27.057   5.230  0.00  0.00    -0.505 OA
ATOM     23  H   UNL     1     -35.087  27.074   5.114  0.00  0.00    +0.292 HD
ENDBRANCH  12  22
BRANCH  16  24
ATOM     24  O   UNL     1     -35.203  20.836  -0.453  0.00  0.00    -0.505 OA
ATOM     25  H   UNL     1     -35.853  20.170  -0.339  0.00  0.00    +0.292 HD
ENDBRANCH  16  24
BRANCH  13  27
ATOM     26  O   UNL     1     -37.816  23.504   3.613  0.00  0.00    -0.245 OA
ATOM     27  C   UNL     1     -36.725  22.936   3.625  0.00  0.00    +0.338 C 
BRANCH  27  28
ATOM     28  O   UNL     1     -36.270  22.240   4.698  0.00  0.00    -0.477 OA
ATOM     29  H   UNL     1     -36.343  22.604   5.559  0.00  0.00    +0.295 HD
ENDBRANCH  27  28
ENDBRANCH  13  27
BRANCH  15  31
ATOM     30  O   UNL     1     -38.070  20.943   1.097  0.00  0.00    -0.245 OA
ATOM     31  C   UNL     1     -36.998  20.912   1.700  0.00  0.00    +0.341 C 
BRANCH  31  32
ATOM     32  O   UNL     1     -36.678  19.925   2.577  0.00  0.00    -0.477 OA
ATOM     33  H   UNL     1     -36.138  19.210   2.302  0.00  0.00    +0.295 HD
ENDBRANCH  31  32
ENDBRANCH  15  31
BRANCH   6  34
ATOM     34  C   UNL     1     -30.341  28.784   2.745  0.00  0.00    +0.030 C 
ATOM     35  C   UNL     1     -29.011  28.262   3.274  0.00  0.00    +0.005 C 
ENDBRANCH   6  34
TORSDOF 9
ENDMDL
MODEL 7
REMARK VINA RESULT:      -6.0      3.905      9.009
REMARK  Name = 5355255
REMARK  9 active torsions:
REMARK  status: ('A' for Active; 'I' for Inactive)
REMARK    1  A    between atoms: C_6  and  C_34
REMARK    2  A    between atoms: C_8  and  O_20
REMARK    3  A    between atoms: C_9  and  C_18
REMARK    4  A    between atoms: C_12  and  O_22
REMARK    5  A    between atoms: C_13  and  C_27
REMARK    6  A    between atoms: C_15  and  C_31
REMARK    7  A    between atoms: C_16  and  O_24
REMARK    8  A    between atoms: C_27  and  O_28
REMARK    9  A    between atoms: C_31  and  O_32
REMARK                            x       y       z     vdW  Elec       q    Type
REMARK                         _______ _______ _______ _____ _____    ______ ____
ROOT
ATOM      1  O   UNL     1     -38.659  24.514   0.991  0.00  0.00    -0.286 OA
ATOM      2  O   UNL     1     -35.898  20.250   2.645  0.00  0.00    -0.286 OA
ATOM      3  C   UNL     1     -37.521  21.106   1.155  0.00  0.00    +0.078 A 
ATOM      4  C   UNL     1     -38.237  22.225   0.729  0.00  0.00    +0.079 A 
ATOM      5  C   UNL     1     -37.044  23.650   2.470  0.00  0.00    +0.049 C 
ATOM      6  C   UNL     1     -38.657  19.753  -0.501  0.00  0.00    +0.017 A 
ATOM      7  C   UNL     1     -36.327  22.529   2.895  0.00  0.00    +0.045 C 
ATOM      8  C   UNL     1     -37.732  19.866   0.538  0.00  0.00    +0.133 A 
ATOM      9  C   UNL     1     -39.371  20.871  -0.925  0.00  0.00    +0.067 A 
ATOM     10  C   UNL     1     -38.025  23.538   1.372  0.00  0.00    +0.199 C 
ATOM     11  C   UNL     1     -36.539  21.216   2.253  0.00  0.00    +0.199 C 
ATOM     12  C   UNL     1     -39.165  22.107  -0.312  0.00  0.00    +0.139 A 
ATOM     13  C   UNL     1     -36.834  24.888   3.088  0.00  0.00    +0.088 C 
ATOM     14  C   UNL     1     -35.400  22.648   3.938  0.00  0.00    +0.040 C 
ATOM     15  C   UNL     1     -35.909  25.002   4.126  0.00  0.00    +0.115 C 
ATOM     16  C   UNL     1     -35.194  23.884   4.551  0.00  0.00    +0.140 C 
ENDROOT
BRANCH   9  18
ATOM     17  O   UNL     1     -40.032  21.041  -3.183  0.00  0.00    -0.291 OA
ATOM     18  C   UNL     1     -40.338  20.751  -2.013  0.00  0.00    +0.176 C 
ATOM     19  C   UNL     1     -41.751  20.262  -1.727  0.00  0.00    +0.077 C 
ENDBRANCH   9  18
BRANCH   8  20
ATOM     20  O   UNL     1     -37.054  18.744   0.917  0.00  0.00    -0.506 OA
ATOM     21  H   UNL     1     -37.046  17.991   0.359  0.00  0.00    +0.292 HD
ENDBRANCH   8  20
BRANCH  12  22
ATOM     22  O   UNL     1     -39.890  23.173  -0.765  0.00  0.00    -0.505 OA
ATOM     23  H   UNL     1     -40.671  23.030  -1.263  0.00  0.00    +0.292 HD
ENDBRANCH  12  22
BRANCH  16  24
ATOM     24  O   UNL     1     -34.288  23.974   5.566  0.00  0.00    -0.505 OA
ATOM     25  H   UNL     1     -34.432  23.506   6.365  0.00  0.00    +0.292 HD
ENDBRANCH  16  24
BRANCH  13  27
ATOM     26  O   UNL     1     -37.150  26.927   1.875  0.00  0.00    -0.245 OA
ATOM     27  C   UNL     1     -37.545  26.109   2.704  0.00  0.00    +0.338 C 
BRANCH  27  28
ATOM     28  O   UNL     1     -38.717  26.250   3.375  0.00  0.00    -0.477 OA
ATOM     29  H   UNL     1     -38.725  26.244   4.312  0.00  0.00    +0.295 HD
ENDBRANCH  27  28
ENDBRANCH  13  27
BRANCH  15  31
ATOM     30  O   UNL     1     -34.680  26.994   4.624  0.00  0.00    -0.245 OA
ATOM     31  C   UNL     1     -35.673  26.284   4.788  0.00  0.00    +0.341 C 
BRANCH  31  32
ATOM     32  O   UNL     1     -36.688  26.625   5.625  0.00  0.00    -0.477 OA
ATOM     33  H   UNL     1     -37.090  25.972   6.163  0.00  0.00    +0.295 HD
ENDBRANCH  31  32
ENDBRANCH  15  31
BRANCH   6  34
ATOM     34  C   UNL     1     -38.876  18.425  -1.158  0.00  0.00    +0.030 C 
ATOM     35  C   UNL     1     -37.896  18.180  -2.298  0.00  0.00    +0.005 C 
ENDBRANCH   6  34
TORSDOF 9
ENDMDL
MODEL 8
REMARK VINA RESULT:      -5.9      1.618      7.046
REMARK  Name = 5355255
REMARK  9 active torsions:
REMARK  status: ('A' for Active; 'I' for Inactive)
REMARK    1  A    between atoms: C_6  and  C_34
REMARK    2  A    between atoms: C_8  and  O_20
REMARK    3  A    between atoms: C_9  and  C_18
REMARK    4  A    between atoms: C_12  and  O_22
REMARK    5  A    between atoms: C_13  and  C_27
REMARK    6  A    between atoms: C_15  and  C_31
REMARK    7  A    between atoms: C_16  and  O_24
REMARK    8  A    between atoms: C_27  and  O_28
REMARK    9  A    between atoms: C_31  and  O_32
REMARK                            x       y       z     vdW  Elec       q    Type
REMARK                         _______ _______ _______ _____ _____    ______ ____
ROOT
ATOM      1  O   UNL     1     -33.731  26.680   1.579  0.00  0.00    -0.286 OA
ATOM      2  O   UNL     1     -35.227  23.805   5.827  0.00  0.00    -0.286 OA
ATOM      3  C   UNL     1     -35.286  24.049   3.477  0.00  0.00    +0.078 A 
ATOM      4  C   UNL     1     -34.891  24.806   2.373  0.00  0.00    +0.079 A 
ATOM      5  C   UNL     1     -33.679  26.426   3.919  0.00  0.00    +0.049 C 
ATOM      6  C   UNL     1     -36.438  22.509   2.005  0.00  0.00    +0.017 A 
ATOM      7  C   UNL     1     -34.075  25.668   5.023  0.00  0.00    +0.045 C 
ATOM      8  C   UNL     1     -36.062  22.897   3.292  0.00  0.00    +0.133 A 
ATOM      9  C   UNL     1     -36.042  23.266   0.904  0.00  0.00    +0.067 A 
ATOM     10  C   UNL     1     -34.073  26.022   2.553  0.00  0.00    +0.199 C 
ATOM     11  C   UNL     1     -34.893  24.452   4.842  0.00  0.00    +0.199 C 
ATOM     12  C   UNL     1     -35.270  24.413   1.084  0.00  0.00    +0.139 A 
ATOM     13  C   UNL     1     -32.904  27.577   4.104  0.00  0.00    +0.088 C 
ATOM     14  C   UNL     1     -33.696  26.062   6.312  0.00  0.00    +0.040 C 
ATOM     15  C   UNL     1     -32.529  27.965   5.390  0.00  0.00    +0.115 C 
ATOM     16  C   UNL     1     -32.924  27.209   6.492  0.00  0.00    +0.140 C 
ENDROOT
BRANCH   9  18
ATOM     17  O   UNL     1     -35.669  22.197  -1.166  0.00  0.00    -0.291 OA
ATOM     18  C   UNL     1     -36.435  22.858  -0.442  0.00  0.00    +0.176 C 
ATOM     19  C   UNL     1     -37.806  23.238  -0.985  0.00  0.00    +0.077 C 
ENDBRANCH   9  18
BRANCH   8  20
ATOM     20  O   UNL     1     -36.472  22.124   4.339  0.00  0.00    -0.506 OA
ATOM     21  H   UNL     1     -36.991  21.360   4.182  0.00  0.00    +0.292 HD
ENDBRANCH   8  20
BRANCH  12  22
ATOM     22  O   UNL     1     -34.908  25.120  -0.028  0.00  0.00    -0.505 OA
ATOM     23  H   UNL     1     -34.107  25.606  -0.033  0.00  0.00    +0.292 HD
ENDBRANCH  12  22
BRANCH  16  24
ATOM     24  O   UNL     1     -32.569  27.573   7.758  0.00  0.00    -0.505 OA
ATOM     25  H   UNL     1     -32.279  26.923   8.368  0.00  0.00    +0.292 HD
ENDBRANCH  16  24
BRANCH  13  27
ATOM     26  O   UNL     1     -33.010  29.455   2.625  0.00  0.00    -0.245 OA
ATOM     27  C   UNL     1     -32.450  28.427   3.002  0.00  0.00    +0.338 C 
BRANCH  27  28
ATOM     28  O   UNL     1     -31.316  27.953   2.425  0.00  0.00    -0.477 OA
ATOM     29  H   UNL     1     -30.833  27.264   2.837  0.00  0.00    +0.295 HD
ENDBRANCH  27  28
ENDBRANCH  13  27
BRANCH  15  31
ATOM     30  O   UNL     1     -30.506  29.173   5.808  0.00  0.00    -0.245 OA
ATOM     31  C   UNL     1     -31.721  29.164   5.610  0.00  0.00    +0.341 C 
BRANCH  31  32
ATOM     32  O   UNL     1     -32.467  30.300   5.572  0.00  0.00    -0.477 OA
ATOM     33  H   UNL     1     -32.172  31.037   5.074  0.00  0.00    +0.295 HD
ENDBRANCH  31  32
ENDBRANCH  15  31
BRANCH   6  34
ATOM     34  C   UNL     1     -37.266  21.276   1.814  0.00  0.00    +0.030 C 
ATOM     35  C   UNL     1     -36.407  20.030   1.635  0.00  0.00    +0.005 C 
ENDBRANCH   6  34
TORSDOF 9
ENDMDL
MODEL 9
REMARK VINA RESULT:      -5.8      4.644      7.634
REMARK  Name = 5355255
REMARK  9 active torsions:
REMARK  status: ('A' for Active; 'I' for Inactive)
REMARK    1  A    between atoms: C_6  and  C_34
REMARK    2  A    between atoms: C_8  and  O_20
REMARK    3  A    between atoms: C_9  and  C_18
REMARK    4  A    between atoms: C_12  and  O_22
REMARK    5  A    between atoms: C_13  and  C_27
REMARK    6  A    between atoms: C_15  and  C_31
REMARK    7  A    between atoms: C_16  and  O_24
REMARK    8  A    between atoms: C_27  and  O_28
REMARK    9  A    between atoms: C_31  and  O_32
REMARK                            x       y       z     vdW  Elec       q    Type
REMARK                         _______ _______ _______ _____ _____    ______ ____
ROOT
ATOM      1  O   UNL     1     -39.780  25.773   1.897  0.00  0.00    -0.286 OA
ATOM      2  O   UNL     1     -38.033  20.725   1.787  0.00  0.00    -0.286 OA
ATOM      3  C   UNL     1     -37.740  22.907   2.648  0.00  0.00    +0.078 A 
ATOM      4  C   UNL     1     -38.204  24.223   2.671  0.00  0.00    +0.079 A 
ATOM      5  C   UNL     1     -40.062  23.596   1.046  0.00  0.00    +0.049 C 
ATOM      6  C   UNL     1     -35.974  23.506   4.192  0.00  0.00    +0.017 A 
ATOM      7  C   UNL     1     -39.597  22.279   1.024  0.00  0.00    +0.045 C 
ATOM      8  C   UNL     1     -36.622  22.548   3.411  0.00  0.00    +0.133 A 
ATOM      9  C   UNL     1     -36.438  24.819   4.214  0.00  0.00    +0.067 A 
ATOM     10  C   UNL     1     -39.382  24.616   1.870  0.00  0.00    +0.199 C 
ATOM     11  C   UNL     1     -38.419  21.886   1.824  0.00  0.00    +0.199 C 
ATOM     12  C   UNL     1     -37.551  25.181   3.455  0.00  0.00    +0.139 A 
ATOM     13  C   UNL     1     -41.179  23.955   0.283  0.00  0.00    +0.088 C 
ATOM     14  C   UNL     1     -40.250  21.321   0.238  0.00  0.00    +0.040 C 
ATOM     15  C   UNL     1     -41.826  22.998  -0.498  0.00  0.00    +0.115 C 
ATOM     16  C   UNL     1     -41.363  21.684  -0.521  0.00  0.00    +0.140 C 
ENDROOT
BRANCH   9  18
ATOM     17  O   UNL     1     -36.244  26.208   6.111  0.00  0.00    -0.291 OA
ATOM     18  C   UNL     1     -35.760  25.820   5.033  0.00  0.00    +0.176 C 
ATOM     19  C   UNL     1     -34.433  26.409   4.575  0.00  0.00    +0.077 C 
ENDBRANCH   9  18
BRANCH   8  20
ATOM     20  O   UNL     1     -36.132  21.274   3.423  0.00  0.00    -0.506 OA
ATOM     21  H   UNL     1     -36.457  20.642   2.812  0.00  0.00    +0.292 HD
ENDBRANCH   8  20
BRANCH  12  22
ATOM     22  O   UNL     1     -37.966  26.481   3.511  0.00  0.00    -0.505 OA
ATOM     23  H   UNL     1     -37.583  27.068   4.133  0.00  0.00    +0.292 HD
ENDBRANCH  12  22
BRANCH  16  24
ATOM     24  O   UNL     1     -41.981  20.734  -1.280  0.00  0.00    -0.505 OA
ATOM     25  H   UNL     1     -42.164  20.903  -2.183  0.00  0.00    +0.292 HD
ENDBRANCH  16  24
BRANCH  13  27
ATOM     26  O   UNL     1     -41.419  26.179  -0.567  0.00  0.00    -0.245 OA
ATOM     27  C   UNL     1     -41.727  25.312   0.248  0.00  0.00    +0.338 C 
BRANCH  27  28
ATOM     28  O   UNL     1     -42.637  25.520   1.235  0.00  0.00    -0.477 OA
ATOM     29  H   UNL     1     -42.626  26.321   1.721  0.00  0.00    +0.295 HD
ENDBRANCH  27  28
ENDBRANCH  13  27
BRANCH  15  31
ATOM     30  O   UNL     1     -44.123  23.562  -0.863  0.00  0.00    -0.245 OA
ATOM     31  C   UNL     1     -42.994  23.348  -1.305  0.00  0.00    +0.341 C 
BRANCH  31  32
ATOM     32  O   UNL     1     -42.700  23.418  -2.630  0.00  0.00    -0.477 OA
ATOM     33  H   UNL     1     -42.920  22.705  -3.197  0.00  0.00    +0.295 HD
ENDBRANCH  31  32
ENDBRANCH  15  31
BRANCH   6  34
ATOM     34  C   UNL     1     -34.780  23.114   5.008  0.00  0.00    +0.030 C 
ATOM     35  C   UNL     1     -35.173  22.400   6.295  0.00  0.00    +0.005 C 
ENDBRANCH   6  34
TORSDOF 9
ENDMDL
