MODEL 1
REMARK VINA RESULT:      -5.5      0.000      0.000
REMARK  Name = 21120755
REMARK  3 active torsions:
REMARK  status: ('A' for Active; 'I' for Inactive)
REMARK    1  A    between atoms: N_4  and  C_13
REMARK    2  A    between atoms: C_15  and  C_16
REMARK    3  A    between atoms: C_16  and  O_17
REMARK                            x       y       z     vdW  Elec       q    Type
REMARK                         _______ _______ _______ _____ _____    ______ ____
ROOT
ATOM      1  F   UNL     1     -40.625  23.572   1.896  0.00  0.00    -0.198 F 
ATOM      2  O   UNL     1     -36.293  20.354   2.241  0.00  0.00    -0.252 OA
ATOM      3  O   UNL     1     -40.620  21.081   0.809  0.00  0.00    -0.267 OA
ATOM      4  N   UNL     1     -37.288  22.411   2.739  0.00  0.00    -0.216 N 
ATOM      5  N   UNL     1     -38.447  20.716   1.529  0.00  0.00    -0.234 N 
ATOM      6  C   UNL     1     -37.266  21.109   2.179  0.00  0.00    +0.316 C 
ATOM      7  C   UNL     1     -38.426  23.201   2.624  0.00  0.00    +0.105 C 
ATOM      8  C   UNL     1     -39.530  22.797   2.001  0.00  0.00    +0.208 C 
ATOM      9  C   UNL     1     -39.608  21.463   1.386  0.00  0.00    +0.282 C 
ATOM     10  H   UNL     1     -38.453  19.815   1.134  0.00  0.00    +0.159 HD
ENDROOT
BRANCH   4  13
ATOM     11  S   UNL     1     -34.277  24.729   3.694  0.00  0.00    -0.105 S 
ATOM     12  O   UNL     1     -36.609  23.765   4.511  0.00  0.00    -0.325 OA
ATOM     13  C   UNL     1     -36.149  22.943   3.432  0.00  0.00    +0.211 C 
ATOM     14  C   UNL     1     -35.282  23.801   2.524  0.00  0.00    +0.111 C 
ATOM     15  C   UNL     1     -35.482  24.488   5.026  0.00  0.00    +0.194 C 
BRANCH  15  16
ATOM     16  C   UNL     1     -35.966  25.817   5.579  0.00  0.00    +0.178 C 
BRANCH  16  17
ATOM     17  O   UNL     1     -37.074  26.258   4.811  0.00  0.00    -0.379 OA
ATOM     18  H   UNL     1     -37.326  25.566   4.180  0.00  0.00    +0.211 HD
ENDBRANCH  16  17
ENDBRANCH  15  16
ENDBRANCH   4  13
TORSDOF 3
ENDMDL
MODEL 2
REMARK VINA RESULT:      -5.1      2.311      2.861
REMARK  Name = 21120755
REMARK  3 active torsions:
REMARK  status: ('A' for Active; 'I' for Inactive)
REMARK    1  A    between atoms: N_4  and  C_13
REMARK    2  A    between atoms: C_15  and  C_16
REMARK    3  A    between atoms: C_16  and  O_17
REMARK                            x       y       z     vdW  Elec       q    Type
REMARK                         _______ _______ _______ _____ _____    ______ ____
ROOT
ATOM      1  F   UNL     1     -40.799  26.495   2.840  0.00  0.00    -0.198 F 
ATOM      2  O   UNL     1     -37.894  22.019   1.960  0.00  0.00    -0.252 OA
ATOM      3  O   UNL     1     -41.785  24.431   1.370  0.00  0.00    -0.267 OA
ATOM      4  N   UNL     1     -38.037  24.137   2.941  0.00  0.00    -0.216 N 
ATOM      5  N   UNL     1     -39.831  23.220   1.668  0.00  0.00    -0.234 N 
ATOM      6  C   UNL     1     -38.533  23.051   2.178  0.00  0.00    +0.316 C 
ATOM      7  C   UNL     1     -38.822  25.267   3.140  0.00  0.00    +0.105 C 
ATOM      8  C   UNL     1     -40.049  25.395   2.641  0.00  0.00    +0.208 C 
ATOM      9  C   UNL     1     -40.655  24.324   1.835  0.00  0.00    +0.282 C 
ATOM     10  H   UNL     1     -40.194  22.477   1.135  0.00  0.00    +0.159 HD
ENDROOT
BRANCH   4  13
ATOM     11  S   UNL     1     -35.068  24.708   5.434  0.00  0.00    -0.105 S 
ATOM     12  O   UNL     1     -36.579  22.876   4.253  0.00  0.00    -0.325 OA
ATOM     13  C   UNL     1     -36.725  24.100   3.524  0.00  0.00    +0.211 C 
ATOM     14  C   UNL     1     -36.502  25.253   4.492  0.00  0.00    +0.111 C 
ATOM     15  C   UNL     1     -35.379  22.968   5.033  0.00  0.00    +0.194 C 
BRANCH  15  16
ATOM     16  C   UNL     1     -35.550  22.135   6.291  0.00  0.00    +0.178 C 
BRANCH  16  17
ATOM     17  O   UNL     1     -35.422  20.763   5.954  0.00  0.00    -0.379 OA
ATOM     18  H   UNL     1     -36.245  20.452   5.547  0.00  0.00    +0.211 HD
ENDBRANCH  16  17
ENDBRANCH  15  16
ENDBRANCH   4  13
TORSDOF 3
ENDMDL
MODEL 3
REMARK VINA RESULT:      -5.0      3.313      5.815
REMARK  Name = 21120755
REMARK  3 active torsions:
REMARK  status: ('A' for Active; 'I' for Inactive)
REMARK    1  A    between atoms: N_4  and  C_13
REMARK    2  A    between atoms: C_15  and  C_16
REMARK    3  A    between atoms: C_16  and  O_17
REMARK                            x       y       z     vdW  Elec       q    Type
REMARK                         _______ _______ _______ _____ _____    ______ ____
ROOT
ATOM      1  F   UNL     1     -34.353  27.728   3.547  0.00  0.00    -0.198 F 
ATOM      2  O   UNL     1     -36.066  23.139   5.840  0.00  0.00    -0.252 OA
ATOM      3  O   UNL     1     -33.295  26.830   5.885  0.00  0.00    -0.267 OA
ATOM      4  N   UNL     1     -36.234  24.665   4.076  0.00  0.00    -0.216 N 
ATOM      5  N   UNL     1     -34.686  24.976   5.861  0.00  0.00    -0.234 N 
ATOM      6  C   UNL     1     -35.694  24.180   5.293  0.00  0.00    +0.316 C 
ATOM      7  C   UNL     1     -35.761  25.850   3.525  0.00  0.00    +0.105 C 
ATOM      8  C   UNL     1     -34.802  26.581   4.090  0.00  0.00    +0.208 C 
ATOM      9  C   UNL     1     -34.178  26.164   5.355  0.00  0.00    +0.282 C 
ATOM     10  H   UNL     1     -34.298  24.657   6.707  0.00  0.00    +0.159 HD
ENDROOT
BRANCH   4  13
ATOM     11  S   UNL     1     -38.426  23.186   1.184  0.00  0.00    -0.105 S 
ATOM     12  O   UNL     1     -36.878  22.581   3.251  0.00  0.00    -0.325 OA
ATOM     13  C   UNL     1     -37.272  23.952   3.385  0.00  0.00    +0.211 C 
ATOM     14  C   UNL     1     -37.511  24.510   1.990  0.00  0.00    +0.111 C 
ATOM     15  C   UNL     1     -37.791  21.947   2.344  0.00  0.00    +0.194 C 
BRANCH  15  16
ATOM     16  C   UNL     1     -37.061  20.833   1.616  0.00  0.00    +0.178 C 
BRANCH  16  17
ATOM     17  O   UNL     1     -36.730  19.816   2.547  0.00  0.00    -0.379 OA
ATOM     18  H   UNL     1     -36.342  19.062   2.078  0.00  0.00    +0.211 HD
ENDBRANCH  16  17
ENDBRANCH  15  16
ENDBRANCH   4  13
TORSDOF 3
ENDMDL
MODEL 4
REMARK VINA RESULT:      -5.0      1.966      2.174
REMARK  Name = 21120755
REMARK  3 active torsions:
REMARK  status: ('A' for Active; 'I' for Inactive)
REMARK    1  A    between atoms: N_4  and  C_13
REMARK    2  A    between atoms: C_15  and  C_16
REMARK    3  A    between atoms: C_16  and  O_17
REMARK                            x       y       z     vdW  Elec       q    Type
REMARK                         _______ _______ _______ _____ _____    ______ ____
ROOT
ATOM      1  F   UNL     1     -40.831  26.559   2.192  0.00  0.00    -0.198 F 
ATOM      2  O   UNL     1     -38.757  21.566   2.073  0.00  0.00    -0.252 OA
ATOM      3  O   UNL     1     -42.167  24.496   1.031  0.00  0.00    -0.267 OA
ATOM      4  N   UNL     1     -38.524  23.802   2.717  0.00  0.00    -0.216 N 
ATOM      5  N   UNL     1     -40.455  23.025   1.556  0.00  0.00    -0.234 N 
ATOM      6  C   UNL     1     -39.205  22.714   2.117  0.00  0.00    +0.316 C 
ATOM      7  C   UNL     1     -39.098  25.068   2.722  0.00  0.00    +0.105 C 
ATOM      8  C   UNL     1     -40.286  25.329   2.181  0.00  0.00    +0.208 C 
ATOM      9  C   UNL     1     -41.072  24.268   1.534  0.00  0.00    +0.282 C 
ATOM     10  H   UNL     1     -40.944  22.283   1.134  0.00  0.00    +0.159 HD
ENDROOT
BRANCH   4  13
ATOM     11  S   UNL     1     -34.710  24.215   3.515  0.00  0.00    -0.105 S 
ATOM     12  O   UNL     1     -37.163  24.463   4.492  0.00  0.00    -0.325 OA
ATOM     13  C   UNL     1     -37.237  23.629   3.329  0.00  0.00    +0.211 C 
ATOM     14  C   UNL     1     -36.106  24.027   2.393  0.00  0.00    +0.111 C 
ATOM     15  C   UNL     1     -35.800  24.478   4.938  0.00  0.00    +0.194 C 
BRANCH  15  16
ATOM     16  C   UNL     1     -35.521  25.810   5.609  0.00  0.00    +0.178 C 
BRANCH  16  17
ATOM     17  O   UNL     1     -36.621  26.677   5.385  0.00  0.00    -0.379 OA
ATOM     18  H   UNL     1     -36.449  27.222   4.602  0.00  0.00    +0.211 HD
ENDBRANCH  16  17
ENDBRANCH  15  16
ENDBRANCH   4  13
TORSDOF 3
ENDMDL
MODEL 5
REMARK VINA RESULT:      -5.0      3.029      5.674
REMARK  Name = 21120755
REMARK  3 active torsions:
REMARK  status: ('A' for Active; 'I' for Inactive)
REMARK    1  A    between atoms: N_4  and  C_13
REMARK    2  A    between atoms: C_15  and  C_16
REMARK    3  A    between atoms: C_16  and  O_17
REMARK                            x       y       z     vdW  Elec       q    Type
REMARK                         _______ _______ _______ _____ _____    ______ ____
ROOT
ATOM      1  F   UNL     1     -34.072  23.911   5.156  0.00  0.00    -0.198 F 
ATOM      2  O   UNL     1     -38.613  26.020   3.113  0.00  0.00    -0.252 OA
ATOM      3  O   UNL     1     -34.993  26.340   5.958  0.00  0.00    -0.267 OA
ATOM      4  N   UNL     1     -37.085  24.250   3.156  0.00  0.00    -0.216 N 
ATOM      5  N   UNL     1     -36.811  26.178   4.530  0.00  0.00    -0.234 N 
ATOM      6  C   UNL     1     -37.582  25.514   3.562  0.00  0.00    +0.316 C 
ATOM      7  C   UNL     1     -35.913  23.750   3.711  0.00  0.00    +0.105 C 
ATOM      8  C   UNL     1     -35.206  24.406   4.627  0.00  0.00    +0.208 C 
ATOM      9  C   UNL     1     -35.637  25.726   5.114  0.00  0.00    +0.282 C 
ATOM     10  H   UNL     1     -37.139  27.058   4.825  0.00  0.00    +0.159 HD
ENDROOT
BRANCH   4  13
ATOM     11  S   UNL     1     -37.893  22.362  -0.181  0.00  0.00    -0.105 S 
ATOM     12  O   UNL     1     -37.507  22.075   2.428  0.00  0.00    -0.325 OA
ATOM     13  C   UNL     1     -37.772  23.460   2.173  0.00  0.00    +0.211 C 
ATOM     14  C   UNL     1     -37.302  23.778   0.762  0.00  0.00    +0.111 C 
ATOM     15  C   UNL     1     -37.978  21.323   1.301  0.00  0.00    +0.194 C 
BRANCH  15  16
ATOM     16  C   UNL     1     -37.120  20.079   1.152  0.00  0.00    +0.178 C 
BRANCH  16  17
ATOM     17  O   UNL     1     -36.738  19.628   2.441  0.00  0.00    -0.379 OA
ATOM     18  H   UNL     1     -37.193  18.796   2.641  0.00  0.00    +0.211 HD
ENDBRANCH  16  17
ENDBRANCH  15  16
ENDBRANCH   4  13
TORSDOF 3
ENDMDL
MODEL 6
REMARK VINA RESULT:      -4.9      2.525      3.231
REMARK  Name = 21120755
REMARK  3 active torsions:
REMARK  status: ('A' for Active; 'I' for Inactive)
REMARK    1  A    between atoms: N_4  and  C_13
REMARK    2  A    between atoms: C_15  and  C_16
REMARK    3  A    between atoms: C_16  and  O_17
REMARK                            x       y       z     vdW  Elec       q    Type
REMARK                         _______ _______ _______ _____ _____    ______ ____
ROOT
ATOM      1  F   UNL     1     -34.465  19.929   2.540  0.00  0.00    -0.198 F 
ATOM      2  O   UNL     1     -38.869  23.067   2.598  0.00  0.00    -0.252 OA
ATOM      3  O   UNL     1     -36.704  19.255   1.153  0.00  0.00    -0.267 OA
ATOM      4  N   UNL     1     -36.674  22.706   3.318  0.00  0.00    -0.216 N 
ATOM      5  N   UNL     1     -37.791  21.170   1.878  0.00  0.00    -0.234 N 
ATOM      6  C   UNL     1     -37.850  22.372   2.602  0.00  0.00    +0.316 C 
ATOM      7  C   UNL     1     -35.567  21.867   3.272  0.00  0.00    +0.105 C 
ATOM      8  C   UNL     1     -35.543  20.734   2.575  0.00  0.00    +0.208 C 
ATOM      9  C   UNL     1     -36.714  20.298   1.799  0.00  0.00    +0.282 C 
ATOM     10  H   UNL     1     -38.598  20.920   1.374  0.00  0.00    +0.159 HD
ENDROOT
BRANCH   4  13
ATOM     11  S   UNL     1     -35.269  25.542   5.628  0.00  0.00    -0.105 S 
ATOM     12  O   UNL     1     -36.274  25.002   3.234  0.00  0.00    -0.325 OA
ATOM     13  C   UNL     1     -36.595  23.907   4.101  0.00  0.00    +0.211 C 
ATOM     14  C   UNL     1     -35.512  23.819   5.166  0.00  0.00    +0.111 C 
ATOM     15  C   UNL     1     -35.946  26.132   4.055  0.00  0.00    +0.194 C 
BRANCH  15  16
ATOM     16  C   UNL     1     -34.943  26.998   3.313  0.00  0.00    +0.178 C 
BRANCH  16  17
ATOM     17  O   UNL     1     -35.405  28.339   3.315  0.00  0.00    -0.379 OA
ATOM     18  H   UNL     1     -36.349  28.355   3.535  0.00  0.00    +0.211 HD
ENDBRANCH  16  17
ENDBRANCH  15  16
ENDBRANCH   4  13
TORSDOF 3
ENDMDL
MODEL 7
REMARK VINA RESULT:      -4.9      3.332      5.791
REMARK  Name = 21120755
REMARK  3 active torsions:
REMARK  status: ('A' for Active; 'I' for Inactive)
REMARK    1  A    between atoms: N_4  and  C_13
REMARK    2  A    between atoms: C_15  and  C_16
REMARK    3  A    between atoms: C_16  and  O_17
REMARK                            x       y       z     vdW  Elec       q    Type
REMARK                         _______ _______ _______ _____ _____    ______ ____
ROOT
ATOM      1  F   UNL     1     -34.301  26.520   3.029  0.00  0.00    -0.198 F 
ATOM      2  O   UNL     1     -36.002  22.467   6.179  0.00  0.00    -0.252 OA
ATOM      3  O   UNL     1     -34.007  26.604   5.730  0.00  0.00    -0.267 OA
ATOM      4  N   UNL     1     -35.768  23.350   4.027  0.00  0.00    -0.216 N 
ATOM      5  N   UNL     1     -35.008  24.526   5.955  0.00  0.00    -0.234 N 
ATOM      6  C   UNL     1     -35.623  23.375   5.436  0.00  0.00    +0.316 C 
ATOM      7  C   UNL     1     -35.315  24.416   3.259  0.00  0.00    +0.105 C 
ATOM      8  C   UNL     1     -34.735  25.493   3.783  0.00  0.00    +0.208 C 
ATOM      9  C   UNL     1     -34.539  25.616   5.236  0.00  0.00    +0.282 C 
ATOM     10  H   UNL     1     -34.898  24.563   6.932  0.00  0.00    +0.159 HD
ENDROOT
BRANCH   4  13
ATOM     11  S   UNL     1     -37.312  21.101   1.215  0.00  0.00    -0.105 S 
ATOM     12  O   UNL     1     -35.357  21.299   2.995  0.00  0.00    -0.325 OA
ATOM     13  C   UNL     1     -36.379  22.234   3.361  0.00  0.00    +0.211 C 
ATOM     14  C   UNL     1     -37.104  22.658   2.092  0.00  0.00    +0.111 C 
ATOM     15  C   UNL     1     -35.941  20.330   2.114  0.00  0.00    +0.194 C 
BRANCH  15  16
ATOM     16  C   UNL     1     -34.870  19.828   1.162  0.00  0.00    +0.178 C 
BRANCH  16  17
ATOM     17  O   UNL     1     -33.904  19.099   1.901  0.00  0.00    -0.379 OA
ATOM     18  H   UNL     1     -33.111  19.644   2.021  0.00  0.00    +0.211 HD
ENDBRANCH  16  17
ENDBRANCH  15  16
ENDBRANCH   4  13
TORSDOF 3
ENDMDL
MODEL 8
REMARK VINA RESULT:      -4.7      3.340      4.666
REMARK  Name = 21120755
REMARK  3 active torsions:
REMARK  status: ('A' for Active; 'I' for Inactive)
REMARK    1  A    between atoms: N_4  and  C_13
REMARK    2  A    between atoms: C_15  and  C_16
REMARK    3  A    between atoms: C_16  and  O_17
REMARK                            x       y       z     vdW  Elec       q    Type
REMARK                         _______ _______ _______ _____ _____    ______ ____
ROOT
ATOM      1  F   UNL     1     -34.737  24.969   6.221  0.00  0.00    -0.198 F 
ATOM      2  O   UNL     1     -37.380  22.062   2.505  0.00  0.00    -0.252 OA
ATOM      3  O   UNL     1     -35.126  22.296   6.526  0.00  0.00    -0.267 OA
ATOM      4  N   UNL     1     -36.568  24.144   3.194  0.00  0.00    -0.216 N 
ATOM      5  N   UNL     1     -36.257  22.179   4.506  0.00  0.00    -0.234 N 
ATOM      6  C   UNL     1     -36.780  22.750   3.334  0.00  0.00    +0.316 C 
ATOM      7  C   UNL     1     -35.883  24.849   4.177  0.00  0.00    +0.105 C 
ATOM      8  C   UNL     1     -35.399  24.276   5.276  0.00  0.00    +0.208 C 
ATOM      9  C   UNL     1     -35.567  22.834   5.516  0.00  0.00    +0.282 C 
ATOM     10  H   UNL     1     -36.393  21.211   4.623  0.00  0.00    +0.159 HD
ENDROOT
BRANCH   4  13
ATOM     11  S   UNL     1     -38.628  26.616   0.958  0.00  0.00    -0.105 S 
ATOM     12  O   UNL     1     -36.198  25.987   1.814  0.00  0.00    -0.325 OA
ATOM     13  C   UNL     1     -37.050  24.858   2.045  0.00  0.00    +0.211 C 
ATOM     14  C   UNL     1     -38.466  25.372   2.250  0.00  0.00    +0.111 C 
ATOM     15  C   UNL     1     -36.832  26.826   0.839  0.00  0.00    +0.194 C 
BRANCH  15  16
ATOM     16  C   UNL     1     -36.427  28.266   1.095  0.00  0.00    +0.178 C 
BRANCH  16  17
ATOM     17  O   UNL     1     -36.003  28.390   2.443  0.00  0.00    -0.379 OA
ATOM     18  H   UNL     1     -35.046  28.540   2.469  0.00  0.00    +0.211 HD
ENDBRANCH  16  17
ENDBRANCH  15  16
ENDBRANCH   4  13
TORSDOF 3
ENDMDL
MODEL 9
REMARK VINA RESULT:      -4.6      4.086      5.940
REMARK  Name = 21120755
REMARK  3 active torsions:
REMARK  status: ('A' for Active; 'I' for Inactive)
REMARK    1  A    between atoms: N_4  and  C_13
REMARK    2  A    between atoms: C_15  and  C_16
REMARK    3  A    between atoms: C_16  and  O_17
REMARK                            x       y       z     vdW  Elec       q    Type
REMARK                         _______ _______ _______ _____ _____    ______ ____
ROOT
ATOM      1  F   UNL     1     -35.736  24.029   6.141  0.00  0.00    -0.198 F 
ATOM      2  O   UNL     1     -36.226  27.761   2.258  0.00  0.00    -0.252 OA
ATOM      3  O   UNL     1     -34.010  26.122   5.960  0.00  0.00    -0.267 OA
ATOM      4  N   UNL     1     -37.029  25.799   3.243  0.00  0.00    -0.216 N 
ATOM      5  N   UNL     1     -35.124  26.946   4.102  0.00  0.00    -0.234 N 
ATOM      6  C   UNL     1     -36.140  26.897   3.133  0.00  0.00    +0.316 C 
ATOM      7  C   UNL     1     -36.862  24.864   4.259  0.00  0.00    +0.105 C 
ATOM      8  C   UNL     1     -35.887  24.941   5.162  0.00  0.00    +0.208 C 
ATOM      9  C   UNL     1     -34.913  26.042   5.134  0.00  0.00    +0.282 C 
ATOM     10  H   UNL     1     -34.496  27.701   4.043  0.00  0.00    +0.159 HD
ENDROOT
BRANCH   4  13
ATOM     11  S   UNL     1     -40.241  24.355   1.526  0.00  0.00    -0.105 S 
ATOM     12  O   UNL     1     -39.191  26.486   2.705  0.00  0.00    -0.325 OA
ATOM     13  C   UNL     1     -38.114  25.623   2.320  0.00  0.00    +0.211 C 
ATOM     14  C   UNL     1     -38.634  24.194   2.321  0.00  0.00    +0.111 C 
ATOM     15  C   UNL     1     -40.347  26.116   1.941  0.00  0.00    +0.194 C 
BRANCH  15  16
ATOM     16  C   UNL     1     -41.589  26.415   2.760  0.00  0.00    +0.178 C 
BRANCH  16  17
ATOM     17  O   UNL     1     -41.266  26.315   4.138  0.00  0.00    -0.379 OA
ATOM     18  H   UNL     1     -41.468  25.422   4.453  0.00  0.00    +0.211 HD
ENDBRANCH  16  17
ENDBRANCH  15  16
ENDBRANCH   4  13
TORSDOF 3
ENDMDL
