MODEL 1
REMARK VINA RESULT:      -6.5      0.000      0.000
REMARK  Name = 193641
REMARK  12 active torsions:
REMARK  status: ('A' for Active; 'I' for Inactive)
REMARK    1  A    between atoms: N_3  and  C_19
REMARK    2  A    between atoms: N_6  and  C_32
REMARK    3  A    between atoms: C_19  and  C_20
REMARK    4  A    between atoms: C_20  and  O_21
REMARK    5  A    between atoms: C_20  and  C_23
REMARK    6  A    between atoms: C_23  and  O_24
REMARK    7  A    between atoms: C_23  and  C_26
REMARK    8  A    between atoms: C_26  and  O_27
REMARK    9  A    between atoms: C_26  and  C_29
REMARK   10  A    between atoms: C_29  and  O_30
REMARK   11  A    between atoms: C_32  and  C_34
REMARK   12  A    between atoms: C_34  and  O_35
REMARK                            x       y       z     vdW  Elec       q    Type
REMARK                         _______ _______ _______ _____ _____    ______ ____
ROOT
ATOM      1  O   UNL     1     -28.745  31.699   5.293  0.00  0.00    -0.266 OA
ATOM      2  O   UNL     1     -28.371  27.221   6.493  0.00  0.00    -0.193 OA
ATOM      3  N   UNL     1     -32.149  28.505   4.121  0.00  0.00    -0.255 N 
ATOM      4  N   UNL     1     -31.071  31.120   4.138  0.00  0.00    -0.396 NA
ATOM      5  N   UNL     1     -30.202  27.866   5.338  0.00  0.00    -0.302 NA
ATOM      6  N   UNL     1     -28.481  29.452   5.937  0.00  0.00    -0.159 N 
ATOM      7  C   UNL     1     -32.859  29.555   3.497  0.00  0.00    +0.079 C 
ATOM      8  C   UNL     1     -30.930  28.758   4.739  0.00  0.00    +0.236 C 
ATOM      9  C   UNL     1     -32.301  30.849   3.520  0.00  0.00    +0.127 C 
ATOM     10  C   UNL     1     -30.414  30.165   4.712  0.00  0.00    +0.230 C 
ATOM     11  C   UNL     1     -34.098  29.382   2.852  0.00  0.00    +0.012 C 
ATOM     12  C   UNL     1     -34.759  30.455   2.250  0.00  0.00    -0.028 C 
ATOM     13  C   UNL     1     -32.974  31.920   2.913  0.00  0.00    +0.082 C 
ATOM     14  C   UNL     1     -34.198  31.725   2.280  0.00  0.00    -0.041 C 
ATOM     15  C   UNL     1     -29.115  30.536   5.347  0.00  0.00    +0.297 C 
ATOM     16  C   UNL     1     -28.995  28.135   5.946  0.00  0.00    +0.277 C 
ATOM     17  C   UNL     1     -36.072  30.213   1.577  0.00  0.00    +0.030 C 
ATOM     18  C   UNL     1     -34.884  32.889   1.644  0.00  0.00    +0.026 C 
ENDROOT
BRANCH   3  19
ATOM     19  C   UNL     1     -32.734  27.165   4.093  0.00  0.00    +0.130 C 
BRANCH  19  20
ATOM     20  C   UNL     1     -33.571  26.931   5.357  0.00  0.00    +0.160 C 
BRANCH  20  21
ATOM     21  O   UNL     1     -32.690  26.863   6.479  0.00  0.00    -0.380 OA
ATOM     22  H   UNL     1     -31.944  26.279   6.270  0.00  0.00    +0.211 HD
ENDBRANCH  20  21
BRANCH  20  23
ATOM     23  C   UNL     1     -34.406  25.638   5.286  0.00  0.00    +0.168 C 
BRANCH  23  24
ATOM     24  O   UNL     1     -33.686  24.642   4.559  0.00  0.00    -0.379 OA
ATOM     25  H   UNL     1     -32.750  24.673   4.810  0.00  0.00    +0.211 HD
ENDBRANCH  23  24
BRANCH  23  26
ATOM     26  C   UNL     1     -35.778  25.842   4.616  0.00  0.00    +0.169 C 
BRANCH  26  27
ATOM     27  O   UNL     1     -36.623  26.582   5.498  0.00  0.00    -0.379 OA
ATOM     28  H   UNL     1     -36.135  27.343   5.851  0.00  0.00    +0.211 HD
ENDBRANCH  26  27
BRANCH  26  29
ATOM     29  C   UNL     1     -36.465  24.518   4.284  0.00  0.00    +0.169 C 
BRANCH  29  30
ATOM     30  O   UNL     1     -36.325  23.639   5.394  0.00  0.00    -0.379 OA
ATOM     31  H   UNL     1     -36.136  22.742   5.075  0.00  0.00    +0.211 HD
ENDBRANCH  29  30
ENDBRANCH  26  29
ENDBRANCH  23  26
ENDBRANCH  20  23
ENDBRANCH  19  20
ENDBRANCH   3  19
BRANCH   6  32
ATOM     32  C   UNL     1     -27.199  29.687   6.593  0.00  0.00    +0.221 C 
BRANCH  32  34
ATOM     33  O   UNL     1     -27.765  29.910   8.922  0.00  0.00    -0.248 OA
ATOM     34  C   UNL     1     -27.335  30.428   7.898  0.00  0.00    +0.336 C 
BRANCH  34  35
ATOM     35  O   UNL     1     -26.938  31.720   7.831  0.00  0.00    -0.479 OA
ATOM     36  H   UNL     1     -26.630  32.074   7.020  0.00  0.00    +0.295 HD
ENDBRANCH  34  35
ENDBRANCH  32  34
ENDBRANCH   6  32
TORSDOF 12
ENDMDL
MODEL 2
REMARK VINA RESULT:      -6.4      1.971      6.655
REMARK  Name = 193641
REMARK  12 active torsions:
REMARK  status: ('A' for Active; 'I' for Inactive)
REMARK    1  A    between atoms: N_3  and  C_19
REMARK    2  A    between atoms: N_6  and  C_32
REMARK    3  A    between atoms: C_19  and  C_20
REMARK    4  A    between atoms: C_20  and  O_21
REMARK    5  A    between atoms: C_20  and  C_23
REMARK    6  A    between atoms: C_23  and  O_24
REMARK    7  A    between atoms: C_23  and  C_26
REMARK    8  A    between atoms: C_26  and  O_27
REMARK    9  A    between atoms: C_26  and  C_29
REMARK   10  A    between atoms: C_29  and  O_30
REMARK   11  A    between atoms: C_32  and  C_34
REMARK   12  A    between atoms: C_34  and  O_35
REMARK                            x       y       z     vdW  Elec       q    Type
REMARK                         _______ _______ _______ _____ _____    ______ ____
ROOT
ATOM      1  O   UNL     1     -36.827  26.778   2.062  0.00  0.00    -0.266 OA
ATOM      2  O   UNL     1     -33.299  24.927   4.460  0.00  0.00    -0.193 OA
ATOM      3  N   UNL     1     -33.076  29.452   3.453  0.00  0.00    -0.255 N 
ATOM      4  N   UNL     1     -35.572  29.122   2.164  0.00  0.00    -0.396 NA
ATOM      5  N   UNL     1     -33.210  27.128   3.960  0.00  0.00    -0.302 NA
ATOM      6  N   UNL     1     -35.083  25.765   3.272  0.00  0.00    -0.159 N 
ATOM      7  C   UNL     1     -33.693  30.562   2.836  0.00  0.00    +0.079 C 
ATOM      8  C   UNL     1     -33.692  28.207   3.425  0.00  0.00    +0.236 C 
ATOM      9  C   UNL     1     -34.936  30.372   2.200  0.00  0.00    +0.127 C 
ATOM     10  C   UNL     1     -35.014  28.099   2.727  0.00  0.00    +0.230 C 
ATOM     11  C   UNL     1     -33.136  31.855   2.819  0.00  0.00    +0.012 C 
ATOM     12  C   UNL     1     -33.788  32.920   2.194  0.00  0.00    -0.028 C 
ATOM     13  C   UNL     1     -35.583  31.449   1.575  0.00  0.00    +0.082 C 
ATOM     14  C   UNL     1     -35.012  32.718   1.571  0.00  0.00    -0.041 C 
ATOM     15  C   UNL     1     -35.753  26.805   2.644  0.00  0.00    +0.297 C 
ATOM     16  C   UNL     1     -33.834  25.900   3.922  0.00  0.00    +0.277 C 
ATOM     17  C   UNL     1     -33.149  34.271   2.209  0.00  0.00    +0.030 C 
ATOM     18  C   UNL     1     -35.731  33.839   0.895  0.00  0.00    +0.026 C 
ENDROOT
BRANCH   3  19
ATOM     19  C   UNL     1     -31.786  29.657   4.111  0.00  0.00    +0.130 C 
BRANCH  19  20
ATOM     20  C   UNL     1     -32.002  30.069   5.572  0.00  0.00    +0.160 C 
BRANCH  20  21
ATOM     21  O   UNL     1     -31.377  31.336   5.783  0.00  0.00    -0.380 OA
ATOM     22  H   UNL     1     -30.425  31.211   5.913  0.00  0.00    +0.211 HD
ENDBRANCH  20  21
BRANCH  20  23
ATOM     23  C   UNL     1     -31.426  29.046   6.569  0.00  0.00    +0.168 C 
BRANCH  23  24
ATOM     24  O   UNL     1     -31.487  29.578   7.893  0.00  0.00    -0.379 OA
ATOM     25  H   UNL     1     -31.880  28.920   8.488  0.00  0.00    +0.211 HD
ENDBRANCH  23  24
BRANCH  23  26
ATOM     26  C   UNL     1     -29.967  28.658   6.261  0.00  0.00    +0.169 C 
BRANCH  26  27
ATOM     27  O   UNL     1     -29.737  27.319   6.702  0.00  0.00    -0.379 OA
ATOM     28  H   UNL     1     -28.878  27.013   6.372  0.00  0.00    +0.211 HD
ENDBRANCH  26  27
BRANCH  26  29
ATOM     29  C   UNL     1     -28.963  29.576   6.956  0.00  0.00    +0.169 C 
BRANCH  29  30
ATOM     30  O   UNL     1     -28.712  29.074   8.264  0.00  0.00    -0.379 OA
ATOM     31  H   UNL     1     -28.048  28.369   8.219  0.00  0.00    +0.211 HD
ENDBRANCH  29  30
ENDBRANCH  26  29
ENDBRANCH  23  26
ENDBRANCH  20  23
ENDBRANCH  19  20
ENDBRANCH   3  19
BRANCH   6  32
ATOM     32  C   UNL     1     -35.706  24.447   3.259  0.00  0.00    +0.221 C 
BRANCH  32  34
ATOM     33  O   UNL     1     -36.274  23.496   5.396  0.00  0.00    -0.248 OA
ATOM     34  C   UNL     1     -36.595  24.207   4.453  0.00  0.00    +0.336 C 
BRANCH  34  35
ATOM     35  O   UNL     1     -37.783  24.851   4.381  0.00  0.00    -0.479 OA
ATOM     36  H   UNL     1     -37.805  25.783   4.280  0.00  0.00    +0.295 HD
ENDBRANCH  34  35
ENDBRANCH  32  34
ENDBRANCH   6  32
TORSDOF 12
ENDMDL
MODEL 3
REMARK VINA RESULT:      -6.3      2.998      5.071
REMARK  Name = 193641
REMARK  12 active torsions:
REMARK  status: ('A' for Active; 'I' for Inactive)
REMARK    1  A    between atoms: N_3  and  C_19
REMARK    2  A    between atoms: N_6  and  C_32
REMARK    3  A    between atoms: C_19  and  C_20
REMARK    4  A    between atoms: C_20  and  O_21
REMARK    5  A    between atoms: C_20  and  C_23
REMARK    6  A    between atoms: C_23  and  O_24
REMARK    7  A    between atoms: C_23  and  C_26
REMARK    8  A    between atoms: C_26  and  O_27
REMARK    9  A    between atoms: C_26  and  C_29
REMARK   10  A    between atoms: C_29  and  O_30
REMARK   11  A    between atoms: C_32  and  C_34
REMARK   12  A    between atoms: C_34  and  O_35
REMARK                            x       y       z     vdW  Elec       q    Type
REMARK                         _______ _______ _______ _____ _____    ______ ____
ROOT
ATOM      1  O   UNL     1     -32.993  29.537   2.670  0.00  0.00    -0.266 OA
ATOM      2  O   UNL     1     -32.876  26.556   6.238  0.00  0.00    -0.193 OA
ATOM      3  N   UNL     1     -36.448  26.244   3.290  0.00  0.00    -0.255 N 
ATOM      4  N   UNL     1     -35.266  28.398   1.887  0.00  0.00    -0.396 NA
ATOM      5  N   UNL     1     -34.606  26.421   4.792  0.00  0.00    -0.302 NA
ATOM      6  N   UNL     1     -32.860  28.066   4.501  0.00  0.00    -0.159 N 
ATOM      7  C   UNL     1     -37.075  26.746   2.128  0.00  0.00    +0.079 C 
ATOM      8  C   UNL     1     -35.260  26.807   3.739  0.00  0.00    +0.236 C 
ATOM      9  C   UNL     1     -36.467  27.819   1.447  0.00  0.00    +0.127 C 
ATOM     10  C   UNL     1     -34.685  27.945   2.950  0.00  0.00    +0.230 C 
ATOM     11  C   UNL     1     -38.279  26.233   1.609  0.00  0.00    +0.012 C 
ATOM     12  C   UNL     1     -38.858  26.766   0.455  0.00  0.00    -0.028 C 
ATOM     13  C   UNL     1     -37.057  28.348   0.289  0.00  0.00    +0.082 C 
ATOM     14  C   UNL     1     -38.248  27.824  -0.205  0.00  0.00    -0.041 C 
ATOM     15  C   UNL     1     -33.413  28.614   3.352  0.00  0.00    +0.297 C 
ATOM     16  C   UNL     1     -33.428  26.991   5.224  0.00  0.00    +0.277 C 
ATOM     17  C   UNL     1     -40.136  26.180  -0.052  0.00  0.00    +0.030 C 
ATOM     18  C   UNL     1     -38.846  28.413  -1.441  0.00  0.00    +0.026 C 
ENDROOT
BRANCH   3  19
ATOM     19  C   UNL     1     -37.084  25.130   3.991  0.00  0.00    +0.130 C 
BRANCH  19  20
ATOM     20  C   UNL     1     -36.849  23.823   3.224  0.00  0.00    +0.160 C 
BRANCH  20  21
ATOM     21  O   UNL     1     -38.067  23.078   3.212  0.00  0.00    -0.380 OA
ATOM     22  H   UNL     1     -37.874  22.139   3.361  0.00  0.00    +0.211 HD
ENDBRANCH  20  21
BRANCH  20  23
ATOM     23  C   UNL     1     -35.731  22.963   3.845  0.00  0.00    +0.168 C 
BRANCH  23  24
ATOM     24  O   UNL     1     -36.054  21.580   3.699  0.00  0.00    -0.379 OA
ATOM     25  H   UNL     1     -36.442  21.430   2.823  0.00  0.00    +0.211 HD
ENDBRANCH  23  24
BRANCH  23  26
ATOM     26  C   UNL     1     -35.501  23.260   5.339  0.00  0.00    +0.169 C 
BRANCH  26  27
ATOM     27  O   UNL     1     -34.161  23.719   5.522  0.00  0.00    -0.379 OA
ATOM     28  H   UNL     1     -33.764  23.912   4.658  0.00  0.00    +0.211 HD
ENDBRANCH  26  27
BRANCH  26  29
ATOM     29  C   UNL     1     -35.716  22.028   6.217  0.00  0.00    +0.169 C 
BRANCH  29  30
ATOM     30  O   UNL     1     -34.532  21.238   6.194  0.00  0.00    -0.379 OA
ATOM     31  H   UNL     1     -33.759  21.808   6.328  0.00  0.00    +0.211 HD
ENDBRANCH  29  30
ENDBRANCH  26  29
ENDBRANCH  23  26
ENDBRANCH  20  23
ENDBRANCH  19  20
ENDBRANCH   3  19
BRANCH   6  32
ATOM     32  C   UNL     1     -31.612  28.635   4.995  0.00  0.00    +0.221 C 
BRANCH  32  34
ATOM     33  O   UNL     1     -32.276  30.716   6.008  0.00  0.00    -0.248 OA
ATOM     34  C   UNL     1     -31.817  29.588   6.145  0.00  0.00    +0.336 C 
BRANCH  34  35
ATOM     35  O   UNL     1     -31.444  29.080   7.341  0.00  0.00    -0.479 OA
ATOM     36  H   UNL     1     -32.042  29.092   8.063  0.00  0.00    +0.295 HD
ENDBRANCH  34  35
ENDBRANCH  32  34
ENDBRANCH   6  32
TORSDOF 12
ENDMDL
MODEL 4
REMARK VINA RESULT:      -6.2      2.639      7.500
REMARK  Name = 193641
REMARK  12 active torsions:
REMARK  status: ('A' for Active; 'I' for Inactive)
REMARK    1  A    between atoms: N_3  and  C_19
REMARK    2  A    between atoms: N_6  and  C_32
REMARK    3  A    between atoms: C_19  and  C_20
REMARK    4  A    between atoms: C_20  and  O_21
REMARK    5  A    between atoms: C_20  and  C_23
REMARK    6  A    between atoms: C_23  and  O_24
REMARK    7  A    between atoms: C_23  and  C_26
REMARK    8  A    between atoms: C_26  and  O_27
REMARK    9  A    between atoms: C_26  and  C_29
REMARK   10  A    between atoms: C_29  and  O_30
REMARK   11  A    between atoms: C_32  and  C_34
REMARK   12  A    between atoms: C_34  and  O_35
REMARK                            x       y       z     vdW  Elec       q    Type
REMARK                         _______ _______ _______ _____ _____    ______ ____
ROOT
ATOM      1  O   UNL     1     -34.443  24.020   2.026  0.00  0.00    -0.266 OA
ATOM      2  O   UNL     1     -36.015  26.033   5.912  0.00  0.00    -0.193 OA
ATOM      3  N   UNL     1     -32.195  27.809   3.962  0.00  0.00    -0.255 N 
ATOM      4  N   UNL     1     -32.467  25.800   1.989  0.00  0.00    -0.396 NA
ATOM      5  N   UNL     1     -34.158  26.882   4.948  0.00  0.00    -0.302 NA
ATOM      6  N   UNL     1     -35.303  24.981   3.993  0.00  0.00    -0.159 N 
ATOM      7  C   UNL     1     -31.256  27.734   2.911  0.00  0.00    +0.079 C 
ATOM      8  C   UNL     1     -33.245  26.900   4.025  0.00  0.00    +0.236 C 
ATOM      9  C   UNL     1     -31.412  26.725   1.940  0.00  0.00    +0.127 C 
ATOM     10  C   UNL     1     -33.332  25.861   2.949  0.00  0.00    +0.230 C 
ATOM     11  C   UNL     1     -30.166  28.615   2.776  0.00  0.00    +0.012 C 
ATOM     12  C   UNL     1     -29.264  28.499   1.716  0.00  0.00    -0.028 C 
ATOM     13  C   UNL     1     -30.501  26.616   0.879  0.00  0.00    +0.082 C 
ATOM     14  C   UNL     1     -29.431  27.499   0.767  0.00  0.00    -0.041 C 
ATOM     15  C   UNL     1     -34.423  24.842   2.929  0.00  0.00    +0.297 C 
ATOM     16  C   UNL     1     -35.192  25.972   4.995  0.00  0.00    +0.277 C 
ATOM     17  C   UNL     1     -28.126  29.463   1.622  0.00  0.00    +0.030 C 
ATOM     18  C   UNL     1     -28.481  27.352  -0.377  0.00  0.00    +0.026 C 
ENDROOT
BRANCH   3  19
ATOM     19  C   UNL     1     -32.027  28.859   4.966  0.00  0.00    +0.130 C 
BRANCH  19  20
ATOM     20  C   UNL     1     -31.386  28.278   6.232  0.00  0.00    +0.160 C 
BRANCH  20  21
ATOM     21  O   UNL     1     -32.382  28.202   7.252  0.00  0.00    -0.380 OA
ATOM     22  H   UNL     1     -33.062  28.875   7.092  0.00  0.00    +0.211 HD
ENDBRANCH  20  21
BRANCH  20  23
ATOM     23  C   UNL     1     -30.201  29.122   6.739  0.00  0.00    +0.168 C 
BRANCH  23  24
ATOM     24  O   UNL     1     -30.068  30.294   5.936  0.00  0.00    -0.379 OA
ATOM     25  H   UNL     1     -29.155  30.617   5.983  0.00  0.00    +0.211 HD
ENDBRANCH  23  24
BRANCH  23  26
ATOM     26  C   UNL     1     -28.863  28.357   6.720  0.00  0.00    +0.169 C 
BRANCH  26  27
ATOM     27  O   UNL     1     -29.101  26.993   7.070  0.00  0.00    -0.379 OA
ATOM     28  H   UNL     1     -28.259  26.563   7.287  0.00  0.00    +0.211 HD
ENDBRANCH  26  27
BRANCH  26  29
ATOM     29  C   UNL     1     -27.847  28.939   7.702  0.00  0.00    +0.169 C 
BRANCH  29  30
ATOM     30  O   UNL     1     -28.544  29.452   8.832  0.00  0.00    -0.379 OA
ATOM     31  H   UNL     1     -29.007  30.268   8.585  0.00  0.00    +0.211 HD
ENDBRANCH  29  30
ENDBRANCH  26  29
ENDBRANCH  23  26
ENDBRANCH  20  23
ENDBRANCH  19  20
ENDBRANCH   3  19
BRANCH   6  32
ATOM     32  C   UNL     1     -36.414  24.041   4.084  0.00  0.00    +0.221 C 
BRANCH  32  34
ATOM     33  O   UNL     1     -36.010  22.615   5.981  0.00  0.00    -0.248 OA
ATOM     34  C   UNL     1     -36.037  22.750   4.764  0.00  0.00    +0.336 C 
BRANCH  34  35
ATOM     35  O   UNL     1     -35.728  21.755   3.901  0.00  0.00    -0.479 OA
ATOM     36  H   UNL     1     -35.561  20.890   4.222  0.00  0.00    +0.295 HD
ENDBRANCH  34  35
ENDBRANCH  32  34
ENDBRANCH   6  32
TORSDOF 12
ENDMDL
MODEL 5
REMARK VINA RESULT:      -6.2      3.777      6.509
REMARK  Name = 193641
REMARK  12 active torsions:
REMARK  status: ('A' for Active; 'I' for Inactive)
REMARK    1  A    between atoms: N_3  and  C_19
REMARK    2  A    between atoms: N_6  and  C_32
REMARK    3  A    between atoms: C_19  and  C_20
REMARK    4  A    between atoms: C_20  and  O_21
REMARK    5  A    between atoms: C_20  and  C_23
REMARK    6  A    between atoms: C_23  and  O_24
REMARK    7  A    between atoms: C_23  and  C_26
REMARK    8  A    between atoms: C_26  and  O_27
REMARK    9  A    between atoms: C_26  and  C_29
REMARK   10  A    between atoms: C_29  and  O_30
REMARK   11  A    between atoms: C_32  and  C_34
REMARK   12  A    between atoms: C_34  and  O_35
REMARK                            x       y       z     vdW  Elec       q    Type
REMARK                         _______ _______ _______ _____ _____    ______ ____
ROOT
ATOM      1  O   UNL     1     -34.983  29.391   1.219  0.00  0.00    -0.266 OA
ATOM      2  O   UNL     1     -33.159  26.635   4.491  0.00  0.00    -0.193 OA
ATOM      3  N   UNL     1     -37.354  25.529   2.839  0.00  0.00    -0.255 N 
ATOM      4  N   UNL     1     -37.122  27.810   1.182  0.00  0.00    -0.396 NA
ATOM      5  N   UNL     1     -35.200  26.114   3.674  0.00  0.00    -0.302 NA
ATOM      6  N   UNL     1     -33.991  28.048   2.876  0.00  0.00    -0.159 N 
ATOM      7  C   UNL     1     -38.403  25.855   1.952  0.00  0.00    +0.079 C 
ATOM      8  C   UNL     1     -36.216  26.325   2.896  0.00  0.00    +0.236 C 
ATOM      9  C   UNL     1     -38.264  26.995   1.137  0.00  0.00    +0.127 C 
ATOM     10  C   UNL     1     -36.156  27.519   1.991  0.00  0.00    +0.230 C 
ATOM     11  C   UNL     1     -39.587  25.101   1.835  0.00  0.00    +0.012 C 
ATOM     12  C   UNL     1     -40.595  25.467   0.941  0.00  0.00    -0.028 C 
ATOM     13  C   UNL     1     -39.283  27.355   0.242  0.00  0.00    +0.082 C 
ATOM     14  C   UNL     1     -40.445  26.594   0.144  0.00  0.00    -0.041 C 
ATOM     15  C   UNL     1     -34.976  28.434   1.979  0.00  0.00    +0.297 C 
ATOM     16  C   UNL     1     -34.079  26.915   3.718  0.00  0.00    +0.277 C 
ATOM     17  C   UNL     1     -41.830  24.628   0.858  0.00  0.00    +0.030 C 
ATOM     18  C   UNL     1     -41.508  27.007  -0.820  0.00  0.00    +0.026 C 
ENDROOT
BRANCH   3  19
ATOM     19  C   UNL     1     -37.505  24.343   3.682  0.00  0.00    +0.130 C 
BRANCH  19  20
ATOM     20  C   UNL     1     -36.888  23.124   2.987  0.00  0.00    +0.160 C 
BRANCH  20  21
ATOM     21  O   UNL     1     -37.908  22.140   2.806  0.00  0.00    -0.380 OA
ATOM     22  H   UNL     1     -38.092  22.035   1.860  0.00  0.00    +0.211 HD
ENDBRANCH  20  21
BRANCH  20  23
ATOM     23  C   UNL     1     -35.725  22.508   3.788  0.00  0.00    +0.168 C 
BRANCH  23  24
ATOM     24  O   UNL     1     -35.935  21.104   3.938  0.00  0.00    -0.379 OA
ATOM     25  H   UNL     1     -36.185  20.911   4.855  0.00  0.00    +0.211 HD
ENDBRANCH  23  24
BRANCH  23  26
ATOM     26  C   UNL     1     -35.558  23.134   5.187  0.00  0.00    +0.169 C 
BRANCH  26  27
ATOM     27  O   UNL     1     -34.301  23.809   5.249  0.00  0.00    -0.379 OA
ATOM     28  H   UNL     1     -33.956  23.767   6.155  0.00  0.00    +0.211 HD
ENDBRANCH  26  27
BRANCH  26  29
ATOM     29  C   UNL     1     -35.604  22.088   6.300  0.00  0.00    +0.169 C 
BRANCH  29  30
ATOM     30  O   UNL     1     -34.399  21.331   6.266  0.00  0.00    -0.379 OA
ATOM     31  H   UNL     1     -33.787  21.724   5.624  0.00  0.00    +0.211 HD
ENDBRANCH  29  30
ENDBRANCH  26  29
ENDBRANCH  23  26
ENDBRANCH  20  23
ENDBRANCH  19  20
ENDBRANCH   3  19
BRANCH   6  32
ATOM     32  C   UNL     1     -32.785  28.865   2.957  0.00  0.00    +0.221 C 
BRANCH  32  34
ATOM     33  O   UNL     1     -33.294  31.105   3.675  0.00  0.00    -0.248 OA
ATOM     34  C   UNL     1     -32.899  29.981   3.962  0.00  0.00    +0.336 C 
BRANCH  34  35
ATOM     35  O   UNL     1     -32.522  29.625   5.211  0.00  0.00    -0.479 OA
ATOM     36  H   UNL     1     -32.761  28.785   5.552  0.00  0.00    +0.295 HD
ENDBRANCH  34  35
ENDBRANCH  32  34
ENDBRANCH   6  32
TORSDOF 12
ENDMDL
MODEL 6
REMARK VINA RESULT:      -6.2      2.992      5.019
REMARK  Name = 193641
REMARK  12 active torsions:
REMARK  status: ('A' for Active; 'I' for Inactive)
REMARK    1  A    between atoms: N_3  and  C_19
REMARK    2  A    between atoms: N_6  and  C_32
REMARK    3  A    between atoms: C_19  and  C_20
REMARK    4  A    between atoms: C_20  and  O_21
REMARK    5  A    between atoms: C_20  and  C_23
REMARK    6  A    between atoms: C_23  and  O_24
REMARK    7  A    between atoms: C_23  and  C_26
REMARK    8  A    between atoms: C_26  and  O_27
REMARK    9  A    between atoms: C_26  and  C_29
REMARK   10  A    between atoms: C_29  and  O_30
REMARK   11  A    between atoms: C_32  and  C_34
REMARK   12  A    between atoms: C_34  and  O_35
REMARK                            x       y       z     vdW  Elec       q    Type
REMARK                         _______ _______ _______ _____ _____    ______ ____
ROOT
ATOM      1  O   UNL     1     -32.982  29.461   2.904  0.00  0.00    -0.266 OA
ATOM      2  O   UNL     1     -32.134  26.855   6.661  0.00  0.00    -0.193 OA
ATOM      3  N   UNL     1     -35.875  25.812   4.119  0.00  0.00    -0.255 N 
ATOM      4  N   UNL     1     -35.135  27.968   2.443  0.00  0.00    -0.396 NA
ATOM      5  N   UNL     1     -33.950  26.364   5.411  0.00  0.00    -0.302 NA
ATOM      6  N   UNL     1     -32.483  28.191   4.820  0.00  0.00    -0.159 N 
ATOM      7  C   UNL     1     -36.667  26.120   2.991  0.00  0.00    +0.079 C 
ATOM      8  C   UNL     1     -34.742  26.564   4.402  0.00  0.00    +0.236 C 
ATOM      9  C   UNL     1     -36.278  27.199   2.172  0.00  0.00    +0.127 C 
ATOM     10  C   UNL     1     -34.404  27.692   3.474  0.00  0.00    +0.230 C 
ATOM     11  C   UNL     1     -37.829  25.409   2.636  0.00  0.00    +0.012 C 
ATOM     12  C   UNL     1     -38.577  25.755   1.509  0.00  0.00    -0.028 C 
ATOM     13  C   UNL     1     -37.036  27.539   1.042  0.00  0.00    +0.082 C 
ATOM     14  C   UNL     1     -38.182  26.821   0.711  0.00  0.00    -0.041 C 
ATOM     15  C   UNL     1     -33.207  28.557   3.694  0.00  0.00    +0.297 C 
ATOM     16  C   UNL     1     -32.829  27.121   5.677  0.00  0.00    +0.277 C 
ATOM     17  C   UNL     1     -39.801  24.963   1.180  0.00  0.00    +0.030 C 
ATOM     18  C   UNL     1     -38.964  27.212  -0.500  0.00  0.00    +0.026 C 
ENDROOT
BRANCH   3  19
ATOM     19  C   UNL     1     -36.285  24.691   4.964  0.00  0.00    +0.130 C 
BRANCH  19  20
ATOM     20  C   UNL     1     -35.373  23.484   4.714  0.00  0.00    +0.160 C 
BRANCH  20  21
ATOM     21  O   UNL     1     -34.513  23.785   3.614  0.00  0.00    -0.380 OA
ATOM     22  H   UNL     1     -33.589  23.696   3.891  0.00  0.00    +0.211 HD
ENDBRANCH  20  21
BRANCH  20  23
ATOM     23  C   UNL     1     -36.162  22.197   4.406  0.00  0.00    +0.168 C 
BRANCH  23  24
ATOM     24  O   UNL     1     -35.461  21.068   4.928  0.00  0.00    -0.379 OA
ATOM     25  H   UNL     1     -36.071  20.521   5.446  0.00  0.00    +0.211 HD
ENDBRANCH  23  24
BRANCH  23  26
ATOM     26  C   UNL     1     -36.395  21.979   2.899  0.00  0.00    +0.169 C 
BRANCH  26  27
ATOM     27  O   UNL     1     -37.800  21.962   2.642  0.00  0.00    -0.379 OA
ATOM     28  H   UNL     1     -38.174  22.836   2.833  0.00  0.00    +0.211 HD
ENDBRANCH  26  27
BRANCH  26  29
ATOM     29  C   UNL     1     -35.795  20.664   2.403  0.00  0.00    +0.169 C 
BRANCH  29  30
ATOM     30  O   UNL     1     -36.765  19.633   2.552  0.00  0.00    -0.379 OA
ATOM     31  H   UNL     1     -36.321  18.771   2.574  0.00  0.00    +0.211 HD
ENDBRANCH  29  30
ENDBRANCH  26  29
ENDBRANCH  23  26
ENDBRANCH  20  23
ENDBRANCH  19  20
ENDBRANCH   3  19
BRANCH   6  32
ATOM     32  C   UNL     1     -31.288  28.962   5.141  0.00  0.00    +0.221 C 
BRANCH  32  34
ATOM     33  O   UNL     1     -32.048  31.020   6.133  0.00  0.00    -0.248 OA
ATOM     34  C   UNL     1     -31.502  29.932   6.275  0.00  0.00    +0.336 C 
BRANCH  34  35
ATOM     35  O   UNL     1     -31.033  29.488   7.463  0.00  0.00    -0.479 OA
ATOM     36  H   UNL     1     -30.263  28.954   7.493  0.00  0.00    +0.295 HD
ENDBRANCH  34  35
ENDBRANCH  32  34
ENDBRANCH   6  32
TORSDOF 12
ENDMDL
MODEL 7
REMARK VINA RESULT:      -6.1      3.383      7.502
REMARK  Name = 193641
REMARK  12 active torsions:
REMARK  status: ('A' for Active; 'I' for Inactive)
REMARK    1  A    between atoms: N_3  and  C_19
REMARK    2  A    between atoms: N_6  and  C_32
REMARK    3  A    between atoms: C_19  and  C_20
REMARK    4  A    between atoms: C_20  and  O_21
REMARK    5  A    between atoms: C_20  and  C_23
REMARK    6  A    between atoms: C_23  and  O_24
REMARK    7  A    between atoms: C_23  and  C_26
REMARK    8  A    between atoms: C_26  and  O_27
REMARK    9  A    between atoms: C_26  and  C_29
REMARK   10  A    between atoms: C_29  and  O_30
REMARK   11  A    between atoms: C_32  and  C_34
REMARK   12  A    between atoms: C_34  and  O_35
REMARK                            x       y       z     vdW  Elec       q    Type
REMARK                         _______ _______ _______ _____ _____    ______ ____
ROOT
ATOM      1  O   UNL     1     -34.730  25.120   5.795  0.00  0.00    -0.266 OA
ATOM      2  O   UNL     1     -37.052  26.612   2.053  0.00  0.00    -0.193 OA
ATOM      3  N   UNL     1     -33.323  29.037   3.379  0.00  0.00    -0.255 N 
ATOM      4  N   UNL     1     -33.050  27.158   5.476  0.00  0.00    -0.396 NA
ATOM      5  N   UNL     1     -35.235  27.778   2.714  0.00  0.00    -0.302 NA
ATOM      6  N   UNL     1     -35.959  25.809   3.912  0.00  0.00    -0.159 N 
ATOM      7  C   UNL     1     -32.261  29.171   4.299  0.00  0.00    +0.079 C 
ATOM      8  C   UNL     1     -34.227  27.989   3.505  0.00  0.00    +0.236 C 
ATOM      9  C   UNL     1     -32.146  28.223   5.335  0.00  0.00    +0.127 C 
ATOM     10  C   UNL     1     -34.026  27.028   4.637  0.00  0.00    +0.230 C 
ATOM     11  C   UNL     1     -31.305  30.203   4.242  0.00  0.00    +0.012 C 
ATOM     12  C   UNL     1     -30.272  30.290   5.178  0.00  0.00    -0.028 C 
ATOM     13  C   UNL     1     -31.106  28.320   6.271  0.00  0.00    +0.082 C 
ATOM     14  C   UNL     1     -30.172  29.349   6.194  0.00  0.00    -0.041 C 
ATOM     15  C   UNL     1     -34.944  25.871   4.856  0.00  0.00    +0.297 C 
ATOM     16  C   UNL     1     -36.122  26.733   2.854  0.00  0.00    +0.277 C 
ATOM     17  C   UNL     1     -29.285  31.407   5.067  0.00  0.00    +0.030 C 
ATOM     18  C   UNL     1     -29.078  29.419   7.208  0.00  0.00    +0.026 C 
ENDROOT
BRANCH   3  19
ATOM     19  C   UNL     1     -33.435  30.025   2.306  0.00  0.00    +0.130 C 
BRANCH  19  20
ATOM     20  C   UNL     1     -34.413  31.133   2.713  0.00  0.00    +0.160 C 
BRANCH  20  21
ATOM     21  O   UNL     1     -35.246  30.640   3.764  0.00  0.00    -0.380 OA
ATOM     22  H   UNL     1     -34.732  30.050   4.335  0.00  0.00    +0.211 HD
ENDBRANCH  20  21
BRANCH  20  23
ATOM     23  C   UNL     1     -35.296  31.606   1.543  0.00  0.00    +0.168 C 
BRANCH  23  24
ATOM     24  O   UNL     1     -35.263  33.031   1.462  0.00  0.00    -0.379 OA
ATOM     25  H   UNL     1     -35.877  33.330   0.774  0.00  0.00    +0.211 HD
ENDBRANCH  23  24
BRANCH  23  26
ATOM     26  C   UNL     1     -36.764  31.154   1.673  0.00  0.00    +0.169 C 
BRANCH  26  27
ATOM     27  O   UNL     1     -36.869  29.788   1.269  0.00  0.00    -0.379 OA
ATOM     28  H   UNL     1     -37.459  29.722   0.503  0.00  0.00    +0.211 HD
ENDBRANCH  26  27
BRANCH  26  29
ATOM     29  C   UNL     1     -37.708  31.990   0.810  0.00  0.00    +0.169 C 
BRANCH  29  30
ATOM     30  O   UNL     1     -39.014  31.935   1.374  0.00  0.00    -0.379 OA
ATOM     31  H   UNL     1     -39.054  31.219   2.028  0.00  0.00    +0.211 HD
ENDBRANCH  29  30
ENDBRANCH  26  29
ENDBRANCH  23  26
ENDBRANCH  20  23
ENDBRANCH  19  20
ENDBRANCH   3  19
BRANCH   6  32
ATOM     32  C   UNL     1     -36.923  24.719   4.019  0.00  0.00    +0.221 C 
BRANCH  32  34
ATOM     33  O   UNL     1     -35.896  23.082   2.584  0.00  0.00    -0.248 OA
ATOM     34  C   UNL     1     -36.325  23.374   3.693  0.00  0.00    +0.336 C 
BRANCH  34  35
ATOM     35  O   UNL     1     -36.310  22.520   4.742  0.00  0.00    -0.479 OA
ATOM     36  H   UNL     1     -36.091  21.619   4.610  0.00  0.00    +0.295 HD
ENDBRANCH  34  35
ENDBRANCH  32  34
ENDBRANCH   6  32
TORSDOF 12
ENDMDL
MODEL 8
REMARK VINA RESULT:      -6.0      5.601      8.635
REMARK  Name = 193641
REMARK  12 active torsions:
REMARK  status: ('A' for Active; 'I' for Inactive)
REMARK    1  A    between atoms: N_3  and  C_19
REMARK    2  A    between atoms: N_6  and  C_32
REMARK    3  A    between atoms: C_19  and  C_20
REMARK    4  A    between atoms: C_20  and  O_21
REMARK    5  A    between atoms: C_20  and  C_23
REMARK    6  A    between atoms: C_23  and  O_24
REMARK    7  A    between atoms: C_23  and  C_26
REMARK    8  A    between atoms: C_26  and  O_27
REMARK    9  A    between atoms: C_26  and  C_29
REMARK   10  A    between atoms: C_29  and  O_30
REMARK   11  A    between atoms: C_32  and  C_34
REMARK   12  A    between atoms: C_34  and  O_35
REMARK                            x       y       z     vdW  Elec       q    Type
REMARK                         _______ _______ _______ _____ _____    ______ ____
ROOT
ATOM      1  O   UNL     1     -36.619  26.539   4.424  0.00  0.00    -0.266 OA
ATOM      2  O   UNL     1     -35.049  22.198   4.989  0.00  0.00    -0.193 OA
ATOM      3  N   UNL     1     -38.680  22.823   2.165  0.00  0.00    -0.255 N 
ATOM      4  N   UNL     1     -38.473  25.577   2.777  0.00  0.00    -0.396 NA
ATOM      5  N   UNL     1     -36.815  22.523   3.619  0.00  0.00    -0.302 NA
ATOM      6  N   UNL     1     -35.765  24.374   4.763  0.00  0.00    -0.159 N 
ATOM      7  C   UNL     1     -39.587  23.735   1.583  0.00  0.00    +0.079 C 
ATOM      8  C   UNL     1     -37.694  23.277   3.033  0.00  0.00    +0.236 C 
ATOM      9  C   UNL     1     -39.464  25.102   1.903  0.00  0.00    +0.127 C 
ATOM     10  C   UNL     1     -37.638  24.748   3.315  0.00  0.00    +0.230 C 
ATOM     11  C   UNL     1     -40.613  23.357   0.696  0.00  0.00    +0.012 C 
ATOM     12  C   UNL     1     -41.484  24.300   0.147  0.00  0.00    -0.028 C 
ATOM     13  C   UNL     1     -40.345  26.041   1.347  0.00  0.00    +0.082 C 
ATOM     14  C   UNL     1     -41.352  25.643   0.473  0.00  0.00    -0.041 C 
ATOM     15  C   UNL     1     -36.616  25.332   4.233  0.00  0.00    +0.297 C 
ATOM     16  C   UNL     1     -35.844  22.991   4.477  0.00  0.00    +0.277 C 
ATOM     17  C   UNL     1     -42.554  23.840  -0.789  0.00  0.00    +0.030 C 
ATOM     18  C   UNL     1     -42.270  26.672  -0.100  0.00  0.00    +0.026 C 
ENDROOT
BRANCH   3  19
ATOM     19  C   UNL     1     -38.813  21.406   1.827  0.00  0.00    +0.130 C 
BRANCH  19  20
ATOM     20  C   UNL     1     -37.836  21.040   0.704  0.00  0.00    +0.160 C 
BRANCH  20  21
ATOM     21  O   UNL     1     -38.581  20.500  -0.388  0.00  0.00    -0.380 OA
ATOM     22  H   UNL     1     -39.412  20.124  -0.059  0.00  0.00    +0.211 HD
ENDBRANCH  20  21
BRANCH  20  23
ATOM     23  C   UNL     1     -36.774  20.017   1.151  0.00  0.00    +0.168 C 
BRANCH  23  24
ATOM     24  O   UNL     1     -36.978  19.682   2.524  0.00  0.00    -0.379 OA
ATOM     25  H   UNL     1     -37.705  19.045   2.596  0.00  0.00    +0.211 HD
ENDBRANCH  23  24
BRANCH  23  26
ATOM     26  C   UNL     1     -35.331  20.530   0.978  0.00  0.00    +0.169 C 
BRANCH  26  27
ATOM     27  O   UNL     1     -34.705  20.601   2.260  0.00  0.00    -0.379 OA
ATOM     28  H   UNL     1     -34.669  21.525   2.552  0.00  0.00    +0.211 HD
ENDBRANCH  26  27
BRANCH  26  29
ATOM     29  C   UNL     1     -35.281  21.917   0.337  0.00  0.00    +0.169 C 
BRANCH  29  30
ATOM     30  O   UNL     1     -34.702  22.829   1.264  0.00  0.00    -0.379 OA
ATOM     31  H   UNL     1     -34.899  22.539   2.169  0.00  0.00    +0.211 HD
ENDBRANCH  29  30
ENDBRANCH  26  29
ENDBRANCH  23  26
ENDBRANCH  20  23
ENDBRANCH  19  20
ENDBRANCH   3  19
BRANCH   6  32
ATOM     32  C   UNL     1     -34.719  24.822   5.676  0.00  0.00    +0.221 C 
BRANCH  32  34
ATOM     33  O   UNL     1     -33.025  25.473   4.095  0.00  0.00    -0.248 OA
ATOM     34  C   UNL     1     -33.750  25.781   5.034  0.00  0.00    +0.336 C 
BRANCH  34  35
ATOM     35  O   UNL     1     -33.756  27.012   5.593  0.00  0.00    -0.479 OA
ATOM     36  H   UNL     1     -34.182  27.151   6.416  0.00  0.00    +0.295 HD
ENDBRANCH  34  35
ENDBRANCH  32  34
ENDBRANCH   6  32
TORSDOF 12
ENDMDL
MODEL 9
REMARK VINA RESULT:      -5.9      6.284     11.094
REMARK  Name = 193641
REMARK  12 active torsions:
REMARK  status: ('A' for Active; 'I' for Inactive)
REMARK    1  A    between atoms: N_3  and  C_19
REMARK    2  A    between atoms: N_6  and  C_32
REMARK    3  A    between atoms: C_19  and  C_20
REMARK    4  A    between atoms: C_20  and  O_21
REMARK    5  A    between atoms: C_20  and  C_23
REMARK    6  A    between atoms: C_23  and  O_24
REMARK    7  A    between atoms: C_23  and  C_26
REMARK    8  A    between atoms: C_26  and  O_27
REMARK    9  A    between atoms: C_26  and  C_29
REMARK   10  A    between atoms: C_29  and  O_30
REMARK   11  A    between atoms: C_32  and  C_34
REMARK   12  A    between atoms: C_34  and  O_35
REMARK                            x       y       z     vdW  Elec       q    Type
REMARK                         _______ _______ _______ _____ _____    ______ ____
ROOT
ATOM      1  O   UNL     1     -40.887  23.777  -0.542  0.00  0.00    -0.266 OA
ATOM      2  O   UNL     1     -40.592  26.584   3.153  0.00  0.00    -0.193 OA
ATOM      3  N   UNL     1     -37.377  23.266   2.710  0.00  0.00    -0.255 N 
ATOM      4  N   UNL     1     -38.716  22.514   0.335  0.00  0.00    -0.396 NA
ATOM      5  N   UNL     1     -39.037  24.963   2.919  0.00  0.00    -0.302 NA
ATOM      6  N   UNL     1     -40.808  25.238   1.299  0.00  0.00    -0.159 N 
ATOM      7  C   UNL     1     -36.888  22.181   1.949  0.00  0.00    +0.079 C 
ATOM      8  C   UNL     1     -38.508  23.956   2.293  0.00  0.00    +0.236 C 
ATOM      9  C   UNL     1     -37.573  21.826   0.770  0.00  0.00    +0.127 C 
ATOM     10  C   UNL     1     -39.171  23.508   1.026  0.00  0.00    +0.230 C 
ATOM     11  C   UNL     1     -35.750  21.431   2.302  0.00  0.00    +0.012 C 
ATOM     12  C   UNL     1     -35.308  20.367   1.513  0.00  0.00    -0.028 C 
ATOM     13  C   UNL     1     -37.121  20.755  -0.016  0.00  0.00    +0.082 C 
ATOM     14  C   UNL     1     -35.993  20.027   0.354  0.00  0.00    -0.041 C 
ATOM     15  C   UNL     1     -40.391  24.186   0.496  0.00  0.00    +0.297 C 
ATOM     16  C   UNL     1     -40.161  25.636   2.492  0.00  0.00    +0.277 C 
ATOM     17  C   UNL     1     -34.093  19.606   1.936  0.00  0.00    +0.030 C 
ATOM     18  C   UNL     1     -35.542  18.894  -0.507  0.00  0.00    +0.026 C 
ENDROOT
BRANCH   3  19
ATOM     19  C   UNL     1     -36.661  23.629   3.932  0.00  0.00    +0.130 C 
BRANCH  19  20
ATOM     20  C   UNL     1     -35.459  24.519   3.592  0.00  0.00    +0.160 C 
BRANCH  20  21
ATOM     21  O   UNL     1     -34.296  23.967   4.211  0.00  0.00    -0.380 OA
ATOM     22  H   UNL     1     -33.564  24.599   4.147  0.00  0.00    +0.211 HD
ENDBRANCH  20  21
BRANCH  20  23
ATOM     23  C   UNL     1     -35.644  25.974   4.063  0.00  0.00    +0.168 C 
BRANCH  23  24
ATOM     24  O   UNL     1     -36.999  26.179   4.463  0.00  0.00    -0.379 OA
ATOM     25  H   UNL     1     -37.020  26.718   5.270  0.00  0.00    +0.211 HD
ENDBRANCH  23  24
BRANCH  23  26
ATOM     26  C   UNL     1     -35.288  27.009   2.979  0.00  0.00    +0.169 C 
BRANCH  26  27
ATOM     27  O   UNL     1     -35.456  28.322   3.515  0.00  0.00    -0.379 OA
ATOM     28  H   UNL     1     -36.402  28.516   3.605  0.00  0.00    +0.211 HD
ENDBRANCH  26  27
BRANCH  26  29
ATOM     29  C   UNL     1     -36.169  26.876   1.737  0.00  0.00    +0.169 C 
BRANCH  29  30
ATOM     30  O   UNL     1     -37.437  27.462   2.009  0.00  0.00    -0.379 OA
ATOM     31  H   UNL     1     -37.610  27.430   2.963  0.00  0.00    +0.211 HD
ENDBRANCH  29  30
ENDBRANCH  26  29
ENDBRANCH  23  26
ENDBRANCH  20  23
ENDBRANCH  19  20
ENDBRANCH   3  19
BRANCH   6  32
ATOM     32  C   UNL     1     -41.993  25.982   0.886  0.00  0.00    +0.221 C 
BRANCH  32  34
ATOM     33  O   UNL     1     -43.859  24.475   1.087  0.00  0.00    -0.248 OA
ATOM     34  C   UNL     1     -43.261  25.458   1.509  0.00  0.00    +0.336 C 
BRANCH  34  35
ATOM     35  O   UNL     1     -43.678  26.177   2.576  0.00  0.00    -0.479 OA
ATOM     36  H   UNL     1     -43.055  26.484   3.206  0.00  0.00    +0.295 HD
ENDBRANCH  34  35
ENDBRANCH  32  34
ENDBRANCH   6  32
TORSDOF 12
ENDMDL
