MODEL 1
REMARK VINA RESULT:      -5.1      0.000      0.000
REMARK  Name = 5283137
REMARK  16 active torsions:
REMARK  status: ('A' for Active; 'I' for Inactive)
REMARK    1  A    between atoms: C_2  and  C_21
REMARK    2  A    between atoms: C_3  and  O_7
REMARK    3  A    between atoms: C_4  and  C_11
REMARK    4  A    between atoms: C_6  and  O_9
REMARK    5  A    between atoms: C_12  and  C_13
REMARK    6  A    between atoms: C_13  and  O_14
REMARK    7  A    between atoms: C_13  and  C_16
REMARK    8  A    between atoms: C_16  and  C_17
REMARK    9  A    between atoms: C_17  and  C_18
REMARK   10  A    between atoms: C_18  and  C_19
REMARK   11  A    between atoms: C_21  and  C_22
REMARK   12  A    between atoms: C_23  and  C_24
REMARK   13  A    between atoms: C_24  and  C_25
REMARK   14  A    between atoms: C_25  and  C_26
REMARK   15  A    between atoms: C_26  and  C_28
REMARK   16  A    between atoms: C_28  and  O_29
REMARK                            x       y       z     vdW  Elec       q    Type
REMARK                         _______ _______ _______ _____ _____    ______ ____
ROOT
ATOM      1  O   UNL     1     -34.978  21.013   4.675  0.00  0.00    -0.329 OA
ATOM      2  C   UNL     1     -35.338  22.899   3.166  0.00  0.00    +0.063 C 
ATOM      3  C   UNL     1     -35.387  23.857   4.375  0.00  0.00    +0.118 C 
ATOM      4  C   UNL     1     -35.777  21.476   3.579  0.00  0.00    +0.142 C 
ATOM      5  C   UNL     1     -34.671  23.257   5.586  0.00  0.00    +0.090 C 
ATOM      6  C   UNL     1     -35.082  21.808   5.855  0.00  0.00    +0.234 C 
ENDROOT
BRANCH   3   7
ATOM      7  O   UNL     1     -36.722  24.203   4.735  0.00  0.00    -0.384 OA
ATOM      8  H   UNL     1     -37.260  24.293   3.932  0.00  0.00    +0.210 HD
ENDBRANCH   3   7
BRANCH   6   9
ATOM      9  O   UNL     1     -36.360  21.710   6.478  0.00  0.00    -0.360 OA
ATOM     10  H   UNL     1     -36.273  21.230   7.316  0.00  0.00    +0.213 HD
ENDBRANCH   6   9
BRANCH   4  11
ATOM     11  C   UNL     1     -35.618  20.466   2.484  0.00  0.00    +0.001 C 
ATOM     12  C   UNL     1     -34.434  19.971   2.092  0.00  0.00    +0.000 C 
BRANCH  12  13
ATOM     13  C   UNL     1     -34.278  18.958   0.993  0.00  0.00    +0.132 C 
BRANCH  13  14
ATOM     14  O   UNL     1     -35.579  18.626   0.499  0.00  0.00    -0.380 OA
ATOM     15  H   UNL     1     -36.252  19.065   1.043  0.00  0.00    +0.211 HD
ENDBRANCH  13  14
BRANCH  13  16
ATOM     16  C   UNL     1     -33.458  19.485  -0.192  0.00  0.00    +0.034 C 
BRANCH  16  17
ATOM     17  C   UNL     1     -32.550  20.661   0.178  0.00  0.00    +0.003 C 
BRANCH  17  18
ATOM     18  C   UNL     1     -33.000  21.992  -0.435  0.00  0.00    +0.000 C 
BRANCH  18  19
ATOM     19  C   UNL     1     -34.336  21.902  -1.175  0.00  0.00    +0.000 C 
ATOM     20  C   UNL     1     -34.508  23.056  -2.151  0.00  0.00    +0.000 C 
ENDBRANCH  18  19
ENDBRANCH  17  18
ENDBRANCH  16  17
ENDBRANCH  13  16
ENDBRANCH  12  13
ENDBRANCH   4  11
BRANCH   2  21
ATOM     21  C   UNL     1     -36.155  23.460   1.997  0.00  0.00    +0.031 C 
BRANCH  21  22
ATOM     22  C   UNL     1     -35.481  24.495   1.145  0.00  0.00    -0.031 C 
ATOM     23  C   UNL     1     -35.692  25.819   1.150  0.00  0.00    -0.031 C 
BRANCH  23  24
ATOM     24  C   UNL     1     -36.679  26.502   2.053  0.00  0.00    +0.026 C 
BRANCH  24  25
ATOM     25  C   UNL     1     -38.010  26.839   1.367  0.00  0.00    +0.016 C 
BRANCH  25  26
ATOM     26  C   UNL     1     -39.082  25.757   1.528  0.00  0.00    +0.110 C 
BRANCH  26  28
ATOM     27  O   UNL     1     -39.304  24.496   3.599  0.00  0.00    -0.250 OA
ATOM     28  C   UNL     1     -39.502  25.522   2.962  0.00  0.00    +0.314 C 
BRANCH  28  29
ATOM     29  O   UNL     1     -40.178  26.586   3.468  0.00  0.00    -0.480 OA
ATOM     30  H   UNL     1     -40.138  26.772   4.386  0.00  0.00    +0.295 HD
ENDBRANCH  28  29
ENDBRANCH  26  28
ENDBRANCH  25  26
ENDBRANCH  24  25
ENDBRANCH  23  24
ENDBRANCH  21  22
ENDBRANCH   2  21
TORSDOF 16
ENDMDL
MODEL 2
REMARK VINA RESULT:      -5.1      2.408      7.499
REMARK  Name = 5283137
REMARK  16 active torsions:
REMARK  status: ('A' for Active; 'I' for Inactive)
REMARK    1  A    between atoms: C_2  and  C_21
REMARK    2  A    between atoms: C_3  and  O_7
REMARK    3  A    between atoms: C_4  and  C_11
REMARK    4  A    between atoms: C_6  and  O_9
REMARK    5  A    between atoms: C_12  and  C_13
REMARK    6  A    between atoms: C_13  and  O_14
REMARK    7  A    between atoms: C_13  and  C_16
REMARK    8  A    between atoms: C_16  and  C_17
REMARK    9  A    between atoms: C_17  and  C_18
REMARK   10  A    between atoms: C_18  and  C_19
REMARK   11  A    between atoms: C_21  and  C_22
REMARK   12  A    between atoms: C_23  and  C_24
REMARK   13  A    between atoms: C_24  and  C_25
REMARK   14  A    between atoms: C_25  and  C_26
REMARK   15  A    between atoms: C_26  and  C_28
REMARK   16  A    between atoms: C_28  and  O_29
REMARK                            x       y       z     vdW  Elec       q    Type
REMARK                         _______ _______ _______ _____ _____    ______ ____
ROOT
ATOM      1  O   UNL     1     -38.424  22.560   0.948  0.00  0.00    -0.329 OA
ATOM      2  C   UNL     1     -36.215  21.520   0.902  0.00  0.00    +0.063 C 
ATOM      3  C   UNL     1     -36.873  20.125   0.866  0.00  0.00    +0.118 C 
ATOM      4  C   UNL     1     -37.144  22.544   1.593  0.00  0.00    +0.142 C 
ATOM      5  C   UNL     1     -38.305  20.201   0.333  0.00  0.00    +0.090 C 
ATOM      6  C   UNL     1     -39.119  21.315   0.992  0.00  0.00    +0.234 C 
ENDROOT
BRANCH   3   7
ATOM      7  O   UNL     1     -36.875  19.496   2.145  0.00  0.00    -0.384 OA
ATOM      8  H   UNL     1     -37.596  18.849   2.187  0.00  0.00    +0.210 HD
ENDBRANCH   3   7
BRANCH   6   9
ATOM      9  O   UNL     1     -39.555  20.970   2.303  0.00  0.00    -0.360 OA
ATOM     10  H   UNL     1     -38.822  20.560   2.789  0.00  0.00    +0.213 HD
ENDBRANCH   6   9
BRANCH   4  11
ATOM     11  C   UNL     1     -36.624  23.947   1.536  0.00  0.00    +0.001 C 
ATOM     12  C   UNL     1     -36.846  24.866   2.488  0.00  0.00    +0.000 C 
BRANCH  12  13
ATOM     13  C   UNL     1     -36.323  26.273   2.426  0.00  0.00    +0.132 C 
BRANCH  13  14
ATOM     14  O   UNL     1     -37.431  27.158   2.246  0.00  0.00    -0.380 OA
ATOM     15  H   UNL     1     -37.680  27.542   3.102  0.00  0.00    +0.211 HD
ENDBRANCH  13  14
BRANCH  13  16
ATOM     16  C   UNL     1     -35.599  26.698   3.710  0.00  0.00    +0.034 C 
BRANCH  16  17
ATOM     17  C   UNL     1     -35.928  25.807   4.912  0.00  0.00    +0.003 C 
BRANCH  17  18
ATOM     18  C   UNL     1     -34.691  25.160   5.545  0.00  0.00    +0.000 C 
BRANCH  18  19
ATOM     19  C   UNL     1     -34.480  23.706   5.120  0.00  0.00    +0.000 C 
ATOM     20  C   UNL     1     -35.631  22.822   5.577  0.00  0.00    +0.000 C 
ENDBRANCH  18  19
ENDBRANCH  17  18
ENDBRANCH  16  17
ENDBRANCH  13  16
ENDBRANCH  12  13
ENDBRANCH   4  11
BRANCH   2  21
ATOM     21  C   UNL     1     -34.825  21.447   1.543  0.00  0.00    +0.031 C 
BRANCH  21  22
ATOM     22  C   UNL     1     -33.678  21.145   0.625  0.00  0.00    -0.031 C 
ATOM     23  C   UNL     1     -32.963  20.012   0.557  0.00  0.00    -0.031 C 
BRANCH  23  24
ATOM     24  C   UNL     1     -33.212  18.816   1.430  0.00  0.00    +0.026 C 
BRANCH  24  25
ATOM     25  C   UNL     1     -33.188  17.483   0.671  0.00  0.00    +0.016 C 
BRANCH  25  26
ATOM     26  C   UNL     1     -34.501  17.154  -0.047  0.00  0.00    +0.110 C 
BRANCH  26  28
ATOM     27  O   UNL     1     -35.889  15.155   0.006  0.00  0.00    -0.250 OA
ATOM     28  C   UNL     1     -34.790  15.672  -0.140  0.00  0.00    +0.314 C 
BRANCH  28  29
ATOM     29  O   UNL     1     -33.661  14.953  -0.368  0.00  0.00    -0.480 OA
ATOM     30  H   UNL     1     -32.859  15.393  -0.573  0.00  0.00    +0.295 HD
ENDBRANCH  28  29
ENDBRANCH  26  28
ENDBRANCH  25  26
ENDBRANCH  24  25
ENDBRANCH  23  24
ENDBRANCH  21  22
ENDBRANCH   2  21
TORSDOF 16
ENDMDL
MODEL 3
REMARK VINA RESULT:      -5.1      2.053      2.839
REMARK  Name = 5283137
REMARK  16 active torsions:
REMARK  status: ('A' for Active; 'I' for Inactive)
REMARK    1  A    between atoms: C_2  and  C_21
REMARK    2  A    between atoms: C_3  and  O_7
REMARK    3  A    between atoms: C_4  and  C_11
REMARK    4  A    between atoms: C_6  and  O_9
REMARK    5  A    between atoms: C_12  and  C_13
REMARK    6  A    between atoms: C_13  and  O_14
REMARK    7  A    between atoms: C_13  and  C_16
REMARK    8  A    between atoms: C_16  and  C_17
REMARK    9  A    between atoms: C_17  and  C_18
REMARK   10  A    between atoms: C_18  and  C_19
REMARK   11  A    between atoms: C_21  and  C_22
REMARK   12  A    between atoms: C_23  and  C_24
REMARK   13  A    between atoms: C_24  and  C_25
REMARK   14  A    between atoms: C_25  and  C_26
REMARK   15  A    between atoms: C_26  and  C_28
REMARK   16  A    between atoms: C_28  and  O_29
REMARK                            x       y       z     vdW  Elec       q    Type
REMARK                         _______ _______ _______ _____ _____    ______ ____
ROOT
ATOM      1  O   UNL     1     -34.896  21.141   4.706  0.00  0.00    -0.329 OA
ATOM      2  C   UNL     1     -35.221  23.081   3.259  0.00  0.00    +0.063 C 
ATOM      3  C   UNL     1     -35.338  23.987   4.502  0.00  0.00    +0.118 C 
ATOM      4  C   UNL     1     -35.655  21.635   3.596  0.00  0.00    +0.142 C 
ATOM      5  C   UNL     1     -34.666  23.349   5.719  0.00  0.00    +0.090 C 
ATOM      6  C   UNL     1     -35.065  21.886   5.911  0.00  0.00    +0.234 C 
ENDROOT
BRANCH   3   7
ATOM      7  O   UNL     1     -36.693  24.300   4.816  0.00  0.00    -0.384 OA
ATOM      8  H   UNL     1     -37.133  24.658   4.029  0.00  0.00    +0.210 HD
ENDBRANCH   3   7
BRANCH   6   9
ATOM      9  O   UNL     1     -36.366  21.744   6.473  0.00  0.00    -0.360 OA
ATOM     10  H   UNL     1     -36.300  21.735   7.440  0.00  0.00    +0.213 HD
ENDBRANCH   6   9
BRANCH   4  11
ATOM     11  C   UNL     1     -35.432  20.673   2.469  0.00  0.00    +0.001 C 
ATOM     12  C   UNL     1     -36.422  20.090   1.778  0.00  0.00    +0.000 C 
BRANCH  12  13
ATOM     13  C   UNL     1     -36.194  19.125   0.649  0.00  0.00    +0.132 C 
BRANCH  13  14
ATOM     14  O   UNL     1     -37.289  18.206   0.614  0.00  0.00    -0.380 OA
ATOM     15  H   UNL     1     -38.018  18.553   1.151  0.00  0.00    +0.211 HD
ENDBRANCH  13  14
BRANCH  13  16
ATOM     16  C   UNL     1     -36.128  19.813  -0.721  0.00  0.00    +0.034 C 
BRANCH  16  17
ATOM     17  C   UNL     1     -34.792  19.602  -1.439  0.00  0.00    +0.003 C 
BRANCH  17  18
ATOM     18  C   UNL     1     -33.829  18.686  -0.673  0.00  0.00    +0.000 C 
BRANCH  18  19
ATOM     19  C   UNL     1     -32.453  19.311  -0.436  0.00  0.00    +0.000 C 
ATOM     20  C   UNL     1     -32.572  20.680   0.218  0.00  0.00    +0.000 C 
ENDBRANCH  18  19
ENDBRANCH  17  18
ENDBRANCH  16  17
ENDBRANCH  13  16
ENDBRANCH  12  13
ENDBRANCH   4  11
BRANCH   2  21
ATOM     21  C   UNL     1     -35.996  23.677   2.079  0.00  0.00    +0.031 C 
BRANCH  21  22
ATOM     22  C   UNL     1     -35.333  23.602   0.736  0.00  0.00    -0.031 C 
ATOM     23  C   UNL     1     -35.913  23.712  -0.468  0.00  0.00    -0.031 C 
BRANCH  23  24
ATOM     24  C   UNL     1     -37.385  23.938  -0.666  0.00  0.00    +0.026 C 
BRANCH  24  25
ATOM     25  C   UNL     1     -38.210  22.645  -0.680  0.00  0.00    +0.016 C 
BRANCH  25  26
ATOM     26  C   UNL     1     -39.238  22.551   0.451  0.00  0.00    +0.110 C 
BRANCH  26  28
ATOM     27  O   UNL     1     -39.577  20.182   0.006  0.00  0.00    -0.250 OA
ATOM     28  C   UNL     1     -39.674  21.137   0.765  0.00  0.00    +0.314 C 
BRANCH  28  29
ATOM     29  O   UNL     1     -40.237  21.046   1.997  0.00  0.00    -0.480 OA
ATOM     30  H   UNL     1     -41.167  20.964   2.082  0.00  0.00    +0.295 HD
ENDBRANCH  28  29
ENDBRANCH  26  28
ENDBRANCH  25  26
ENDBRANCH  24  25
ENDBRANCH  23  24
ENDBRANCH  21  22
ENDBRANCH   2  21
TORSDOF 16
ENDMDL
MODEL 4
REMARK VINA RESULT:      -5.0      2.523      4.939
REMARK  Name = 5283137
REMARK  16 active torsions:
REMARK  status: ('A' for Active; 'I' for Inactive)
REMARK    1  A    between atoms: C_2  and  C_21
REMARK    2  A    between atoms: C_3  and  O_7
REMARK    3  A    between atoms: C_4  and  C_11
REMARK    4  A    between atoms: C_6  and  O_9
REMARK    5  A    between atoms: C_12  and  C_13
REMARK    6  A    between atoms: C_13  and  O_14
REMARK    7  A    between atoms: C_13  and  C_16
REMARK    8  A    between atoms: C_16  and  C_17
REMARK    9  A    between atoms: C_17  and  C_18
REMARK   10  A    between atoms: C_18  and  C_19
REMARK   11  A    between atoms: C_21  and  C_22
REMARK   12  A    between atoms: C_23  and  C_24
REMARK   13  A    between atoms: C_24  and  C_25
REMARK   14  A    between atoms: C_25  and  C_26
REMARK   15  A    between atoms: C_26  and  C_28
REMARK   16  A    between atoms: C_28  and  O_29
REMARK                            x       y       z     vdW  Elec       q    Type
REMARK                         _______ _______ _______ _____ _____    ______ ____
ROOT
ATOM      1  O   UNL     1     -35.657  24.774   3.142  0.00  0.00    -0.329 OA
ATOM      2  C   UNL     1     -37.958  24.476   2.380  0.00  0.00    +0.063 C 
ATOM      3  C   UNL     1     -38.146  26.008   2.352  0.00  0.00    +0.118 C 
ATOM      4  C   UNL     1     -36.879  24.079   3.415  0.00  0.00    +0.142 C 
ATOM      5  C   UNL     1     -36.802  26.729   2.234  0.00  0.00    +0.090 C 
ATOM      6  C   UNL     1     -35.760  26.195   3.217  0.00  0.00    +0.234 C 
ENDROOT
BRANCH   3   7
ATOM      7  O   UNL     1     -38.844  26.487   3.499  0.00  0.00    -0.384 OA
ATOM      8  H   UNL     1     -39.314  27.305   3.273  0.00  0.00    +0.210 HD
ENDBRANCH   3   7
BRANCH   6   9
ATOM      9  O   UNL     1     -35.971  26.665   4.545  0.00  0.00    -0.360 OA
ATOM     10  H   UNL     1     -35.684  27.589   4.609  0.00  0.00    +0.213 HD
ENDBRANCH   6   9
BRANCH   4  11
ATOM     11  C   UNL     1     -36.549  22.618   3.392  0.00  0.00    +0.001 C 
ATOM     12  C   UNL     1     -35.801  22.036   2.442  0.00  0.00    +0.000 C 
BRANCH  12  13
ATOM     13  C   UNL     1     -35.472  20.570   2.423  0.00  0.00    +0.132 C 
BRANCH  13  14
ATOM     14  O   UNL     1     -36.677  19.836   2.653  0.00  0.00    -0.380 OA
ATOM     15  H   UNL     1     -36.728  19.585   3.589  0.00  0.00    +0.211 HD
ENDBRANCH  13  14
BRANCH  13  16
ATOM     16  C   UNL     1     -34.900  20.104   1.077  0.00  0.00    +0.034 C 
BRANCH  16  17
ATOM     17  C   UNL     1     -33.392  19.840   1.122  0.00  0.00    +0.003 C 
BRANCH  17  18
ATOM     18  C   UNL     1     -33.040  18.360   1.310  0.00  0.00    +0.000 C 
BRANCH  18  19
ATOM     19  C   UNL     1     -31.553  18.058   1.115  0.00  0.00    +0.000 C 
ATOM     20  C   UNL     1     -30.906  19.053   0.163  0.00  0.00    +0.000 C 
ENDBRANCH  18  19
ENDBRANCH  17  18
ENDBRANCH  16  17
ENDBRANCH  13  16
ENDBRANCH  12  13
ENDBRANCH   4  11
BRANCH   2  21
ATOM     21  C   UNL     1     -39.298  23.771   2.614  0.00  0.00    +0.031 C 
BRANCH  21  22
ATOM     22  C   UNL     1     -40.175  23.584   1.411  0.00  0.00    -0.031 C 
ATOM     23  C   UNL     1     -40.208  22.532   0.580  0.00  0.00    -0.031 C 
BRANCH  23  24
ATOM     24  C   UNL     1     -39.331  21.322   0.734  0.00  0.00    +0.026 C 
BRANCH  24  25
ATOM     25  C   UNL     1     -38.141  21.297  -0.235  0.00  0.00    +0.016 C 
BRANCH  25  26
ATOM     26  C   UNL     1     -38.235  20.205  -1.306  0.00  0.00    +0.110 C 
BRANCH  26  28
ATOM     27  O   UNL     1     -39.597  18.205  -1.035  0.00  0.00    -0.250 OA
ATOM     28  C   UNL     1     -38.589  18.840  -0.757  0.00  0.00    +0.314 C 
BRANCH  28  29
ATOM     29  O   UNL     1     -37.661  18.401   0.133  0.00  0.00    -0.480 OA
ATOM     30  H   UNL     1     -37.890  18.300   1.036  0.00  0.00    +0.295 HD
ENDBRANCH  28  29
ENDBRANCH  26  28
ENDBRANCH  25  26
ENDBRANCH  24  25
ENDBRANCH  23  24
ENDBRANCH  21  22
ENDBRANCH   2  21
TORSDOF 16
ENDMDL
MODEL 5
REMARK VINA RESULT:      -5.0      2.683      6.140
REMARK  Name = 5283137
REMARK  16 active torsions:
REMARK  status: ('A' for Active; 'I' for Inactive)
REMARK    1  A    between atoms: C_2  and  C_21
REMARK    2  A    between atoms: C_3  and  O_7
REMARK    3  A    between atoms: C_4  and  C_11
REMARK    4  A    between atoms: C_6  and  O_9
REMARK    5  A    between atoms: C_12  and  C_13
REMARK    6  A    between atoms: C_13  and  O_14
REMARK    7  A    between atoms: C_13  and  C_16
REMARK    8  A    between atoms: C_16  and  C_17
REMARK    9  A    between atoms: C_17  and  C_18
REMARK   10  A    between atoms: C_18  and  C_19
REMARK   11  A    between atoms: C_21  and  C_22
REMARK   12  A    between atoms: C_23  and  C_24
REMARK   13  A    between atoms: C_24  and  C_25
REMARK   14  A    between atoms: C_25  and  C_26
REMARK   15  A    between atoms: C_26  and  C_28
REMARK   16  A    between atoms: C_28  and  O_29
REMARK                            x       y       z     vdW  Elec       q    Type
REMARK                         _______ _______ _______ _____ _____    ______ ____
ROOT
ATOM      1  O   UNL     1     -35.112  21.916   0.094  0.00  0.00    -0.329 OA
ATOM      2  C   UNL     1     -35.415  21.992   2.516  0.00  0.00    +0.063 C 
ATOM      3  C   UNL     1     -35.320  20.453   2.575  0.00  0.00    +0.118 C 
ATOM      4  C   UNL     1     -35.936  22.454   1.136  0.00  0.00    +0.142 C 
ATOM      5  C   UNL     1     -34.583  19.895   1.357  0.00  0.00    +0.090 C 
ATOM      6  C   UNL     1     -35.087  20.491   0.041  0.00  0.00    +0.234 C 
ENDROOT
BRANCH   3   7
ATOM      7  O   UNL     1     -36.603  19.837   2.678  0.00  0.00    -0.384 OA
ATOM      8  H   UNL     1     -36.495  18.903   2.917  0.00  0.00    +0.210 HD
ENDBRANCH   3   7
BRANCH   6   9
ATOM      9  O   UNL     1     -36.329  19.930  -0.371  0.00  0.00    -0.360 OA
ATOM     10  H   UNL     1     -37.037  20.579  -0.235  0.00  0.00    +0.213 HD
ENDBRANCH   6   9
BRANCH   4  11
ATOM     11  C   UNL     1     -35.918  23.942   0.964  0.00  0.00    +0.001 C 
ATOM     12  C   UNL     1     -34.911  24.728   1.374  0.00  0.00    +0.000 C 
BRANCH  12  13
ATOM     13  C   UNL     1     -34.897  26.220   1.201  0.00  0.00    +0.132 C 
BRANCH  13  14
ATOM     14  O   UNL     1     -35.168  26.516  -0.171  0.00  0.00    -0.380 OA
ATOM     15  H   UNL     1     -35.144  25.696  -0.689  0.00  0.00    +0.211 HD
ENDBRANCH  13  14
BRANCH  13  16
ATOM     16  C   UNL     1     -35.964  26.930   2.043  0.00  0.00    +0.034 C 
BRANCH  16  17
ATOM     17  C   UNL     1     -37.197  27.342   1.233  0.00  0.00    +0.003 C 
BRANCH  17  18
ATOM     18  C   UNL     1     -38.452  26.534   1.583  0.00  0.00    +0.000 C 
BRANCH  18  19
ATOM     19  C   UNL     1     -38.417  25.933   2.989  0.00  0.00    +0.000 C 
ATOM     20  C   UNL     1     -39.061  24.555   3.018  0.00  0.00    +0.000 C 
ENDBRANCH  18  19
ENDBRANCH  17  18
ENDBRANCH  16  17
ENDBRANCH  13  16
ENDBRANCH  12  13
ENDBRANCH   4  11
BRANCH   2  21
ATOM     21  C   UNL     1     -36.254  22.528   3.681  0.00  0.00    +0.031 C 
BRANCH  21  22
ATOM     22  C   UNL     1     -35.585  22.572   5.023  0.00  0.00    -0.031 C 
ATOM     23  C   UNL     1     -35.290  23.658   5.752  0.00  0.00    -0.031 C 
BRANCH  23  24
ATOM     24  C   UNL     1     -35.597  25.062   5.317  0.00  0.00    +0.026 C 
BRANCH  24  25
ATOM     25  C   UNL     1     -34.348  25.921   5.079  0.00  0.00    +0.016 C 
BRANCH  25  26
ATOM     26  C   UNL     1     -33.650  26.372   6.366  0.00  0.00    +0.110 C 
BRANCH  26  28
ATOM     27  O   UNL     1     -32.712  28.407   5.412  0.00  0.00    -0.250 OA
ATOM     28  C   UNL     1     -32.596  27.436   6.148  0.00  0.00    +0.314 C 
BRANCH  28  29
ATOM     29  O   UNL     1     -31.461  27.168   6.844  0.00  0.00    -0.480 OA
ATOM     30  H   UNL     1     -30.635  27.478   6.528  0.00  0.00    +0.295 HD
ENDBRANCH  28  29
ENDBRANCH  26  28
ENDBRANCH  25  26
ENDBRANCH  24  25
ENDBRANCH  23  24
ENDBRANCH  21  22
ENDBRANCH   2  21
TORSDOF 16
ENDMDL
MODEL 6
REMARK VINA RESULT:      -5.0      2.447      3.901
REMARK  Name = 5283137
REMARK  16 active torsions:
REMARK  status: ('A' for Active; 'I' for Inactive)
REMARK    1  A    between atoms: C_2  and  C_21
REMARK    2  A    between atoms: C_3  and  O_7
REMARK    3  A    between atoms: C_4  and  C_11
REMARK    4  A    between atoms: C_6  and  O_9
REMARK    5  A    between atoms: C_12  and  C_13
REMARK    6  A    between atoms: C_13  and  O_14
REMARK    7  A    between atoms: C_13  and  C_16
REMARK    8  A    between atoms: C_16  and  C_17
REMARK    9  A    between atoms: C_17  and  C_18
REMARK   10  A    between atoms: C_18  and  C_19
REMARK   11  A    between atoms: C_21  and  C_22
REMARK   12  A    between atoms: C_23  and  C_24
REMARK   13  A    between atoms: C_24  and  C_25
REMARK   14  A    between atoms: C_25  and  C_26
REMARK   15  A    between atoms: C_26  and  C_28
REMARK   16  A    between atoms: C_28  and  O_29
REMARK                            x       y       z     vdW  Elec       q    Type
REMARK                         _______ _______ _______ _____ _____    ______ ____
ROOT
ATOM      1  O   UNL     1     -35.576  24.501   4.317  0.00  0.00    -0.329 OA
ATOM      2  C   UNL     1     -36.540  24.804   2.094  0.00  0.00    +0.063 C 
ATOM      3  C   UNL     1     -36.501  26.334   2.287  0.00  0.00    +0.118 C 
ATOM      4  C   UNL     1     -36.645  24.085   3.459  0.00  0.00    +0.142 C 
ATOM      5  C   UNL     1     -35.466  26.734   3.340  0.00  0.00    +0.090 C 
ATOM      6  C   UNL     1     -35.570  25.896   4.614  0.00  0.00    +0.234 C 
ENDROOT
BRANCH   3   7
ATOM      7  O   UNL     1     -37.775  26.865   2.646  0.00  0.00    -0.384 OA
ATOM      8  H   UNL     1     -38.433  26.152   2.649  0.00  0.00    +0.210 HD
ENDBRANCH   3   7
BRANCH   6   9
ATOM      9  O   UNL     1     -36.661  26.291   5.441  0.00  0.00    -0.360 OA
ATOM     10  H   UNL     1     -37.142  25.503   5.737  0.00  0.00    +0.213 HD
ENDBRANCH   6   9
BRANCH   4  11
ATOM     11  C   UNL     1     -36.545  22.594   3.351  0.00  0.00    +0.001 C 
ATOM     12  C   UNL     1     -35.535  21.956   2.742  0.00  0.00    +0.000 C 
BRANCH  12  13
ATOM     13  C   UNL     1     -35.438  20.460   2.636  0.00  0.00    +0.132 C 
BRANCH  13  14
ATOM     14  O   UNL     1     -36.760  19.919   2.696  0.00  0.00    -0.380 OA
ATOM     15  H   UNL     1     -37.240  20.147   1.884  0.00  0.00    +0.211 HD
ENDBRANCH  13  14
BRANCH  13  16
ATOM     16  C   UNL     1     -34.811  19.994   1.316  0.00  0.00    +0.034 C 
BRANCH  16  17
ATOM     17  C   UNL     1     -33.565  19.125   1.513  0.00  0.00    +0.003 C 
BRANCH  17  18
ATOM     18  C   UNL     1     -32.758  18.920   0.226  0.00  0.00    +0.000 C 
BRANCH  18  19
ATOM     19  C   UNL     1     -31.519  19.813   0.134  0.00  0.00    +0.000 C 
ATOM     20  C   UNL     1     -30.245  18.986   0.054  0.00  0.00    +0.000 C 
ENDBRANCH  18  19
ENDBRANCH  17  18
ENDBRANCH  16  17
ENDBRANCH  13  16
ENDBRANCH  12  13
ENDBRANCH   4  11
BRANCH   2  21
ATOM     21  C   UNL     1     -37.657  24.408   1.123  0.00  0.00    +0.031 C 
BRANCH  21  22
ATOM     22  C   UNL     1     -37.333  24.487  -0.339  0.00  0.00    -0.031 C 
ATOM     23  C   UNL     1     -37.104  23.468  -1.181  0.00  0.00    -0.031 C 
BRANCH  23  24
ATOM     24  C   UNL     1     -37.138  22.024  -0.769  0.00  0.00    +0.026 C 
BRANCH  24  25
ATOM     25  C   UNL     1     -38.440  21.307  -1.146  0.00  0.00    +0.016 C 
BRANCH  25  26
ATOM     26  C   UNL     1     -39.052  20.488  -0.005  0.00  0.00    +0.110 C 
BRANCH  26  28
ATOM     27  O   UNL     1     -40.480  22.290   0.798  0.00  0.00    -0.250 OA
ATOM     28  C   UNL     1     -39.763  21.327   1.034  0.00  0.00    +0.314 C 
BRANCH  28  29
ATOM     29  O   UNL     1     -39.479  20.910   2.296  0.00  0.00    -0.480 OA
ATOM     30  H   UNL     1     -39.355  19.998   2.470  0.00  0.00    +0.295 HD
ENDBRANCH  28  29
ENDBRANCH  26  28
ENDBRANCH  25  26
ENDBRANCH  24  25
ENDBRANCH  23  24
ENDBRANCH  21  22
ENDBRANCH   2  21
TORSDOF 16
ENDMDL
MODEL 7
REMARK VINA RESULT:      -5.0      1.284      1.648
REMARK  Name = 5283137
REMARK  16 active torsions:
REMARK  status: ('A' for Active; 'I' for Inactive)
REMARK    1  A    between atoms: C_2  and  C_21
REMARK    2  A    between atoms: C_3  and  O_7
REMARK    3  A    between atoms: C_4  and  C_11
REMARK    4  A    between atoms: C_6  and  O_9
REMARK    5  A    between atoms: C_12  and  C_13
REMARK    6  A    between atoms: C_13  and  O_14
REMARK    7  A    between atoms: C_13  and  C_16
REMARK    8  A    between atoms: C_16  and  C_17
REMARK    9  A    between atoms: C_17  and  C_18
REMARK   10  A    between atoms: C_18  and  C_19
REMARK   11  A    between atoms: C_21  and  C_22
REMARK   12  A    between atoms: C_23  and  C_24
REMARK   13  A    between atoms: C_24  and  C_25
REMARK   14  A    between atoms: C_25  and  C_26
REMARK   15  A    between atoms: C_26  and  C_28
REMARK   16  A    between atoms: C_28  and  O_29
REMARK                            x       y       z     vdW  Elec       q    Type
REMARK                         _______ _______ _______ _____ _____    ______ ____
ROOT
ATOM      1  O   UNL     1     -35.017  21.084   4.630  0.00  0.00    -0.329 OA
ATOM      2  C   UNL     1     -35.417  22.989   3.156  0.00  0.00    +0.063 C 
ATOM      3  C   UNL     1     -35.427  23.931   4.378  0.00  0.00    +0.118 C 
ATOM      4  C   UNL     1     -35.847  21.561   3.565  0.00  0.00    +0.142 C 
ATOM      5  C   UNL     1     -34.677  23.315   5.559  0.00  0.00    +0.090 C 
ATOM      6  C   UNL     1     -35.084  21.864   5.822  0.00  0.00    +0.234 C 
ENDROOT
BRANCH   3   7
ATOM      7  O   UNL     1     -36.751  24.276   4.781  0.00  0.00    -0.384 OA
ATOM      8  H   UNL     1     -37.343  24.241   4.013  0.00  0.00    +0.210 HD
ENDBRANCH   3   7
BRANCH   6   9
ATOM      9  O   UNL     1     -36.343  21.761   6.482  0.00  0.00    -0.360 OA
ATOM     10  H   UNL     1     -37.032  22.149   5.921  0.00  0.00    +0.213 HD
ENDBRANCH   6   9
BRANCH   4  11
ATOM     11  C   UNL     1     -35.723  20.565   2.453  0.00  0.00    +0.001 C 
ATOM     12  C   UNL     1     -34.552  20.077   2.015  0.00  0.00    +0.000 C 
BRANCH  12  13
ATOM     13  C   UNL     1     -34.432  19.078   0.899  0.00  0.00    +0.132 C 
BRANCH  13  14
ATOM     14  O   UNL     1     -34.386  19.791  -0.340  0.00  0.00    -0.380 OA
ATOM     15  H   UNL     1     -35.237  19.699  -0.797  0.00  0.00    +0.211 HD
ENDBRANCH  13  14
BRANCH  13  16
ATOM     16  C   UNL     1     -33.155  18.232   0.990  0.00  0.00    +0.034 C 
BRANCH  16  17
ATOM     17  C   UNL     1     -32.160  18.519  -0.138  0.00  0.00    +0.003 C 
BRANCH  17  18
ATOM     18  C   UNL     1     -30.736  18.787   0.362  0.00  0.00    +0.000 C 
BRANCH  18  19
ATOM     19  C   UNL     1     -29.991  19.843  -0.457  0.00  0.00    +0.000 C 
ATOM     20  C   UNL     1     -30.915  20.983  -0.861  0.00  0.00    +0.000 C 
ENDBRANCH  18  19
ENDBRANCH  17  18
ENDBRANCH  16  17
ENDBRANCH  13  16
ENDBRANCH  12  13
ENDBRANCH   4  11
BRANCH   2  21
ATOM     21  C   UNL     1     -36.267  23.566   2.019  0.00  0.00    +0.031 C 
BRANCH  21  22
ATOM     22  C   UNL     1     -35.621  24.618   1.167  0.00  0.00    -0.031 C 
ATOM     23  C   UNL     1     -35.924  25.923   1.112  0.00  0.00    -0.031 C 
BRANCH  23  24
ATOM     24  C   UNL     1     -37.007  26.562   1.933  0.00  0.00    +0.026 C 
BRANCH  24  25
ATOM     25  C   UNL     1     -38.329  26.744   1.176  0.00  0.00    +0.016 C 
BRANCH  25  26
ATOM     26  C   UNL     1     -39.378  25.672   1.490  0.00  0.00    +0.110 C 
BRANCH  26  28
ATOM     27  O   UNL     1     -39.420  24.478   3.611  0.00  0.00    -0.250 OA
ATOM     28  C   UNL     1     -39.644  25.494   2.969  0.00  0.00    +0.314 C 
BRANCH  28  29
ATOM     29  O   UNL     1     -40.213  26.601   3.513  0.00  0.00    -0.480 OA
ATOM     30  H   UNL     1     -40.420  27.336   2.970  0.00  0.00    +0.295 HD
ENDBRANCH  28  29
ENDBRANCH  26  28
ENDBRANCH  25  26
ENDBRANCH  24  25
ENDBRANCH  23  24
ENDBRANCH  21  22
ENDBRANCH   2  21
TORSDOF 16
ENDMDL
MODEL 8
REMARK VINA RESULT:      -4.9      2.864      4.798
REMARK  Name = 5283137
REMARK  16 active torsions:
REMARK  status: ('A' for Active; 'I' for Inactive)
REMARK    1  A    between atoms: C_2  and  C_21
REMARK    2  A    between atoms: C_3  and  O_7
REMARK    3  A    between atoms: C_4  and  C_11
REMARK    4  A    between atoms: C_6  and  O_9
REMARK    5  A    between atoms: C_12  and  C_13
REMARK    6  A    between atoms: C_13  and  O_14
REMARK    7  A    between atoms: C_13  and  C_16
REMARK    8  A    between atoms: C_16  and  C_17
REMARK    9  A    between atoms: C_17  and  C_18
REMARK   10  A    between atoms: C_18  and  C_19
REMARK   11  A    between atoms: C_21  and  C_22
REMARK   12  A    between atoms: C_23  and  C_24
REMARK   13  A    between atoms: C_24  and  C_25
REMARK   14  A    between atoms: C_25  and  C_26
REMARK   15  A    between atoms: C_26  and  C_28
REMARK   16  A    between atoms: C_28  and  O_29
REMARK                            x       y       z     vdW  Elec       q    Type
REMARK                         _______ _______ _______ _____ _____    ______ ____
ROOT
ATOM      1  O   UNL     1     -33.070  26.389   4.922  0.00  0.00    -0.329 OA
ATOM      2  C   UNL     1     -35.020  26.474   3.454  0.00  0.00    +0.063 C 
ATOM      3  C   UNL     1     -34.509  27.800   2.853  0.00  0.00    +0.118 C 
ATOM      4  C   UNL     1     -34.500  26.294   4.899  0.00  0.00    +0.142 C 
ATOM      5  C   UNL     1     -33.000  27.952   3.049  0.00  0.00    +0.090 C 
ATOM      6  C   UNL     1     -32.558  27.645   4.481  0.00  0.00    +0.234 C 
ENDROOT
BRANCH   3   7
ATOM      7  O   UNL     1     -35.177  28.934   3.403  0.00  0.00    -0.384 OA
ATOM      8  H   UNL     1     -36.119  28.896   3.174  0.00  0.00    +0.210 HD
ENDBRANCH   3   7
BRANCH   6   9
ATOM      9  O   UNL     1     -32.849  28.710   5.381  0.00  0.00    -0.360 OA
ATOM     10  H   UNL     1     -32.898  28.362   6.285  0.00  0.00    +0.213 HD
ENDBRANCH   6   9
BRANCH   4  11
ATOM     11  C   UNL     1     -34.844  24.961   5.490  0.00  0.00    +0.001 C 
ATOM     12  C   UNL     1     -34.586  23.789   4.889  0.00  0.00    +0.000 C 
BRANCH  12  13
ATOM     13  C   UNL     1     -34.934  22.454   5.485  0.00  0.00    +0.132 C 
BRANCH  13  14
ATOM     14  O   UNL     1     -36.072  22.623   6.334  0.00  0.00    -0.380 OA
ATOM     15  H   UNL     1     -35.932  22.137   7.162  0.00  0.00    +0.211 HD
ENDBRANCH  13  14
BRANCH  13  16
ATOM     16  C   UNL     1     -35.302  21.405   4.427  0.00  0.00    +0.034 C 
BRANCH  16  17
ATOM     17  C   UNL     1     -36.049  21.995   3.227  0.00  0.00    +0.003 C 
BRANCH  17  18
ATOM     18  C   UNL     1     -35.263  21.899   1.915  0.00  0.00    +0.000 C 
BRANCH  18  19
ATOM     19  C   UNL     1     -35.453  23.111   1.001  0.00  0.00    +0.000 C 
ATOM     20  C   UNL     1     -34.161  23.900   0.852  0.00  0.00    +0.000 C 
ENDBRANCH  18  19
ENDBRANCH  17  18
ENDBRANCH  16  17
ENDBRANCH  13  16
ENDBRANCH  12  13
ENDBRANCH   4  11
BRANCH   2  21
ATOM     21  C   UNL     1     -36.547  26.387   3.354  0.00  0.00    +0.031 C 
BRANCH  21  22
ATOM     22  C   UNL     1     -37.122  26.281   1.973  0.00  0.00    -0.031 C 
ATOM     23  C   UNL     1     -38.151  25.519   1.574  0.00  0.00    -0.031 C 
BRANCH  23  24
ATOM     24  C   UNL     1     -38.921  24.612   2.491  0.00  0.00    +0.026 C 
BRANCH  24  25
ATOM     25  C   UNL     1     -40.136  23.952   1.827  0.00  0.00    +0.016 C 
BRANCH  25  26
ATOM     26  C   UNL     1     -39.777  22.820   0.858  0.00  0.00    +0.110 C 
BRANCH  26  28
ATOM     27  O   UNL     1     -40.453  21.010   2.339  0.00  0.00    -0.250 OA
ATOM     28  C   UNL     1     -39.667  21.463   1.518  0.00  0.00    +0.314 C 
BRANCH  28  29
ATOM     29  O   UNL     1     -38.549  20.801   1.122  0.00  0.00    -0.480 OA
ATOM     30  H   UNL     1     -38.151  21.005   0.299  0.00  0.00    +0.295 HD
ENDBRANCH  28  29
ENDBRANCH  26  28
ENDBRANCH  25  26
ENDBRANCH  24  25
ENDBRANCH  23  24
ENDBRANCH  21  22
ENDBRANCH   2  21
TORSDOF 16
ENDMDL
MODEL 9
REMARK VINA RESULT:      -4.9      1.988      3.250
REMARK  Name = 5283137
REMARK  16 active torsions:
REMARK  status: ('A' for Active; 'I' for Inactive)
REMARK    1  A    between atoms: C_2  and  C_21
REMARK    2  A    between atoms: C_3  and  O_7
REMARK    3  A    between atoms: C_4  and  C_11
REMARK    4  A    between atoms: C_6  and  O_9
REMARK    5  A    between atoms: C_12  and  C_13
REMARK    6  A    between atoms: C_13  and  O_14
REMARK    7  A    between atoms: C_13  and  C_16
REMARK    8  A    between atoms: C_16  and  C_17
REMARK    9  A    between atoms: C_17  and  C_18
REMARK   10  A    between atoms: C_18  and  C_19
REMARK   11  A    between atoms: C_21  and  C_22
REMARK   12  A    between atoms: C_23  and  C_24
REMARK   13  A    between atoms: C_24  and  C_25
REMARK   14  A    between atoms: C_25  and  C_26
REMARK   15  A    between atoms: C_26  and  C_28
REMARK   16  A    between atoms: C_28  and  O_29
REMARK                            x       y       z     vdW  Elec       q    Type
REMARK                         _______ _______ _______ _____ _____    ______ ____
ROOT
ATOM      1  O   UNL     1     -34.885  21.129   4.796  0.00  0.00    -0.329 OA
ATOM      2  C   UNL     1     -35.265  22.974   3.242  0.00  0.00    +0.063 C 
ATOM      3  C   UNL     1     -35.426  23.942   4.433  0.00  0.00    +0.118 C 
ATOM      4  C   UNL     1     -35.650  21.534   3.654  0.00  0.00    +0.142 C 
ATOM      5  C   UNL     1     -34.743  23.397   5.687  0.00  0.00    +0.090 C 
ATOM      6  C   UNL     1     -35.092  21.932   5.957  0.00  0.00    +0.234 C 
ENDROOT
BRANCH   3   7
ATOM      7  O   UNL     1     -36.795  24.222   4.719  0.00  0.00    -0.384 OA
ATOM      8  H   UNL     1     -36.854  25.026   5.259  0.00  0.00    +0.210 HD
ENDBRANCH   3   7
BRANCH   6   9
ATOM      9  O   UNL     1     -36.393  21.775   6.516  0.00  0.00    -0.360 OA
ATOM     10  H   UNL     1     -36.416  20.970   7.056  0.00  0.00    +0.213 HD
ENDBRANCH   6   9
BRANCH   4  11
ATOM     11  C   UNL     1     -35.382  20.521   2.584  0.00  0.00    +0.001 C 
ATOM     12  C   UNL     1     -36.320  20.051   1.749  0.00  0.00    +0.000 C 
BRANCH  12  13
ATOM     13  C   UNL     1     -36.047  19.034   0.677  0.00  0.00    +0.132 C 
BRANCH  13  14
ATOM     14  O   UNL     1     -37.243  18.283   0.454  0.00  0.00    -0.380 OA
ATOM     15  H   UNL     1     -37.948  18.620   1.029  0.00  0.00    +0.211 HD
ENDBRANCH  13  14
BRANCH  13  16
ATOM     16  C   UNL     1     -35.647  19.669  -0.661  0.00  0.00    +0.034 C 
BRANCH  16  17
ATOM     17  C   UNL     1     -34.172  19.456  -1.014  0.00  0.00    +0.003 C 
BRANCH  17  18
ATOM     18  C   UNL     1     -33.211  20.205  -0.085  0.00  0.00    +0.000 C 
BRANCH  18  19
ATOM     19  C   UNL     1     -32.042  19.347   0.404  0.00  0.00    +0.000 C 
ATOM     20  C   UNL     1     -32.509  18.284   1.388  0.00  0.00    +0.000 C 
ENDBRANCH  18  19
ENDBRANCH  17  18
ENDBRANCH  16  17
ENDBRANCH  13  16
ENDBRANCH  12  13
ENDBRANCH   4  11
BRANCH   2  21
ATOM     21  C   UNL     1     -36.049  23.476   2.025  0.00  0.00    +0.031 C 
BRANCH  21  22
ATOM     22  C   UNL     1     -35.244  23.836   0.812  0.00  0.00    -0.031 C 
ATOM     23  C   UNL     1     -34.679  25.020   0.529  0.00  0.00    -0.031 C 
BRANCH  23  24
ATOM     24  C   UNL     1     -34.770  26.221   1.425  0.00  0.00    +0.026 C 
BRANCH  24  25
ATOM     25  C   UNL     1     -33.405  26.787   1.838  0.00  0.00    +0.016 C 
BRANCH  25  26
ATOM     26  C   UNL     1     -32.955  26.363   3.240  0.00  0.00    +0.110 C 
BRANCH  26  28
ATOM     27  O   UNL     1     -33.761  26.891   5.476  0.00  0.00    -0.250 OA
ATOM     28  C   UNL     1     -33.475  27.257   4.344  0.00  0.00    +0.314 C 
BRANCH  28  29
ATOM     29  O   UNL     1     -33.632  28.538   3.921  0.00  0.00    -0.480 OA
ATOM     30  H   UNL     1     -33.775  28.716   3.012  0.00  0.00    +0.295 HD
ENDBRANCH  28  29
ENDBRANCH  26  28
ENDBRANCH  25  26
ENDBRANCH  24  25
ENDBRANCH  23  24
ENDBRANCH  21  22
ENDBRANCH   2  21
TORSDOF 16
ENDMDL
