MODEL 1
REMARK VINA RESULT:      -6.5      0.000      0.000
REMARK  Name = 5361202
REMARK  9 active torsions:
REMARK  status: ('A' for Active; 'I' for Inactive)
REMARK    1  A    between atoms: CA_5  and  N_11
REMARK    2  A    between atoms: CA_7  and  C_24
REMARK    3  A    between atoms: C_8  and  C_27
REMARK    4  A    between atoms: C_12  and  C_15
REMARK    5  A    between atoms: N_14  and  O_21
REMARK    6  A    between atoms: C_15  and  C_17
REMARK    7  A    between atoms: C_24  and  O_25
REMARK    8  A    between atoms: C_27  and  O_28
REMARK    9  A    between atoms: O_28  and  C_31
REMARK                            x       y       z     vdW  Elec       q    Type
REMARK                         _______ _______ _______ _____ _____    ______ ____
ROOT
ATOM      1  S   UNL     1     -36.216  24.789   2.092  0.00  0.00    -0.114 S 
ATOM      2  O   UNL     1     -35.027  21.432   5.081  0.00  0.00    -0.273 OA
ATOM      3  N   UNL     1     -36.165  22.405   3.258  0.00  0.00    -0.242 N 
ATOM      4  C   UNL     1     -36.768  23.713   3.434  0.00  0.00    +0.155 C 
ATOM      5  CA  UNL     1     -35.970  23.798   4.754  0.00  0.00    +0.179 C 
ATOM      6  C   UNL     1     -35.617  22.306   4.489  0.00  0.00    +0.251 C 
ATOM      7  CA  UNL     1     -36.253  21.680   2.113  0.00  0.00    +0.127 C 
ATOM      8  C   UNL     1     -36.659  22.244   0.950  0.00  0.00    +0.030 C 
ATOM      9  C   UNL     1     -36.950  23.735   0.795  0.00  0.00    +0.086 C 
ENDROOT
BRANCH   5  11
ATOM     10  O   UNL     1     -35.860  26.628   5.567  0.00  0.00    -0.268 OA
ATOM     11  N   UNL     1     -34.801  24.674   4.811  0.00  0.00    -0.291 N 
ATOM     12  C   UNL     1     -34.877  25.997   5.212  0.00  0.00    +0.270 C 
ATOM     13  H   UNL     1     -33.923  24.309   4.553  0.00  0.00    +0.150 HD
BRANCH  12  15
ATOM     14  N   UNL     1     -32.955  27.021   6.310  0.00  0.00    -0.075 NA
ATOM     15  C   UNL     1     -33.544  26.694   5.200  0.00  0.00    +0.207 C 
BRANCH  15  17
ATOM     16  O   UNL     1     -32.261  26.000   3.272  0.00  0.00    -0.449 OA
ATOM     17  C   UNL     1     -32.944  26.992   3.899  0.00  0.00    +0.171 C 
ATOM     18  C   UNL     1     -32.931  28.141   3.141  0.00  0.00    +0.043 C 
ATOM     19  C   UNL     1     -32.194  27.833   1.973  0.00  0.00    +0.044 C 
ATOM     20  C   UNL     1     -31.807  26.519   2.100  0.00  0.00    +0.180 C 
ENDBRANCH  15  17
BRANCH  14  21
ATOM     21  O   UNL     1     -31.731  27.664   6.077  0.00  0.00    -0.373 OA
ATOM     22  C   UNL     1     -31.796  28.958   6.658  0.00  0.00    +0.288 C 
ENDBRANCH  14  21
ENDBRANCH  12  15
ENDBRANCH   5  11
BRANCH   7  24
ATOM     23  OXT UNL     1     -34.700  19.891   1.935  0.00  0.00    -0.244 OA
ATOM     24  C   UNL     1     -35.825  20.275   2.178  0.00  0.00    +0.352 C 
BRANCH  24  25
ATOM     25  O   UNL     1     -36.870  19.507   2.544  0.00  0.00    -0.476 OA
ATOM     26  H   UNL     1     -37.656  19.905   2.863  0.00  0.00    +0.295 HD
ENDBRANCH  24  25
ENDBRANCH   7  24
BRANCH   8  27
ATOM     27  C   UNL     1     -36.860  21.490  -0.343  0.00  0.00    +0.235 C 
BRANCH  27  28
ATOM     28  O   UNL     1     -38.234  21.475  -0.666  0.00  0.00    -0.430 OA
BRANCH  28  31
ATOM     29  O   UNL     1     -40.086  20.638   0.416  0.00  0.00    -0.227 OA
ATOM     30  N   UNL     1     -38.341  19.265  -0.183  0.00  0.00    -0.295 N 
ATOM     31  C   UNL     1     -38.985  20.475  -0.098  0.00  0.00    +0.399 C 
ATOM     32  H   UNL     1     -37.457  19.206  -0.610  0.00  0.00    +0.148 HD
ATOM     33  H   UNL     1     -38.766  18.455   0.186  0.00  0.00    +0.148 HD
ENDBRANCH  28  31
ENDBRANCH  27  28
ENDBRANCH   8  27
TORSDOF 9
ENDMDL
MODEL 2
REMARK VINA RESULT:      -6.1      1.318      1.457
REMARK  Name = 5361202
REMARK  9 active torsions:
REMARK  status: ('A' for Active; 'I' for Inactive)
REMARK    1  A    between atoms: CA_5  and  N_11
REMARK    2  A    between atoms: CA_7  and  C_24
REMARK    3  A    between atoms: C_8  and  C_27
REMARK    4  A    between atoms: C_12  and  C_15
REMARK    5  A    between atoms: N_14  and  O_21
REMARK    6  A    between atoms: C_15  and  C_17
REMARK    7  A    between atoms: C_24  and  O_25
REMARK    8  A    between atoms: C_27  and  O_28
REMARK    9  A    between atoms: O_28  and  C_31
REMARK                            x       y       z     vdW  Elec       q    Type
REMARK                         _______ _______ _______ _____ _____    ______ ____
ROOT
ATOM      1  S   UNL     1     -35.344  24.610   0.924  0.00  0.00    -0.114 S 
ATOM      2  O   UNL     1     -35.854  22.388   4.976  0.00  0.00    -0.273 OA
ATOM      3  N   UNL     1     -36.107  22.752   2.659  0.00  0.00    -0.242 N 
ATOM      4  C   UNL     1     -36.502  24.071   2.202  0.00  0.00    +0.155 C 
ATOM      5  CA  UNL     1     -36.209  24.552   3.640  0.00  0.00    +0.179 C 
ATOM      6  C   UNL     1     -36.046  23.042   3.978  0.00  0.00    +0.251 C 
ATOM      7  CA  UNL     1     -35.914  21.692   1.832  0.00  0.00    +0.127 C 
ATOM      8  C   UNL     1     -35.790  21.854   0.493  0.00  0.00    +0.030 C 
ATOM      9  C   UNL     1     -35.751  23.220  -0.187  0.00  0.00    +0.086 C 
ENDROOT
BRANCH   5  11
ATOM     10  O   UNL     1     -35.608  26.292   5.941  0.00  0.00    -0.268 OA
ATOM     11  N   UNL     1     -35.001  25.339   3.883  0.00  0.00    -0.291 N 
ATOM     12  C   UNL     1     -34.835  26.125   5.012  0.00  0.00    +0.270 C 
ATOM     13  H   UNL     1     -34.275  25.310   3.219  0.00  0.00    +0.150 HD
BRANCH  12  15
ATOM     14  N   UNL     1     -32.933  27.109   6.178  0.00  0.00    -0.075 NA
ATOM     15  C   UNL     1     -33.508  26.833   5.047  0.00  0.00    +0.207 C 
BRANCH  15  17
ATOM     16  O   UNL     1     -32.120  26.275   3.147  0.00  0.00    -0.449 OA
ATOM     17  C   UNL     1     -32.898  27.200   3.769  0.00  0.00    +0.171 C 
ATOM     18  C   UNL     1     -32.956  28.358   3.029  0.00  0.00    +0.043 C 
ATOM     19  C   UNL     1     -32.164  28.130   1.879  0.00  0.00    +0.044 C 
ATOM     20  C   UNL     1     -31.677  26.849   1.997  0.00  0.00    +0.180 C 
ENDBRANCH  15  17
BRANCH  14  21
ATOM     21  O   UNL     1     -31.712  27.772   5.990  0.00  0.00    -0.373 OA
ATOM     22  C   UNL     1     -31.798  29.040   6.623  0.00  0.00    +0.288 C 
ENDBRANCH  14  21
ENDBRANCH  12  15
ENDBRANCH   5  11
BRANCH   7  24
ATOM     23  OXT UNL     1     -34.726  19.876   2.802  0.00  0.00    -0.244 OA
ATOM     24  C   UNL     1     -35.782  20.369   2.462  0.00  0.00    +0.352 C 
BRANCH  24  25
ATOM     25  O   UNL     1     -37.002  19.813   2.593  0.00  0.00    -0.476 OA
ATOM     26  H   UNL     1     -37.506  19.965   3.369  0.00  0.00    +0.295 HD
ENDBRANCH  24  25
ENDBRANCH   7  24
BRANCH   8  27
ATOM     27  C   UNL     1     -35.655  20.722  -0.498  0.00  0.00    +0.235 C 
BRANCH  27  28
ATOM     28  O   UNL     1     -36.834  19.945  -0.482  0.00  0.00    -0.430 OA
BRANCH  28  31
ATOM     29  O   UNL     1     -36.094  18.117  -1.669  0.00  0.00    -0.227 OA
ATOM     30  N   UNL     1     -37.274  17.861   0.287  0.00  0.00    -0.295 N 
ATOM     31  C   UNL     1     -36.681  18.599  -0.708  0.00  0.00    +0.399 C 
ATOM     32  H   UNL     1     -37.730  18.314   1.032  0.00  0.00    +0.148 HD
ATOM     33  H   UNL     1     -37.243  16.876   0.254  0.00  0.00    +0.148 HD
ENDBRANCH  28  31
ENDBRANCH  27  28
ENDBRANCH   8  27
TORSDOF 9
ENDMDL
MODEL 3
REMARK VINA RESULT:      -6.0      2.225      8.258
REMARK  Name = 5361202
REMARK  9 active torsions:
REMARK  status: ('A' for Active; 'I' for Inactive)
REMARK    1  A    between atoms: CA_5  and  N_11
REMARK    2  A    between atoms: CA_7  and  C_24
REMARK    3  A    between atoms: C_8  and  C_27
REMARK    4  A    between atoms: C_12  and  C_15
REMARK    5  A    between atoms: N_14  and  O_21
REMARK    6  A    between atoms: C_15  and  C_17
REMARK    7  A    between atoms: C_24  and  O_25
REMARK    8  A    between atoms: C_27  and  O_28
REMARK    9  A    between atoms: O_28  and  C_31
REMARK                            x       y       z     vdW  Elec       q    Type
REMARK                         _______ _______ _______ _____ _____    ______ ____
ROOT
ATOM      1  S   UNL     1     -35.344  23.951   4.331  0.00  0.00    -0.114 S 
ATOM      2  O   UNL     1     -38.025  26.717   1.727  0.00  0.00    -0.273 OA
ATOM      3  N   UNL     1     -36.403  26.181   3.353  0.00  0.00    -0.242 N 
ATOM      4  C   UNL     1     -36.705  25.140   4.318  0.00  0.00    +0.155 C 
ATOM      5  CA  UNL     1     -37.913  24.791   3.422  0.00  0.00    +0.179 C 
ATOM      6  C   UNL     1     -37.548  26.088   2.643  0.00  0.00    +0.251 C 
ATOM      7  CA  UNL     1     -35.252  26.901   3.354  0.00  0.00    +0.127 C 
ATOM      8  C   UNL     1     -34.173  26.509   4.074  0.00  0.00    +0.030 C 
ATOM      9  C   UNL     1     -34.114  25.196   4.851  0.00  0.00    +0.086 C 
ENDROOT
BRANCH   5  11
ATOM     10  O   UNL     1     -40.145  23.087   2.531  0.00  0.00    -0.268 OA
ATOM     11  N   UNL     1     -37.851  23.581   2.603  0.00  0.00    -0.291 N 
ATOM     12  C   UNL     1     -38.980  22.861   2.248  0.00  0.00    +0.270 C 
ATOM     13  H   UNL     1     -36.973  23.266   2.291  0.00  0.00    +0.150 HD
BRANCH  12  15
ATOM     14  N   UNL     1     -39.612  21.036   0.760  0.00  0.00    -0.075 NA
ATOM     15  C   UNL     1     -38.669  21.662   1.395  0.00  0.00    +0.207 C 
BRANCH  15  17
ATOM     16  O   UNL     1     -36.484  21.798   0.367  0.00  0.00    -0.449 OA
ATOM     17  C   UNL     1     -37.273  21.227   1.314  0.00  0.00    +0.171 C 
ATOM     18  C   UNL     1     -36.561  20.305   2.044  0.00  0.00    +0.043 C 
ATOM     19  C   UNL     1     -35.250  20.310   1.513  0.00  0.00    +0.044 C 
ATOM     20  C   UNL     1     -35.254  21.234   0.494  0.00  0.00    +0.180 C 
ENDBRANCH  15  17
BRANCH  14  21
ATOM     21  O   UNL     1     -39.113  19.948   0.031  0.00  0.00    -0.373 OA
ATOM     22  C   UNL     1     -39.699  19.977  -1.262  0.00  0.00    +0.288 C 
ENDBRANCH  14  21
ENDBRANCH  12  15
ENDBRANCH   5  11
BRANCH   7  24
ATOM     23  OXT UNL     1     -34.916  28.068   1.312  0.00  0.00    -0.244 OA
ATOM     24  C   UNL     1     -35.208  28.090   2.490  0.00  0.00    +0.352 C 
BRANCH  24  25
ATOM     25  O   UNL     1     -35.537  29.179   3.211  0.00  0.00    -0.476 OA
ATOM     26  H   UNL     1     -36.161  29.793   2.875  0.00  0.00    +0.295 HD
ENDBRANCH  24  25
ENDBRANCH   7  24
BRANCH   8  27
ATOM     27  C   UNL     1     -32.889  27.295   4.191  0.00  0.00    +0.235 C 
BRANCH  27  28
ATOM     28  O   UNL     1     -32.933  28.089   5.358  0.00  0.00    -0.430 OA
BRANCH  28  31
ATOM     29  O   UNL     1     -30.793  27.938   6.194  0.00  0.00    -0.227 OA
ATOM     30  N   UNL     1     -32.610  27.340   7.471  0.00  0.00    -0.295 N 
ATOM     31  C   UNL     1     -32.004  27.801   6.328  0.00  0.00    +0.399 C 
ATOM     32  H   UNL     1     -33.590  27.256   7.510  0.00  0.00    +0.148 HD
ATOM     33  H   UNL     1     -32.062  27.095   8.253  0.00  0.00    +0.148 HD
ENDBRANCH  28  31
ENDBRANCH  27  28
ENDBRANCH   8  27
TORSDOF 9
ENDMDL
MODEL 4
REMARK VINA RESULT:      -5.9      2.061      8.131
REMARK  Name = 5361202
REMARK  9 active torsions:
REMARK  status: ('A' for Active; 'I' for Inactive)
REMARK    1  A    between atoms: CA_5  and  N_11
REMARK    2  A    between atoms: CA_7  and  C_24
REMARK    3  A    between atoms: C_8  and  C_27
REMARK    4  A    between atoms: C_12  and  C_15
REMARK    5  A    between atoms: N_14  and  O_21
REMARK    6  A    between atoms: C_15  and  C_17
REMARK    7  A    between atoms: C_24  and  O_25
REMARK    8  A    between atoms: C_27  and  O_28
REMARK    9  A    between atoms: O_28  and  C_31
REMARK                            x       y       z     vdW  Elec       q    Type
REMARK                         _______ _______ _______ _____ _____    ______ ____
ROOT
ATOM      1  S   UNL     1     -35.545  24.837   1.043  0.00  0.00    -0.114 S 
ATOM      2  O   UNL     1     -36.407  23.197   5.307  0.00  0.00    -0.273 OA
ATOM      3  N   UNL     1     -35.259  24.420   3.649  0.00  0.00    -0.242 N 
ATOM      4  C   UNL     1     -34.969  23.772   2.384  0.00  0.00    +0.155 C 
ATOM      5  CA  UNL     1     -35.937  22.659   2.841  0.00  0.00    +0.179 C 
ATOM      6  C   UNL     1     -35.935  23.395   4.212  0.00  0.00    +0.251 C 
ATOM      7  CA  UNL     1     -34.870  25.684   3.958  0.00  0.00    +0.127 C 
ATOM      8  C   UNL     1     -34.436  26.542   3.003  0.00  0.00    +0.030 C 
ATOM      9  C   UNL     1     -34.441  26.213   1.512  0.00  0.00    +0.086 C 
ENDROOT
BRANCH   5  11
ATOM     10  O   UNL     1     -37.146  20.379   1.419  0.00  0.00    -0.268 OA
ATOM     11  N   UNL     1     -37.259  22.582   2.220  0.00  0.00    -0.291 N 
ATOM     12  C   UNL     1     -37.717  21.445   1.576  0.00  0.00    +0.270 C 
ATOM     13  H   UNL     1     -37.848  23.370   2.263  0.00  0.00    +0.150 HD
BRANCH  12  15
ATOM     14  N   UNL     1     -39.776  20.568   0.606  0.00  0.00    -0.075 NA
ATOM     15  C   UNL     1     -39.109  21.600   1.026  0.00  0.00    +0.207 C 
BRANCH  15  17
ATOM     16  O   UNL     1     -40.322  23.406   2.082  0.00  0.00    -0.449 OA
ATOM     17  C   UNL     1     -39.676  22.949   0.978  0.00  0.00    +0.171 C 
ATOM     18  C   UNL     1     -39.687  23.899  -0.016  0.00  0.00    +0.043 C 
ATOM     19  C   UNL     1     -40.384  25.012   0.511  0.00  0.00    +0.044 C 
ATOM     20  C   UNL     1     -40.750  24.663   1.791  0.00  0.00    +0.180 C 
ENDBRANCH  15  17
BRANCH  14  21
ATOM     21  O   UNL     1     -41.044  20.930   0.130  0.00  0.00    -0.373 OA
ATOM     22  C   UNL     1     -41.161  20.467  -1.206  0.00  0.00    +0.288 C 
ENDBRANCH  14  21
ENDBRANCH  12  15
ENDBRANCH   5  11
BRANCH   7  24
ATOM     23  OXT UNL     1     -34.086  26.120   6.158  0.00  0.00    -0.244 OA
ATOM     24  C   UNL     1     -35.003  26.100   5.362  0.00  0.00    +0.352 C 
BRANCH  24  25
ATOM     25  O   UNL     1     -36.282  26.442   5.608  0.00  0.00    -0.476 OA
ATOM     26  H   UNL     1     -36.667  26.249   6.441  0.00  0.00    +0.295 HD
ENDBRANCH  24  25
ENDBRANCH   7  24
BRANCH   8  27
ATOM     27  C   UNL     1     -33.912  27.932   3.276  0.00  0.00    +0.235 C 
BRANCH  27  28
ATOM     28  O   UNL     1     -32.502  27.924   3.190  0.00  0.00    -0.430 OA
BRANCH  28  31
ATOM     29  O   UNL     1     -30.661  27.814   4.568  0.00  0.00    -0.227 OA
ATOM     30  N   UNL     1     -32.601  28.834   5.262  0.00  0.00    -0.295 N 
ATOM     31  C   UNL     1     -31.818  28.159   4.358  0.00  0.00    +0.399 C 
ATOM     32  H   UNL     1     -33.524  29.081   5.027  0.00  0.00    +0.148 HD
ATOM     33  H   UNL     1     -32.237  29.071   6.147  0.00  0.00    +0.148 HD
ENDBRANCH  28  31
ENDBRANCH  27  28
ENDBRANCH   8  27
TORSDOF 9
ENDMDL
MODEL 5
REMARK VINA RESULT:      -5.9      2.400      3.723
REMARK  Name = 5361202
REMARK  9 active torsions:
REMARK  status: ('A' for Active; 'I' for Inactive)
REMARK    1  A    between atoms: CA_5  and  N_11
REMARK    2  A    between atoms: CA_7  and  C_24
REMARK    3  A    between atoms: C_8  and  C_27
REMARK    4  A    between atoms: C_12  and  C_15
REMARK    5  A    between atoms: N_14  and  O_21
REMARK    6  A    between atoms: C_15  and  C_17
REMARK    7  A    between atoms: C_24  and  O_25
REMARK    8  A    between atoms: C_27  and  O_28
REMARK    9  A    between atoms: O_28  and  C_31
REMARK                            x       y       z     vdW  Elec       q    Type
REMARK                         _______ _______ _______ _____ _____    ______ ____
ROOT
ATOM      1  S   UNL     1     -33.350  25.529   1.360  0.00  0.00    -0.114 S 
ATOM      2  O   UNL     1     -35.722  26.622   5.206  0.00  0.00    -0.273 OA
ATOM      3  N   UNL     1     -35.391  25.737   3.045  0.00  0.00    -0.242 N 
ATOM      4  C   UNL     1     -34.672  26.536   2.070  0.00  0.00    +0.155 C 
ATOM      5  CA  UNL     1     -34.278  27.450   3.251  0.00  0.00    +0.179 C 
ATOM      6  C   UNL     1     -35.281  26.598   4.081  0.00  0.00    +0.251 C 
ATOM      7  CA  UNL     1     -35.927  24.519   2.776  0.00  0.00    +0.127 C 
ATOM      8  C   UNL     1     -35.583  23.825   1.664  0.00  0.00    +0.030 C 
ATOM      9  C   UNL     1     -34.507  24.289   0.685  0.00  0.00    +0.086 C 
ENDROOT
BRANCH   5  11
ATOM     10  O   UNL     1     -32.805  29.520   4.744  0.00  0.00    -0.268 OA
ATOM     11  N   UNL     1     -32.907  27.394   3.754  0.00  0.00    -0.291 N 
ATOM     12  C   UNL     1     -32.321  28.440   4.447  0.00  0.00    +0.270 C 
ATOM     13  H   UNL     1     -32.377  26.579   3.594  0.00  0.00    +0.150 HD
BRANCH  12  15
ATOM     14  N   UNL     1     -30.612  27.989   6.127  0.00  0.00    -0.075 NA
ATOM     15  C   UNL     1     -30.908  28.147   4.873  0.00  0.00    +0.207 C 
BRANCH  15  17
ATOM     16  O   UNL     1     -29.712  26.853   3.217  0.00  0.00    -0.449 OA
ATOM     17  C   UNL     1     -29.888  28.053   3.828  0.00  0.00    +0.171 C 
ATOM     18  C   UNL     1     -29.021  28.989   3.311  0.00  0.00    +0.043 C 
ATOM     19  C   UNL     1     -28.266  28.320   2.319  0.00  0.00    +0.044 C 
ATOM     20  C   UNL     1     -28.724  27.023   2.299  0.00  0.00    +0.180 C 
ENDBRANCH  15  17
BRANCH  14  21
ATOM     21  O   UNL     1     -29.245  27.731   6.308  0.00  0.00    -0.373 OA
ATOM     22  C   UNL     1     -28.710  28.753   7.134  0.00  0.00    +0.288 C 
ENDBRANCH  14  21
ENDBRANCH  12  15
ENDBRANCH   5  11
BRANCH   7  24
ATOM     23  OXT UNL     1     -38.058  24.018   3.700  0.00  0.00    -0.244 OA
ATOM     24  C   UNL     1     -36.848  23.959   3.777  0.00  0.00    +0.352 C 
BRANCH  24  25
ATOM     25  O   UNL     1     -36.137  23.388   4.768  0.00  0.00    -0.476 OA
ATOM     26  H   UNL     1     -36.039  23.829   5.589  0.00  0.00    +0.295 HD
ENDBRANCH  24  25
ENDBRANCH   7  24
BRANCH   8  27
ATOM     27  C   UNL     1     -36.193  22.506   1.255  0.00  0.00    +0.235 C 
BRANCH  27  28
ATOM     28  O   UNL     1     -35.325  21.456   1.624  0.00  0.00    -0.430 OA
BRANCH  28  31
ATOM     29  O   UNL     1     -35.252  20.645   3.778  0.00  0.00    -0.227 OA
ATOM     30  N   UNL     1     -36.789  19.850   2.263  0.00  0.00    -0.295 N 
ATOM     31  C   UNL     1     -35.744  20.650   2.655  0.00  0.00    +0.399 C 
ATOM     32  H   UNL     1     -37.135  19.907   1.344  0.00  0.00    +0.148 HD
ATOM     33  H   UNL     1     -37.192  19.219   2.904  0.00  0.00    +0.148 HD
ENDBRANCH  28  31
ENDBRANCH  27  28
ENDBRANCH   8  27
TORSDOF 9
ENDMDL
MODEL 6
REMARK VINA RESULT:      -5.6      2.393      4.234
REMARK  Name = 5361202
REMARK  9 active torsions:
REMARK  status: ('A' for Active; 'I' for Inactive)
REMARK    1  A    between atoms: CA_5  and  N_11
REMARK    2  A    between atoms: CA_7  and  C_24
REMARK    3  A    between atoms: C_8  and  C_27
REMARK    4  A    between atoms: C_12  and  C_15
REMARK    5  A    between atoms: N_14  and  O_21
REMARK    6  A    between atoms: C_15  and  C_17
REMARK    7  A    between atoms: C_24  and  O_25
REMARK    8  A    between atoms: C_27  and  O_28
REMARK    9  A    between atoms: O_28  and  C_31
REMARK                            x       y       z     vdW  Elec       q    Type
REMARK                         _______ _______ _______ _____ _____    ______ ____
ROOT
ATOM      1  S   UNL     1     -33.844  25.604   1.029  0.00  0.00    -0.114 S 
ATOM      2  O   UNL     1     -35.327  26.708   5.295  0.00  0.00    -0.273 OA
ATOM      3  N   UNL     1     -35.480  25.843   3.106  0.00  0.00    -0.242 N 
ATOM      4  C   UNL     1     -34.959  26.635   2.008  0.00  0.00    +0.155 C 
ATOM      5  CA  UNL     1     -34.302  27.524   3.087  0.00  0.00    +0.179 C 
ATOM      6  C   UNL     1     -35.132  26.687   4.102  0.00  0.00    +0.251 C 
ATOM      7  CA  UNL     1     -36.094  24.642   2.947  0.00  0.00    +0.127 C 
ATOM      8  C   UNL     1     -36.010  23.954   1.782  0.00  0.00    +0.030 C 
ATOM      9  C   UNL     1     -35.150  24.403   0.603  0.00  0.00    +0.086 C 
ENDROOT
BRANCH   5  11
ATOM     10  O   UNL     1     -32.581  29.250   4.743  0.00  0.00    -0.268 OA
ATOM     11  N   UNL     1     -32.857  27.426   3.291  0.00  0.00    -0.291 N 
ATOM     12  C   UNL     1     -32.155  28.304   4.100  0.00  0.00    +0.270 C 
ATOM     13  H   UNL     1     -32.363  26.706   2.836  0.00  0.00    +0.150 HD
BRANCH  12  15
ATOM     14  N   UNL     1     -30.143  27.159   3.334  0.00  0.00    -0.075 NA
ATOM     15  C   UNL     1     -30.684  27.998   4.164  0.00  0.00    +0.207 C 
BRANCH  15  17
ATOM     16  O   UNL     1     -29.671  28.014   6.359  0.00  0.00    -0.449 OA
ATOM     17  C   UNL     1     -29.892  28.674   5.193  0.00  0.00    +0.171 C 
ATOM     18  C   UNL     1     -29.295  29.913   5.218  0.00  0.00    +0.043 C 
ATOM     19  C   UNL     1     -28.666  30.021   6.480  0.00  0.00    +0.044 C 
ATOM     20  C   UNL     1     -28.923  28.841   7.138  0.00  0.00    +0.180 C 
ENDBRANCH  15  17
BRANCH  14  21
ATOM     21  O   UNL     1     -28.769  27.013   3.566  0.00  0.00    -0.373 OA
ATOM     22  C   UNL     1     -28.117  26.917   2.309  0.00  0.00    +0.288 C 
ENDBRANCH  14  21
ENDBRANCH  12  15
ENDBRANCH   5  11
BRANCH   7  24
ATOM     23  OXT UNL     1     -36.410  23.146   4.765  0.00  0.00    -0.244 OA
ATOM     24  C   UNL     1     -36.800  24.093   4.114  0.00  0.00    +0.352 C 
BRANCH  24  25
ATOM     25  O   UNL     1     -37.925  24.803   4.330  0.00  0.00    -0.476 OA
ATOM     26  H   UNL     1     -37.870  25.693   4.617  0.00  0.00    +0.295 HD
ENDBRANCH  24  25
ENDBRANCH   7  24
BRANCH   8  27
ATOM     27  C   UNL     1     -36.728  22.657   1.500  0.00  0.00    +0.235 C 
BRANCH  27  28
ATOM     28  O   UNL     1     -35.788  21.605   1.445  0.00  0.00    -0.430 OA
BRANCH  28  31
ATOM     29  O   UNL     1     -35.129  20.447   3.323  0.00  0.00    -0.227 OA
ATOM     30  N   UNL     1     -37.033  19.860   2.175  0.00  0.00    -0.295 N 
ATOM     31  C   UNL     1     -35.913  20.623   2.396  0.00  0.00    +0.399 C 
ATOM     32  H   UNL     1     -37.620  20.056   1.410  0.00  0.00    +0.148 HD
ATOM     33  H   UNL     1     -37.249  19.115   2.783  0.00  0.00    +0.148 HD
ENDBRANCH  28  31
ENDBRANCH  27  28
ENDBRANCH   8  27
TORSDOF 9
ENDMDL
MODEL 7
REMARK VINA RESULT:      -5.6      2.673      7.946
REMARK  Name = 5361202
REMARK  9 active torsions:
REMARK  status: ('A' for Active; 'I' for Inactive)
REMARK    1  A    between atoms: CA_5  and  N_11
REMARK    2  A    between atoms: CA_7  and  C_24
REMARK    3  A    between atoms: C_8  and  C_27
REMARK    4  A    between atoms: C_12  and  C_15
REMARK    5  A    between atoms: N_14  and  O_21
REMARK    6  A    between atoms: C_15  and  C_17
REMARK    7  A    between atoms: C_24  and  O_25
REMARK    8  A    between atoms: C_27  and  O_28
REMARK    9  A    between atoms: O_28  and  C_31
REMARK                            x       y       z     vdW  Elec       q    Type
REMARK                         _______ _______ _______ _____ _____    ______ ____
ROOT
ATOM      1  S   UNL     1     -35.641  21.951   3.618  0.00  0.00    -0.114 S 
ATOM      2  O   UNL     1     -38.006  24.344   0.409  0.00  0.00    -0.273 OA
ATOM      3  N   UNL     1     -37.263  23.775   2.574  0.00  0.00    -0.242 N 
ATOM      4  C   UNL     1     -37.271  22.378   2.967  0.00  0.00    +0.155 C 
ATOM      5  CA  UNL     1     -37.520  22.060   1.477  0.00  0.00    +0.179 C 
ATOM      6  C   UNL     1     -37.697  23.596   1.308  0.00  0.00    +0.251 C 
ATOM      7  CA  UNL     1     -36.890  24.789   3.398  0.00  0.00    +0.127 C 
ATOM      8  C   UNL     1     -36.222  24.553   4.552  0.00  0.00    +0.030 C 
ATOM      9  C   UNL     1     -35.742  23.166   4.976  0.00  0.00    +0.086 C 
ENDROOT
BRANCH   5  11
ATOM     10  O   UNL     1     -37.346  19.401   0.219  0.00  0.00    -0.268 OA
ATOM     11  N   UNL     1     -36.422  21.507   0.685  0.00  0.00    -0.291 N 
ATOM     12  C   UNL     1     -36.458  20.234   0.143  0.00  0.00    +0.270 C 
ATOM     13  H   UNL     1     -35.624  22.063   0.531  0.00  0.00    +0.150 HD
BRANCH  12  15
ATOM     14  N   UNL     1     -35.090  20.263  -1.876  0.00  0.00    -0.075 NA
ATOM     15  C   UNL     1     -35.219  19.891  -0.639  0.00  0.00    +0.207 C 
BRANCH  15  17
ATOM     16  O   UNL     1     -34.160  17.776  -0.136  0.00  0.00    -0.449 OA
ATOM     17  C   UNL     1     -34.175  19.123   0.042  0.00  0.00    +0.171 C 
ATOM     18  C   UNL     1     -33.151  19.512   0.873  0.00  0.00    +0.043 C 
ATOM     19  C   UNL     1     -32.460  18.329   1.227  0.00  0.00    +0.044 C 
ATOM     20  C   UNL     1     -33.112  17.300   0.589  0.00  0.00    +0.180 C 
ENDBRANCH  15  17
BRANCH  14  21
ATOM     21  O   UNL     1     -33.870  19.839  -2.420  0.00  0.00    -0.373 OA
ATOM     22  C   UNL     1     -33.290  20.936  -3.110  0.00  0.00    +0.288 C 
ENDBRANCH  14  21
ENDBRANCH  12  15
ENDBRANCH   5  11
BRANCH   7  24
ATOM     23  OXT UNL     1     -36.395  26.878   2.379  0.00  0.00    -0.244 OA
ATOM     24  C   UNL     1     -37.189  26.157   2.949  0.00  0.00    +0.352 C 
BRANCH  24  25
ATOM     25  O   UNL     1     -38.460  26.465   3.270  0.00  0.00    -0.476 OA
ATOM     26  H   UNL     1     -38.653  27.281   3.689  0.00  0.00    +0.295 HD
ENDBRANCH  24  25
ENDBRANCH   7  24
BRANCH   8  27
ATOM     27  C   UNL     1     -35.845  25.615   5.557  0.00  0.00    +0.235 C 
BRANCH  27  28
ATOM     28  O   UNL     1     -34.482  25.476   5.894  0.00  0.00    -0.430 OA
BRANCH  28  31
ATOM     29  O   UNL     1     -32.736  26.896   6.381  0.00  0.00    -0.227 OA
ATOM     30  N   UNL     1     -34.082  27.256   4.552  0.00  0.00    -0.295 N 
ATOM     31  C   UNL     1     -33.682  26.571   5.673  0.00  0.00    +0.399 C 
ATOM     32  H   UNL     1     -34.852  26.939   4.029  0.00  0.00    +0.148 HD
ATOM     33  H   UNL     1     -33.596  28.067   4.273  0.00  0.00    +0.148 HD
ENDBRANCH  28  31
ENDBRANCH  27  28
ENDBRANCH   8  27
TORSDOF 9
ENDMDL
MODEL 8
REMARK VINA RESULT:      -5.6      1.786      2.520
REMARK  Name = 5361202
REMARK  9 active torsions:
REMARK  status: ('A' for Active; 'I' for Inactive)
REMARK    1  A    between atoms: CA_5  and  N_11
REMARK    2  A    between atoms: CA_7  and  C_24
REMARK    3  A    between atoms: C_8  and  C_27
REMARK    4  A    between atoms: C_12  and  C_15
REMARK    5  A    between atoms: N_14  and  O_21
REMARK    6  A    between atoms: C_15  and  C_17
REMARK    7  A    between atoms: C_24  and  O_25
REMARK    8  A    between atoms: C_27  and  O_28
REMARK    9  A    between atoms: O_28  and  C_31
REMARK                            x       y       z     vdW  Elec       q    Type
REMARK                         _______ _______ _______ _____ _____    ______ ____
ROOT
ATOM      1  S   UNL     1     -37.282  26.233   2.714  0.00  0.00    -0.114 S 
ATOM      2  O   UNL     1     -34.359  23.338   4.879  0.00  0.00    -0.273 OA
ATOM      3  N   UNL     1     -36.287  23.968   3.677  0.00  0.00    -0.242 N 
ATOM      4  C   UNL     1     -37.036  25.128   4.122  0.00  0.00    +0.155 C 
ATOM      5  CA  UNL     1     -35.829  25.438   5.035  0.00  0.00    +0.179 C 
ATOM      6  C   UNL     1     -35.300  24.041   4.596  0.00  0.00    +0.251 C 
ATOM      7  CA  UNL     1     -36.655  23.190   2.626  0.00  0.00    +0.127 C 
ATOM      8  C   UNL     1     -37.586  23.602   1.733  0.00  0.00    +0.030 C 
ATOM      9  C   UNL     1     -38.220  24.991   1.761  0.00  0.00    +0.086 C 
ENDROOT
BRANCH   5  11
ATOM     10  O   UNL     1     -33.325  26.262   6.351  0.00  0.00    -0.268 OA
ATOM     11  N   UNL     1     -34.939  26.540   4.670  0.00  0.00    -0.291 N 
ATOM     12  C   UNL     1     -33.782  26.830   5.373  0.00  0.00    +0.270 C 
ATOM     13  H   UNL     1     -35.172  27.099   3.894  0.00  0.00    +0.150 HD
BRANCH  12  15
ATOM     14  N   UNL     1     -33.427  28.586   3.719  0.00  0.00    -0.075 NA
ATOM     15  C   UNL     1     -33.025  28.000   4.806  0.00  0.00    +0.207 C 
BRANCH  15  17
ATOM     16  O   UNL     1     -30.639  27.878   5.179  0.00  0.00    -0.449 OA
ATOM     17  C   UNL     1     -31.827  28.445   5.518  0.00  0.00    +0.171 C 
ATOM     18  C   UNL     1     -31.651  29.373   6.517  0.00  0.00    +0.043 C 
ATOM     19  C   UNL     1     -30.267  29.378   6.811  0.00  0.00    +0.044 C 
ATOM     20  C   UNL     1     -29.694  28.451   5.971  0.00  0.00    +0.180 C 
ENDBRANCH  15  17
BRANCH  14  21
ATOM     21  O   UNL     1     -32.581  29.645   3.360  0.00  0.00    -0.373 OA
ATOM     22  C   UNL     1     -33.379  30.808   3.196  0.00  0.00    +0.288 C 
ENDBRANCH  14  21
ENDBRANCH  12  15
ENDBRANCH   5  11
BRANCH   7  24
ATOM     23  OXT UNL     1     -34.880  21.782   1.909  0.00  0.00    -0.244 OA
ATOM     24  C   UNL     1     -35.951  21.908   2.467  0.00  0.00    +0.352 C 
BRANCH  24  25
ATOM     25  O   UNL     1     -36.680  20.925   3.029  0.00  0.00    -0.476 OA
ATOM     26  H   UNL     1     -37.037  21.038   3.888  0.00  0.00    +0.295 HD
ENDBRANCH  24  25
ENDBRANCH   7  24
BRANCH   8  27
ATOM     27  C   UNL     1     -38.106  22.765   0.589  0.00  0.00    +0.235 C 
BRANCH  27  28
ATOM     28  O   UNL     1     -39.007  21.800   1.089  0.00  0.00    -0.430 OA
BRANCH  28  31
ATOM     29  O   UNL     1     -40.159  20.364  -0.294  0.00  0.00    -0.227 OA
ATOM     30  N   UNL     1     -38.024  19.877   0.406  0.00  0.00    -0.295 N 
ATOM     31  C   UNL     1     -39.154  20.656   0.344  0.00  0.00    +0.399 C 
ATOM     32  H   UNL     1     -37.251  20.173   0.938  0.00  0.00    +0.148 HD
ATOM     33  H   UNL     1     -37.988  19.023  -0.084  0.00  0.00    +0.148 HD
ENDBRANCH  28  31
ENDBRANCH  27  28
ENDBRANCH   8  27
TORSDOF 9
ENDMDL
MODEL 9
REMARK VINA RESULT:      -5.6      2.519      3.773
REMARK  Name = 5361202
REMARK  9 active torsions:
REMARK  status: ('A' for Active; 'I' for Inactive)
REMARK    1  A    between atoms: CA_5  and  N_11
REMARK    2  A    between atoms: CA_7  and  C_24
REMARK    3  A    between atoms: C_8  and  C_27
REMARK    4  A    between atoms: C_12  and  C_15
REMARK    5  A    between atoms: N_14  and  O_21
REMARK    6  A    between atoms: C_15  and  C_17
REMARK    7  A    between atoms: C_24  and  O_25
REMARK    8  A    between atoms: C_27  and  O_28
REMARK    9  A    between atoms: O_28  and  C_31
REMARK                            x       y       z     vdW  Elec       q    Type
REMARK                         _______ _______ _______ _____ _____    ______ ____
ROOT
ATOM      1  S   UNL     1     -34.133  26.033   1.217  0.00  0.00    -0.114 S 
ATOM      2  O   UNL     1     -35.683  26.188   5.598  0.00  0.00    -0.273 OA
ATOM      3  N   UNL     1     -35.481  25.354   3.401  0.00  0.00    -0.242 N 
ATOM      4  C   UNL     1     -35.562  26.287   2.293  0.00  0.00    +0.155 C 
ATOM      5  CA  UNL     1     -35.435  27.406   3.351  0.00  0.00    +0.179 C 
ATOM      6  C   UNL     1     -35.591  26.262   4.395  0.00  0.00    +0.251 C 
ATOM      7  CA  UNL     1     -35.338  24.012   3.249  0.00  0.00    +0.127 C 
ATOM      8  C   UNL     1     -34.968  23.470   2.064  0.00  0.00    +0.030 C 
ATOM      9  C   UNL     1     -34.583  24.304   0.844  0.00  0.00    +0.086 C 
ENDROOT
BRANCH   5  11
ATOM     10  O   UNL     1     -34.980  30.313   3.199  0.00  0.00    -0.268 OA
ATOM     11  N   UNL     1     -34.167  28.126   3.459  0.00  0.00    -0.291 N 
ATOM     12  C   UNL     1     -34.081  29.506   3.370  0.00  0.00    +0.270 C 
ATOM     13  H   UNL     1     -33.340  27.611   3.600  0.00  0.00    +0.150 HD
BRANCH  12  15
ATOM     14  N   UNL     1     -32.120  30.720   2.579  0.00  0.00    -0.075 NA
ATOM     15  C   UNL     1     -32.676  30.020   3.521  0.00  0.00    +0.207 C 
BRANCH  15  17
ATOM     16  O   UNL     1     -31.246  28.546   4.797  0.00  0.00    -0.449 OA
ATOM     17  C   UNL     1     -31.963  29.699   4.758  0.00  0.00    +0.171 C 
ATOM     18  C   UNL     1     -31.869  30.367   5.957  0.00  0.00    +0.043 C 
ATOM     19  C   UNL     1     -31.039  29.574   6.785  0.00  0.00    +0.044 C 
ATOM     20  C   UNL     1     -30.686  28.477   6.034  0.00  0.00    +0.180 C 
ENDBRANCH  15  17
BRANCH  14  21
ATOM     21  O   UNL     1     -30.811  31.094   2.916  0.00  0.00    -0.373 OA
ATOM     22  C   UNL     1     -29.942  30.618   1.900  0.00  0.00    +0.288 C 
ENDBRANCH  14  21
ENDBRANCH  12  15
ENDBRANCH   5  11
BRANCH   7  24
ATOM     23  OXT UNL     1     -34.676  22.930   5.258  0.00  0.00    -0.244 OA
ATOM     24  C   UNL     1     -35.541  23.180   4.444  0.00  0.00    +0.352 C 
BRANCH  24  25
ATOM     25  O   UNL     1     -36.818  22.752   4.480  0.00  0.00    -0.476 OA
ATOM     26  H   UNL     1     -37.085  22.124   5.123  0.00  0.00    +0.295 HD
ENDBRANCH  24  25
ENDBRANCH   7  24
BRANCH   8  27
ATOM     27  C   UNL     1     -34.866  21.988   1.794  0.00  0.00    +0.235 C 
BRANCH  27  28
ATOM     28  O   UNL     1     -35.987  21.573   1.043  0.00  0.00    -0.430 OA
BRANCH  28  31
ATOM     29  O   UNL     1     -38.102  21.663   1.950  0.00  0.00    -0.227 OA
ATOM     30  N   UNL     1     -36.773  19.807   2.223  0.00  0.00    -0.295 N 
ATOM     31  C   UNL     1     -37.047  21.068   1.755  0.00  0.00    +0.399 C 
ATOM     32  H   UNL     1     -35.903  19.388   2.029  0.00  0.00    +0.148 HD
ATOM     33  H   UNL     1     -37.447  19.321   2.753  0.00  0.00    +0.148 HD
ENDBRANCH  28  31
ENDBRANCH  27  28
ENDBRANCH   8  27
TORSDOF 9
ENDMDL
