MODEL 1
REMARK VINA RESULT:      -7.4      0.000      0.000
REMARK  Name = 56959560
REMARK  11 active torsions:
REMARK  status: ('A' for Active; 'I' for Inactive)
REMARK    1  A    between atoms: C_4  and  C_22
REMARK    2  A    between atoms: C_5  and  C_7
REMARK    3  A    between atoms: C_8  and  C_15
REMARK    4  A    between atoms: N_14  and  CA_17
REMARK    5  A    between atoms: CA_17  and  C_19
REMARK    6  A    between atoms: C_19  and  O_20
REMARK    7  A    between atoms: C_22  and  C_23
REMARK    8  A    between atoms: C_22  and  O_25
REMARK    9  A    between atoms: O_25  and  C_31
REMARK   10  A    between atoms: C_26  and  C_33
REMARK   11  A    between atoms: C_33  and  C_34
REMARK                            x       y       z     vdW  Elec       q    Type
REMARK                         _______ _______ _______ _____ _____    ______ ____
ROOT
ATOM      1  O   UNL     1     -36.769  23.236   4.167  0.00  0.00    -0.312 OA
ATOM      2  N   UNL     1     -35.078  24.113   2.989  0.00  0.00    -0.309 NA
ATOM      3  N   UNL     1     -36.190  24.213   4.986  0.00  0.00    -0.007 NA
ATOM      4  C   UNL     1     -36.054  23.241   3.011  0.00  0.00    +0.333 C 
ATOM      5  C   UNL     1     -35.202  24.686   4.222  0.00  0.00    +0.127 C 
ENDROOT
BRANCH   5   7
ATOM      6  F   UNL     1     -32.989  27.088   7.760  0.00  0.00    -0.204 F 
ATOM      7  C   UNL     1     -34.316  25.728   4.661  0.00  0.00    +0.079 C 
ATOM      8  C   UNL     1     -32.598  27.753   5.514  0.00  0.00    +0.081 C 
ATOM      9  C   UNL     1     -34.076  25.911   6.023  0.00  0.00    +0.041 C 
ATOM     10  C   UNL     1     -33.699  26.559   3.726  0.00  0.00    +0.011 C 
ATOM     11  C   UNL     1     -33.216  26.923   6.449  0.00  0.00    +0.145 C 
ATOM     12  C   UNL     1     -32.839  27.572   4.153  0.00  0.00    +0.007 C 
BRANCH   8  15
ATOM     13  O   UNL     1     -32.131  29.957   6.166  0.00  0.00    -0.270 OA
ATOM     14  N   UNL     1     -30.359  28.462   6.151  0.00  0.00    -0.300 N 
ATOM     15  C   ACE A   0     -31.681  28.832   5.966  0.00  0.00    +0.248 C 
ATOM     16  H   UNL     1     -30.096  27.533   5.963  0.00  0.00    +0.150 HD
BRANCH  14  17
ATOM     17  CA  UNL     1     -29.352  29.392   6.611  0.00  0.00    +0.101 C 
ATOM     18  CB  UNL     1     -28.677  30.058   5.419  0.00  0.00    +0.024 C 
BRANCH  17  19
ATOM     19  C   UNL     1     -28.331  28.680   7.495  0.00  0.00    +0.157 C 
BRANCH  19  20
ATOM     20  O   UNL     1     -28.401  29.207   8.815  0.00  0.00    -0.380 OA
ATOM     21  H   UNL     1     -29.090  29.889   8.855  0.00  0.00    +0.211 HD
ENDBRANCH  19  20
ENDBRANCH  17  19
ENDBRANCH  14  17
ENDBRANCH   8  15
ENDBRANCH   5   7
BRANCH   4  22
ATOM     22  C   UNL     1     -36.475  22.287   1.976  0.00  0.00    +0.257 C 
BRANCH  22  23
ATOM     23  C   UNL     1     -37.903  22.512   1.409  0.00  0.00    +0.055 C 
ATOM     24  C   UNL     1     -38.843  21.355   1.712  0.00  0.00    +0.004 C 
ENDBRANCH  22  23
BRANCH  22  25
ATOM     25  O   UNL     1     -35.556  22.343   0.865  0.00  0.00    -0.468 OA
BRANCH  25  31
ATOM     26  C   UNL     1     -32.579  19.451   0.821  0.00  0.00    +0.035 C 
ATOM     27  C   UNL     1     -33.758  19.227   1.531  0.00  0.00    +0.006 C 
ATOM     28  C   UNL     1     -32.399  20.647   0.125  0.00  0.00    +0.006 C 
ATOM     29  C   UNL     1     -34.759  20.199   1.546  0.00  0.00    +0.037 C 
ATOM     30  C   UNL     1     -33.401  21.618   0.139  0.00  0.00    +0.037 C 
ATOM     31  C   UNL     1     -34.579  21.395   0.850  0.00  0.00    +0.139 C 
BRANCH  26  33
ATOM     32  O   UNL     1     -31.501  17.515   1.634  0.00  0.00    -0.291 OA
ATOM     33  C   UNL     1     -31.535  18.439   0.806  0.00  0.00    +0.173 C 
BRANCH  33  34
ATOM     34  C   UNL     1     -30.430  18.490  -0.217  0.00  0.00    +0.062 C 
ATOM     35  C   UNL     1     -29.615  17.257  -0.478  0.00  0.00    +0.008 C 
ATOM     36  C   UNL     1     -30.593  17.741  -1.508  0.00  0.00    +0.008 C 
ENDBRANCH  33  34
ENDBRANCH  26  33
ENDBRANCH  25  31
ENDBRANCH  22  25
ENDBRANCH   4  22
TORSDOF 11
ENDMDL
MODEL 2
REMARK VINA RESULT:      -7.4      0.917      1.499
REMARK  Name = 56959560
REMARK  11 active torsions:
REMARK  status: ('A' for Active; 'I' for Inactive)
REMARK    1  A    between atoms: C_4  and  C_22
REMARK    2  A    between atoms: C_5  and  C_7
REMARK    3  A    between atoms: C_8  and  C_15
REMARK    4  A    between atoms: N_14  and  CA_17
REMARK    5  A    between atoms: CA_17  and  C_19
REMARK    6  A    between atoms: C_19  and  O_20
REMARK    7  A    between atoms: C_22  and  C_23
REMARK    8  A    between atoms: C_22  and  O_25
REMARK    9  A    between atoms: O_25  and  C_31
REMARK   10  A    between atoms: C_26  and  C_33
REMARK   11  A    between atoms: C_33  and  C_34
REMARK                            x       y       z     vdW  Elec       q    Type
REMARK                         _______ _______ _______ _____ _____    ______ ____
ROOT
ATOM      1  O   UNL     1     -36.845  23.326   4.091  0.00  0.00    -0.312 OA
ATOM      2  N   UNL     1     -34.960  23.999   3.087  0.00  0.00    -0.309 NA
ATOM      3  N   UNL     1     -36.325  24.353   4.888  0.00  0.00    -0.007 NA
ATOM      4  C   UNL     1     -35.981  23.181   3.052  0.00  0.00    +0.333 C 
ATOM      5  C   UNL     1     -35.215  24.698   4.231  0.00  0.00    +0.127 C 
ENDROOT
BRANCH   5   7
ATOM      6  F   UNL     1     -32.342  28.456   3.330  0.00  0.00    -0.204 F 
ATOM      7  C   UNL     1     -34.335  25.737   4.691  0.00  0.00    +0.079 C 
ATOM      8  C   UNL     1     -32.627  27.754   5.581  0.00  0.00    +0.081 C 
ATOM      9  C   UNL     1     -33.751  26.611   3.774  0.00  0.00    +0.041 C 
ATOM     10  C   UNL     1     -34.065  25.872   6.052  0.00  0.00    +0.011 C 
ATOM     11  C   UNL     1     -32.897  27.620   4.220  0.00  0.00    +0.145 C 
ATOM     12  C   UNL     1     -33.211  26.881   6.498  0.00  0.00    +0.007 C 
BRANCH   8  15
ATOM     13  O   UNL     1     -32.165  29.960   6.228  0.00  0.00    -0.270 OA
ATOM     14  N   UNL     1     -30.409  28.448   6.304  0.00  0.00    -0.300 N 
ATOM     15  C   ACE A   0     -31.718  28.829   6.059  0.00  0.00    +0.248 C 
ATOM     16  H   UNL     1     -30.148  27.514   6.137  0.00  0.00    +0.150 HD
BRANCH  14  17
ATOM     17  CA  UNL     1     -29.413  29.372   6.796  0.00  0.00    +0.101 C 
ATOM     18  CB  UNL     1     -28.713  30.053   5.627  0.00  0.00    +0.024 C 
BRANCH  17  19
ATOM     19  C   UNL     1     -28.410  28.650   7.692  0.00  0.00    +0.157 C 
BRANCH  19  20
ATOM     20  O   UNL     1     -28.437  29.227   8.992  0.00  0.00    -0.380 OA
ATOM     21  H   UNL     1     -28.458  30.195   8.917  0.00  0.00    +0.211 HD
ENDBRANCH  19  20
ENDBRANCH  17  19
ENDBRANCH  14  17
ENDBRANCH   8  15
ENDBRANCH   5   7
BRANCH   4  22
ATOM     22  C   UNL     1     -36.315  22.148   2.062  0.00  0.00    +0.257 C 
BRANCH  22  23
ATOM     23  C   UNL     1     -37.744  22.242   1.464  0.00  0.00    +0.055 C 
ATOM     24  C   UNL     1     -38.167  20.966   0.752  0.00  0.00    +0.004 C 
ENDBRANCH  22  23
BRANCH  22  25
ATOM     25  O   UNL     1     -35.383  22.214   0.963  0.00  0.00    -0.468 OA
BRANCH  25  31
ATOM     26  C   UNL     1     -32.536  19.197   0.807  0.00  0.00    +0.035 C 
ATOM     27  C   UNL     1     -32.343  20.375   0.086  0.00  0.00    +0.006 C 
ATOM     28  C   UNL     1     -33.684  19.032   1.581  0.00  0.00    +0.006 C 
ATOM     29  C   UNL     1     -33.300  21.389   0.138  0.00  0.00    +0.037 C 
ATOM     30  C   UNL     1     -34.641  20.046   1.633  0.00  0.00    +0.037 C 
ATOM     31  C   UNL     1     -34.449  21.224   0.912  0.00  0.00    +0.139 C 
BRANCH  26  33
ATOM     32  O   UNL     1     -31.833  16.946   0.922  0.00  0.00    -0.291 OA
ATOM     33  C   UNL     1     -31.539  18.139   0.752  0.00  0.00    +0.173 C 
BRANCH  33  34
ATOM     34  C   UNL     1     -30.088  18.464   0.505  0.00  0.00    +0.062 C 
ATOM     35  C   UNL     1     -29.059  17.384   0.666  0.00  0.00    +0.008 C 
ATOM     36  C   UNL     1     -29.406  17.890  -0.703  0.00  0.00    +0.008 C 
ENDBRANCH  33  34
ENDBRANCH  26  33
ENDBRANCH  25  31
ENDBRANCH  22  25
ENDBRANCH   4  22
TORSDOF 11
ENDMDL
MODEL 3
REMARK VINA RESULT:      -6.9      3.211      8.986
REMARK  Name = 56959560
REMARK  11 active torsions:
REMARK  status: ('A' for Active; 'I' for Inactive)
REMARK    1  A    between atoms: C_4  and  C_22
REMARK    2  A    between atoms: C_5  and  C_7
REMARK    3  A    between atoms: C_8  and  C_15
REMARK    4  A    between atoms: N_14  and  CA_17
REMARK    5  A    between atoms: CA_17  and  C_19
REMARK    6  A    between atoms: C_19  and  O_20
REMARK    7  A    between atoms: C_22  and  C_23
REMARK    8  A    between atoms: C_22  and  O_25
REMARK    9  A    between atoms: O_25  and  C_31
REMARK   10  A    between atoms: C_26  and  C_33
REMARK   11  A    between atoms: C_33  and  C_34
REMARK                            x       y       z     vdW  Elec       q    Type
REMARK                         _______ _______ _______ _____ _____    ______ ____
ROOT
ATOM      1  O   UNL     1     -37.118  20.564   1.804  0.00  0.00    -0.312 OA
ATOM      2  N   UNL     1     -35.181  21.687   1.866  0.00  0.00    -0.309 NA
ATOM      3  N   UNL     1     -36.129  19.655   1.409  0.00  0.00    -0.007 NA
ATOM      4  C   UNL     1     -36.476  21.736   2.054  0.00  0.00    +0.333 C 
ATOM      5  C   UNL     1     -35.016  20.391   1.471  0.00  0.00    +0.127 C 
ENDROOT
BRANCH   5   7
ATOM      6  F   UNL     1     -30.688  20.887  -0.581  0.00  0.00    -0.204 F 
ATOM      7  C   UNL     1     -33.721  19.863   1.143  0.00  0.00    +0.079 C 
ATOM      8  C   UNL     1     -31.206  18.839   0.505  0.00  0.00    +0.081 C 
ATOM      9  C   UNL     1     -32.813  20.642   0.425  0.00  0.00    +0.041 C 
ATOM     10  C   UNL     1     -33.371  18.573   1.541  0.00  0.00    +0.011 C 
ATOM     11  C   UNL     1     -31.555  20.129   0.107  0.00  0.00    +0.145 C 
ATOM     12  C   UNL     1     -32.113  18.060   1.222  0.00  0.00    +0.007 C 
BRANCH   8  15
ATOM     13  O   UNL     1     -29.488  18.309  -1.000  0.00  0.00    -0.270 OA
ATOM     14  N   UNL     1     -29.123  17.813   1.235  0.00  0.00    -0.300 N 
ATOM     15  C   ACE A   0     -29.866  18.291   0.168  0.00  0.00    +0.248 C 
ATOM     16  H   UNL     1     -29.516  17.843   2.137  0.00  0.00    +0.150 HD
BRANCH  14  17
ATOM     17  CA  UNL     1     -27.793  17.272   1.072  0.00  0.00    +0.101 C 
ATOM     18  CB  UNL     1     -27.873  15.802   0.682  0.00  0.00    +0.024 C 
BRANCH  17  19
ATOM     19  C   UNL     1     -26.979  17.459   2.350  0.00  0.00    +0.157 C 
BRANCH  19  20
ATOM     20  O   UNL     1     -27.863  17.634   3.451  0.00  0.00    -0.380 OA
ATOM     21  H   UNL     1     -28.562  16.962   3.416  0.00  0.00    +0.211 HD
ENDBRANCH  19  20
ENDBRANCH  17  19
ENDBRANCH  14  17
ENDBRANCH   8  15
ENDBRANCH   5   7
BRANCH   4  22
ATOM     22  C   UNL     1     -37.313  22.861   2.492  0.00  0.00    +0.257 C 
BRANCH  22  23
ATOM     23  C   UNL     1     -38.833  22.701   2.221  0.00  0.00    +0.055 C 
ATOM     24  C   UNL     1     -39.627  23.946   2.582  0.00  0.00    +0.004 C 
ENDBRANCH  22  23
BRANCH  22  25
ATOM     25  O   UNL     1     -37.146  23.063   3.910  0.00  0.00    -0.468 OA
BRANCH  25  31
ATOM     26  C   UNL     1     -34.314  25.885   5.027  0.00  0.00    +0.035 C 
ATOM     27  C   UNL     1     -34.069  24.529   5.241  0.00  0.00    +0.006 C 
ATOM     28  C   UNL     1     -35.511  26.294   4.438  0.00  0.00    +0.006 C 
ATOM     29  C   UNL     1     -35.021  23.580   4.865  0.00  0.00    +0.037 C 
ATOM     30  C   UNL     1     -36.462  25.345   4.063  0.00  0.00    +0.037 C 
ATOM     31  C   UNL     1     -36.217  23.989   4.276  0.00  0.00    +0.139 C 
BRANCH  26  33
ATOM     32  O   UNL     1     -32.825  26.894   6.557  0.00  0.00    -0.291 OA
ATOM     33  C   UNL     1     -33.323  26.874   5.420  0.00  0.00    +0.173 C 
BRANCH  33  34
ATOM     34  C   UNL     1     -32.875  27.938   4.452  0.00  0.00    +0.062 C 
ATOM     35  C   UNL     1     -31.466  28.450   4.526  0.00  0.00    +0.008 C 
ATOM     36  C   UNL     1     -31.889  27.581   3.377  0.00  0.00    +0.008 C 
ENDBRANCH  33  34
ENDBRANCH  26  33
ENDBRANCH  25  31
ENDBRANCH  22  25
ENDBRANCH   4  22
TORSDOF 11
ENDMDL
MODEL 4
REMARK VINA RESULT:      -6.9      1.040      1.297
REMARK  Name = 56959560
REMARK  11 active torsions:
REMARK  status: ('A' for Active; 'I' for Inactive)
REMARK    1  A    between atoms: C_4  and  C_22
REMARK    2  A    between atoms: C_5  and  C_7
REMARK    3  A    between atoms: C_8  and  C_15
REMARK    4  A    between atoms: N_14  and  CA_17
REMARK    5  A    between atoms: CA_17  and  C_19
REMARK    6  A    between atoms: C_19  and  O_20
REMARK    7  A    between atoms: C_22  and  C_23
REMARK    8  A    between atoms: C_22  and  O_25
REMARK    9  A    between atoms: O_25  and  C_31
REMARK   10  A    between atoms: C_26  and  C_33
REMARK   11  A    between atoms: C_33  and  C_34
REMARK                            x       y       z     vdW  Elec       q    Type
REMARK                         _______ _______ _______ _____ _____    ______ ____
ROOT
ATOM      1  O   UNL     1     -37.561  23.619   3.818  0.00  0.00    -0.312 OA
ATOM      2  N   UNL     1     -35.437  23.746   3.122  0.00  0.00    -0.309 NA
ATOM      3  N   UNL     1     -37.005  24.729   4.466  0.00  0.00    -0.007 NA
ATOM      4  C   UNL     1     -36.571  23.098   3.046  0.00  0.00    +0.333 C 
ATOM      5  C   UNL     1     -35.752  24.738   4.005  0.00  0.00    +0.127 C 
ENDROOT
BRANCH   5   7
ATOM      6  F   UNL     1     -33.041  26.801   7.407  0.00  0.00    -0.204 F 
ATOM      7  C   UNL     1     -34.787  25.723   4.406  0.00  0.00    +0.079 C 
ATOM      8  C   UNL     1     -32.914  27.637   5.188  0.00  0.00    +0.081 C 
ATOM      9  C   UNL     1     -34.372  25.790   5.736  0.00  0.00    +0.041 C 
ATOM     10  C   UNL     1     -34.265  26.614   3.468  0.00  0.00    +0.011 C 
ATOM     11  C   UNL     1     -33.435  26.747   6.127  0.00  0.00    +0.145 C 
ATOM     12  C   UNL     1     -33.328  27.571   3.858  0.00  0.00    +0.007 C 
BRANCH   8  15
ATOM     13  O   UNL     1     -32.293  29.794   5.867  0.00  0.00    -0.270 OA
ATOM     14  N   UNL     1     -30.602  28.220   5.676  0.00  0.00    -0.300 N 
ATOM     15  C   ACE A   0     -31.914  28.657   5.601  0.00  0.00    +0.248 C 
ATOM     16  H   UNL     1     -30.399  27.286   5.441  0.00  0.00    +0.150 HD
BRANCH  14  17
ATOM     17  CA  UNL     1     -29.520  29.086   6.086  0.00  0.00    +0.101 C 
ATOM     18  CB  UNL     1     -28.857  29.705   4.863  0.00  0.00    +0.024 C 
BRANCH  17  19
ATOM     19  C   UNL     1     -28.508  28.314   6.930  0.00  0.00    +0.157 C 
BRANCH  19  20
ATOM     20  O   UNL     1     -28.966  26.980   7.113  0.00  0.00    -0.380 OA
ATOM     21  H   UNL     1     -28.395  26.526   7.754  0.00  0.00    +0.211 HD
ENDBRANCH  19  20
ENDBRANCH  17  19
ENDBRANCH  14  17
ENDBRANCH   8  15
ENDBRANCH   5   7
BRANCH   4  22
ATOM     22  C   UNL     1     -36.915  21.908   2.256  0.00  0.00    +0.257 C 
BRANCH  22  23
ATOM     23  C   UNL     1     -38.422  21.752   1.915  0.00  0.00    +0.055 C 
ATOM     24  C   UNL     1     -38.776  22.320   0.549  0.00  0.00    +0.004 C 
ENDBRANCH  22  23
BRANCH  22  25
ATOM     25  O   UNL     1     -36.192  21.933   1.008  0.00  0.00    -0.468 OA
BRANCH  25  31
ATOM     26  C   UNL     1     -33.330  18.967   0.507  0.00  0.00    +0.035 C 
ATOM     27  C   UNL     1     -33.767  19.708  -0.592  0.00  0.00    +0.006 C 
ATOM     28  C   UNL     1     -33.854  19.223   1.774  0.00  0.00    +0.006 C 
ATOM     29  C   UNL     1     -34.729  20.704  -0.423  0.00  0.00    +0.037 C 
ATOM     30  C   UNL     1     -34.815  20.220   1.942  0.00  0.00    +0.037 C 
ATOM     31  C   UNL     1     -35.253  20.960   0.844  0.00  0.00    +0.139 C 
BRANCH  26  33
ATOM     32  O   UNL     1     -32.560  16.889  -0.308  0.00  0.00    -0.291 OA
ATOM     33  C   UNL     1     -32.328  17.928   0.331  0.00  0.00    +0.173 C 
BRANCH  33  34
ATOM     34  C   UNL     1     -30.960  18.068   0.947  0.00  0.00    +0.062 C 
ATOM     35  C   UNL     1     -29.838  17.208   0.442  0.00  0.00    +0.008 C 
ATOM     36  C   UNL     1     -29.853  18.678   0.138  0.00  0.00    +0.008 C 
ENDBRANCH  33  34
ENDBRANCH  26  33
ENDBRANCH  25  31
ENDBRANCH  22  25
ENDBRANCH   4  22
TORSDOF 11
ENDMDL
MODEL 5
REMARK VINA RESULT:      -6.8      4.267     11.367
REMARK  Name = 56959560
REMARK  11 active torsions:
REMARK  status: ('A' for Active; 'I' for Inactive)
REMARK    1  A    between atoms: C_4  and  C_22
REMARK    2  A    between atoms: C_5  and  C_7
REMARK    3  A    between atoms: C_8  and  C_15
REMARK    4  A    between atoms: N_14  and  CA_17
REMARK    5  A    between atoms: CA_17  and  C_19
REMARK    6  A    between atoms: C_19  and  O_20
REMARK    7  A    between atoms: C_22  and  C_23
REMARK    8  A    between atoms: C_22  and  O_25
REMARK    9  A    between atoms: O_25  and  C_31
REMARK   10  A    between atoms: C_26  and  C_33
REMARK   11  A    between atoms: C_33  and  C_34
REMARK                            x       y       z     vdW  Elec       q    Type
REMARK                         _______ _______ _______ _____ _____    ______ ____
ROOT
ATOM      1  O   UNL     1     -32.471  28.043   6.664  0.00  0.00    -0.312 OA
ATOM      2  N   UNL     1     -33.038  27.727   4.521  0.00  0.00    -0.309 NA
ATOM      3  N   UNL     1     -33.091  26.788   6.607  0.00  0.00    -0.007 NA
ATOM      4  C   UNL     1     -32.482  28.527   5.395  0.00  0.00    +0.333 C 
ATOM      5  C   UNL     1     -33.396  26.673   5.312  0.00  0.00    +0.127 C 
ENDROOT
BRANCH   5   7
ATOM      6  F   UNL     1     -36.000  22.671   5.933  0.00  0.00    -0.204 F 
ATOM      7  C   UNL     1     -34.061  25.519   4.774  0.00  0.00    +0.079 C 
ATOM      8  C   UNL     1     -35.351  23.278   3.730  0.00  0.00    +0.081 C 
ATOM      9  C   UNL     1     -34.720  24.634   5.627  0.00  0.00    +0.041 C 
ATOM     10  C   UNL     1     -34.046  25.282   3.399  0.00  0.00    +0.011 C 
ATOM     11  C   UNL     1     -35.366  23.514   5.104  0.00  0.00    +0.145 C 
ATOM     12  C   UNL     1     -34.692  24.162   2.877  0.00  0.00    +0.007 C 
BRANCH   8  15
ATOM     13  O   UNL     1     -35.620  20.965   3.451  0.00  0.00    -0.270 OA
ATOM     14  N   UNL     1     -37.144  22.343   2.375  0.00  0.00    -0.300 N 
ATOM     15  C   ACE A   0     -36.039  22.084   3.171  0.00  0.00    +0.248 C 
ATOM     16  H   UNL     1     -37.401  23.278   2.209  0.00  0.00    +0.150 HD
BRANCH  14  17
ATOM     17  CA  UNL     1     -37.932  21.288   1.779  0.00  0.00    +0.101 C 
ATOM     18  CB  UNL     1     -37.299  20.843   0.468  0.00  0.00    +0.024 C 
BRANCH  17  19
ATOM     19  C   UNL     1     -39.371  21.751   1.567  0.00  0.00    +0.157 C 
BRANCH  19  20
ATOM     20  O   UNL     1     -40.248  20.937   2.335  0.00  0.00    -0.380 OA
ATOM     21  H   UNL     1     -40.258  21.249   3.254  0.00  0.00    +0.211 HD
ENDBRANCH  19  20
ENDBRANCH  17  19
ENDBRANCH  14  17
ENDBRANCH   8  15
ENDBRANCH   5   7
BRANCH   4  22
ATOM     22  C   UNL     1     -31.878  29.852   5.194  0.00  0.00    +0.257 C 
BRANCH  22  23
ATOM     23  C   UNL     1     -30.535  30.087   5.936  0.00  0.00    +0.055 C 
ATOM     24  C   UNL     1     -29.324  29.770   5.073  0.00  0.00    +0.004 C 
ENDBRANCH  22  23
BRANCH  22  25
ATOM     25  O   UNL     1     -31.636  30.063   3.788  0.00  0.00    -0.468 OA
BRANCH  25  31
ATOM     26  C   UNL     1     -33.223  33.542   2.171  0.00  0.00    +0.035 C 
ATOM     27  C   UNL     1     -34.053  32.449   2.425  0.00  0.00    +0.006 C 
ATOM     28  C   UNL     1     -31.861  33.466   2.461  0.00  0.00    +0.006 C 
ATOM     29  C   UNL     1     -33.519  31.280   2.968  0.00  0.00    +0.037 C 
ATOM     30  C   UNL     1     -31.328  32.297   3.004  0.00  0.00    +0.037 C 
ATOM     31  C   UNL     1     -32.156  31.205   3.258  0.00  0.00    +0.139 C 
BRANCH  26  33
ATOM     32  O   UNL     1     -35.001  34.978   1.580  0.00  0.00    -0.291 OA
ATOM     33  C   UNL     1     -33.779  34.760   1.604  0.00  0.00    +0.173 C 
BRANCH  33  34
ATOM     34  C   UNL     1     -32.879  35.805   0.997  0.00  0.00    +0.062 C 
ATOM     35  C   UNL     1     -33.427  37.175   0.726  0.00  0.00    +0.008 C 
ATOM     36  C   UNL     1     -32.439  36.968   1.837  0.00  0.00    +0.008 C 
ENDBRANCH  33  34
ENDBRANCH  26  33
ENDBRANCH  25  31
ENDBRANCH  22  25
ENDBRANCH   4  22
TORSDOF 11
ENDMDL
MODEL 6
REMARK VINA RESULT:      -6.8      1.415      1.773
REMARK  Name = 56959560
REMARK  11 active torsions:
REMARK  status: ('A' for Active; 'I' for Inactive)
REMARK    1  A    between atoms: C_4  and  C_22
REMARK    2  A    between atoms: C_5  and  C_7
REMARK    3  A    between atoms: C_8  and  C_15
REMARK    4  A    between atoms: N_14  and  CA_17
REMARK    5  A    between atoms: CA_17  and  C_19
REMARK    6  A    between atoms: C_19  and  O_20
REMARK    7  A    between atoms: C_22  and  C_23
REMARK    8  A    between atoms: C_22  and  O_25
REMARK    9  A    between atoms: O_25  and  C_31
REMARK   10  A    between atoms: C_26  and  C_33
REMARK   11  A    between atoms: C_33  and  C_34
REMARK                            x       y       z     vdW  Elec       q    Type
REMARK                         _______ _______ _______ _____ _____    ______ ____
ROOT
ATOM      1  O   UNL     1     -36.253  23.208   5.034  0.00  0.00    -0.312 OA
ATOM      2  N   UNL     1     -35.363  24.620   3.541  0.00  0.00    -0.309 NA
ATOM      3  N   UNL     1     -35.448  24.090   5.765  0.00  0.00    -0.007 NA
ATOM      4  C   UNL     1     -36.147  23.589   3.734  0.00  0.00    +0.333 C 
ATOM      5  C   UNL     1     -34.958  24.892   4.816  0.00  0.00    +0.127 C 
ENDROOT
BRANCH   5   7
ATOM      6  F   UNL     1     -32.271  28.610   3.352  0.00  0.00    -0.204 F 
ATOM      7  C   UNL     1     -34.059  25.974   5.105  0.00  0.00    +0.079 C 
ATOM      8  C   UNL     1     -32.312  28.075   5.666  0.00  0.00    +0.081 C 
ATOM      9  C   UNL     1     -33.588  26.784   4.072  0.00  0.00    +0.041 C 
ATOM     10  C   UNL     1     -33.655  26.215   6.418  0.00  0.00    +0.011 C 
ATOM     11  C   UNL     1     -32.715  27.835   4.353  0.00  0.00    +0.145 C 
ATOM     12  C   UNL     1     -32.783  27.266   6.700  0.00  0.00    +0.007 C 
BRANCH   8  15
ATOM     13  O   UNL     1     -31.843  30.310   6.199  0.00  0.00    -0.270 OA
ATOM     14  N   UNL     1     -30.036  28.873   5.989  0.00  0.00    -0.300 N 
ATOM     15  C   ACE A   0     -31.383  29.195   5.968  0.00  0.00    +0.248 C 
ATOM     16  H   UNL     1     -29.767  27.948   5.790  0.00  0.00    +0.150 HD
BRANCH  14  17
ATOM     17  CA  UNL     1     -29.011  29.846   6.291  0.00  0.00    +0.101 C 
ATOM     18  CB  UNL     1     -27.969  29.867   5.181  0.00  0.00    +0.024 C 
BRANCH  17  19
ATOM     19  C   UNL     1     -28.369  29.544   7.643  0.00  0.00    +0.157 C 
BRANCH  19  20
ATOM     20  O   UNL     1     -28.361  28.138   7.858  0.00  0.00    -0.380 OA
ATOM     21  H   UNL     1     -27.662  27.731   7.321  0.00  0.00    +0.211 HD
ENDBRANCH  19  20
ENDBRANCH  17  19
ENDBRANCH  14  17
ENDBRANCH   8  15
ENDBRANCH   5   7
BRANCH   4  22
ATOM     22  C   UNL     1     -36.913  22.805   2.756  0.00  0.00    +0.257 C 
BRANCH  22  23
ATOM     23  C   UNL     1     -38.374  23.278   2.526  0.00  0.00    +0.055 C 
ATOM     24  C   UNL     1     -38.571  23.933   1.168  0.00  0.00    +0.004 C 
ENDBRANCH  22  23
BRANCH  22  25
ATOM     25  O   UNL     1     -36.243  22.837   1.480  0.00  0.00    -0.468 OA
BRANCH  25  31
ATOM     26  C   UNL     1     -33.284  19.983   0.906  0.00  0.00    +0.035 C 
ATOM     27  C   UNL     1     -34.306  19.753   1.827  0.00  0.00    +0.006 C 
ATOM     28  C   UNL     1     -33.256  21.172   0.177  0.00  0.00    +0.006 C 
ATOM     29  C   UNL     1     -35.301  20.712   2.019  0.00  0.00    +0.037 C 
ATOM     30  C   UNL     1     -34.251  22.131   0.370  0.00  0.00    +0.037 C 
ATOM     31  C   UNL     1     -35.272  21.901   1.291  0.00  0.00    +0.139 C 
BRANCH  26  33
ATOM     32  O   UNL     1     -31.087  19.291   0.389  0.00  0.00    -0.291 OA
ATOM     33  C   UNL     1     -32.247  18.984   0.706  0.00  0.00    +0.173 C 
BRANCH  33  34
ATOM     34  C   UNL     1     -32.555  17.516   0.855  0.00  0.00    +0.062 C 
ATOM     35  C   UNL     1     -33.685  16.922   0.067  0.00  0.00    +0.008 C 
ATOM     36  C   UNL     1     -32.266  16.589  -0.289  0.00  0.00    +0.008 C 
ENDBRANCH  33  34
ENDBRANCH  26  33
ENDBRANCH  25  31
ENDBRANCH  22  25
ENDBRANCH   4  22
TORSDOF 11
ENDMDL
MODEL 7
REMARK VINA RESULT:      -6.7      4.572     11.487
REMARK  Name = 56959560
REMARK  11 active torsions:
REMARK  status: ('A' for Active; 'I' for Inactive)
REMARK    1  A    between atoms: C_4  and  C_22
REMARK    2  A    between atoms: C_5  and  C_7
REMARK    3  A    between atoms: C_8  and  C_15
REMARK    4  A    between atoms: N_14  and  CA_17
REMARK    5  A    between atoms: CA_17  and  C_19
REMARK    6  A    between atoms: C_19  and  O_20
REMARK    7  A    between atoms: C_22  and  C_23
REMARK    8  A    between atoms: C_22  and  O_25
REMARK    9  A    between atoms: O_25  and  C_31
REMARK   10  A    between atoms: C_26  and  C_33
REMARK   11  A    between atoms: C_33  and  C_34
REMARK                            x       y       z     vdW  Elec       q    Type
REMARK                         _______ _______ _______ _____ _____    ______ ____
ROOT
ATOM      1  O   UNL     1     -32.128  28.668   6.345  0.00  0.00    -0.312 OA
ATOM      2  N   UNL     1     -32.927  28.284   4.288  0.00  0.00    -0.309 NA
ATOM      3  N   UNL     1     -32.738  27.408   6.393  0.00  0.00    -0.007 NA
ATOM      4  C   UNL     1     -32.285  29.114   5.071  0.00  0.00    +0.333 C 
ATOM      5  C   UNL     1     -33.185  27.252   5.144  0.00  0.00    +0.127 C 
ENDROOT
BRANCH   5   7
ATOM      6  F   UNL     1     -34.328  24.063   1.723  0.00  0.00    -0.204 F 
ATOM      7  C   UNL     1     -33.894  26.079   4.717  0.00  0.00    +0.079 C 
ATOM      8  C   UNL     1     -35.273  23.801   3.886  0.00  0.00    +0.081 C 
ATOM      9  C   UNL     1     -33.769  25.629   3.403  0.00  0.00    +0.041 C 
ATOM     10  C   UNL     1     -34.710  25.390   5.615  0.00  0.00    +0.011 C 
ATOM     11  C   UNL     1     -34.458  24.489   2.988  0.00  0.00    +0.145 C 
ATOM     12  C   UNL     1     -35.399  24.251   5.200  0.00  0.00    +0.007 C 
BRANCH   8  15
ATOM     13  O   UNL     1     -35.596  21.480   3.789  0.00  0.00    -0.270 OA
ATOM     14  N   UNL     1     -37.142  22.809   2.684  0.00  0.00    -0.300 N 
ATOM     15  C   ACE A   0     -36.007  22.585   3.447  0.00  0.00    +0.248 C 
ATOM     16  H   UNL     1     -37.389  23.735   2.462  0.00  0.00    +0.150 HD
BRANCH  14  17
ATOM     17  CA  UNL     1     -37.976  21.731   2.203  0.00  0.00    +0.101 C 
ATOM     18  CB  UNL     1     -37.493  21.271   0.834  0.00  0.00    +0.024 C 
BRANCH  17  19
ATOM     19  C   UNL     1     -39.438  22.169   2.152  0.00  0.00    +0.157 C 
BRANCH  19  20
ATOM     20  O   UNL     1     -40.275  21.018   2.141  0.00  0.00    -0.380 OA
ATOM     21  H   UNL     1     -41.198  21.290   2.015  0.00  0.00    +0.211 HD
ENDBRANCH  19  20
ENDBRANCH  17  19
ENDBRANCH  14  17
ENDBRANCH   8  15
ENDBRANCH   5   7
BRANCH   4  22
ATOM     22  C   UNL     1     -31.719  30.435   4.765  0.00  0.00    +0.257 C 
BRANCH  22  23
ATOM     23  C   UNL     1     -30.278  30.676   5.290  0.00  0.00    +0.055 C 
ATOM     24  C   UNL     1     -29.218  30.432   4.227  0.00  0.00    +0.004 C 
ENDBRANCH  22  23
BRANCH  22  25
ATOM     25  O   UNL     1     -31.696  30.631   3.336  0.00  0.00    -0.468 OA
BRANCH  25  31
ATOM     26  C   UNL     1     -33.715  33.973   1.925  0.00  0.00    +0.035 C 
ATOM     27  C   UNL     1     -34.332  32.722   1.899  0.00  0.00    +0.006 C 
ATOM     28  C   UNL     1     -32.419  34.101   2.426  0.00  0.00    +0.006 C 
ATOM     29  C   UNL     1     -33.653  31.599   2.373  0.00  0.00    +0.037 C 
ATOM     30  C   UNL     1     -31.741  32.978   2.901  0.00  0.00    +0.037 C 
ATOM     31  C   UNL     1     -32.358  31.728   2.874  0.00  0.00    +0.139 C 
BRANCH  26  33
ATOM     32  O   UNL     1     -33.841  36.216   1.200  0.00  0.00    -0.291 OA
ATOM     33  C   UNL     1     -34.422  35.143   1.430  0.00  0.00    +0.173 C 
BRANCH  33  34
ATOM     34  C   UNL     1     -35.910  35.100   1.198  0.00  0.00    +0.062 C 
ATOM     35  C   UNL     1     -36.591  36.293   0.594  0.00  0.00    +0.008 C 
ATOM     36  C   UNL     1     -36.429  35.035  -0.209  0.00  0.00    +0.008 C 
ENDBRANCH  33  34
ENDBRANCH  26  33
ENDBRANCH  25  31
ENDBRANCH  22  25
ENDBRANCH   4  22
TORSDOF 11
ENDMDL
MODEL 8
REMARK VINA RESULT:      -6.7      5.703     11.712
REMARK  Name = 56959560
REMARK  11 active torsions:
REMARK  status: ('A' for Active; 'I' for Inactive)
REMARK    1  A    between atoms: C_4  and  C_22
REMARK    2  A    between atoms: C_5  and  C_7
REMARK    3  A    between atoms: C_8  and  C_15
REMARK    4  A    between atoms: N_14  and  CA_17
REMARK    5  A    between atoms: CA_17  and  C_19
REMARK    6  A    between atoms: C_19  and  O_20
REMARK    7  A    between atoms: C_22  and  C_23
REMARK    8  A    between atoms: C_22  and  O_25
REMARK    9  A    between atoms: O_25  and  C_31
REMARK   10  A    between atoms: C_26  and  C_33
REMARK   11  A    between atoms: C_33  and  C_34
REMARK                            x       y       z     vdW  Elec       q    Type
REMARK                         _______ _______ _______ _____ _____    ______ ____
ROOT
ATOM      1  O   UNL     1     -32.750  30.260   4.099  0.00  0.00    -0.312 OA
ATOM      2  N   UNL     1     -34.257  29.451   2.654  0.00  0.00    -0.309 NA
ATOM      3  N   UNL     1     -32.947  28.919   4.452  0.00  0.00    -0.007 NA
ATOM      4  C   UNL     1     -33.559  30.491   3.032  0.00  0.00    +0.333 C 
ATOM      5  C   UNL     1     -33.848  28.511   3.554  0.00  0.00    +0.127 C 
ENDROOT
BRANCH   5   7
ATOM      6  F   UNL     1     -33.775  23.968   5.148  0.00  0.00    -0.204 F 
ATOM      7  C   UNL     1     -34.363  27.170   3.530  0.00  0.00    +0.079 C 
ATOM      8  C   UNL     1     -35.361  24.566   3.484  0.00  0.00    +0.081 C 
ATOM      9  C   UNL     1     -33.811  26.197   4.364  0.00  0.00    +0.041 C 
ATOM     10  C   UNL     1     -35.413  26.840   2.674  0.00  0.00    +0.011 C 
ATOM     11  C   UNL     1     -34.311  24.895   4.341  0.00  0.00    +0.145 C 
ATOM     12  C   UNL     1     -35.913  25.538   2.651  0.00  0.00    +0.007 C 
BRANCH   8  15
ATOM     13  O   UNL     1     -36.801  22.872   4.230  0.00  0.00    -0.270 OA
ATOM     14  N   UNL     1     -35.329  22.331   2.522  0.00  0.00    -0.300 N 
ATOM     15  C   ACE A   0     -35.896  23.179   3.458  0.00  0.00    +0.248 C 
ATOM     16  H   UNL     1     -34.607  22.673   1.948  0.00  0.00    +0.150 HD
BRANCH  14  17
ATOM     17  CA  UNL     1     -35.758  20.961   2.357  0.00  0.00    +0.101 C 
ATOM     18  CB  UNL     1     -34.623  20.126   1.781  0.00  0.00    +0.024 C 
BRANCH  17  19
ATOM     19  C   UNL     1     -36.998  20.892   1.469  0.00  0.00    +0.157 C 
BRANCH  19  20
ATOM     20  O   UNL     1     -38.157  20.765   2.285  0.00  0.00    -0.380 OA
ATOM     21  H   UNL     1     -37.994  20.104   2.977  0.00  0.00    +0.211 HD
ENDBRANCH  19  20
ENDBRANCH  17  19
ENDBRANCH  14  17
ENDBRANCH   8  15
ENDBRANCH   5   7
BRANCH   4  22
ATOM     22  C   UNL     1     -33.529  31.849   2.470  0.00  0.00    +0.257 C 
BRANCH  22  23
ATOM     23  C   UNL     1     -32.114  32.411   2.170  0.00  0.00    +0.055 C 
ATOM     24  C   UNL     1     -31.903  33.805   2.741  0.00  0.00    +0.004 C 
ENDBRANCH  22  23
BRANCH  22  25
ATOM     25  O   UNL     1     -34.274  31.876   1.235  0.00  0.00    -0.468 OA
BRANCH  25  31
ATOM     26  C   UNL     1     -38.080  33.521   1.444  0.00  0.00    +0.035 C 
ATOM     27  C   UNL     1     -36.980  34.339   1.187  0.00  0.00    +0.006 C 
ATOM     28  C   UNL     1     -37.902  32.150   1.630  0.00  0.00    +0.006 C 
ATOM     29  C   UNL     1     -35.701  33.786   1.117  0.00  0.00    +0.037 C 
ATOM     30  C   UNL     1     -36.623  31.598   1.559  0.00  0.00    +0.037 C 
ATOM     31  C   UNL     1     -35.523  32.416   1.303  0.00  0.00    +0.139 C 
BRANCH  26  33
ATOM     32  O   UNL     1     -40.429  33.449   1.221  0.00  0.00    -0.291 OA
ATOM     33  C   UNL     1     -39.413  34.097   1.518  0.00  0.00    +0.173 C 
BRANCH  33  34
ATOM     34  C   UNL     1     -39.608  35.530   1.942  0.00  0.00    +0.062 C 
ATOM     35  C   UNL     1     -40.850  35.908   2.695  0.00  0.00    +0.008 C 
ATOM     36  C   UNL     1     -39.525  35.879   3.399  0.00  0.00    +0.008 C 
ENDBRANCH  33  34
ENDBRANCH  26  33
ENDBRANCH  25  31
ENDBRANCH  22  25
ENDBRANCH   4  22
TORSDOF 11
ENDMDL
MODEL 9
REMARK VINA RESULT:      -6.7      3.453      7.272
REMARK  Name = 56959560
REMARK  11 active torsions:
REMARK  status: ('A' for Active; 'I' for Inactive)
REMARK    1  A    between atoms: C_4  and  C_22
REMARK    2  A    between atoms: C_5  and  C_7
REMARK    3  A    between atoms: C_8  and  C_15
REMARK    4  A    between atoms: N_14  and  CA_17
REMARK    5  A    between atoms: CA_17  and  C_19
REMARK    6  A    between atoms: C_19  and  O_20
REMARK    7  A    between atoms: C_22  and  C_23
REMARK    8  A    between atoms: C_22  and  O_25
REMARK    9  A    between atoms: O_25  and  C_31
REMARK   10  A    between atoms: C_26  and  C_33
REMARK   11  A    between atoms: C_33  and  C_34
REMARK                            x       y       z     vdW  Elec       q    Type
REMARK                         _______ _______ _______ _____ _____    ______ ____
ROOT
ATOM      1  O   UNL     1     -36.587  23.668   4.761  0.00  0.00    -0.312 OA
ATOM      2  N   UNL     1     -35.368  24.989   3.425  0.00  0.00    -0.309 NA
ATOM      3  N   UNL     1     -35.773  24.432   5.607  0.00  0.00    -0.007 NA
ATOM      4  C   UNL     1     -36.285  24.058   3.494  0.00  0.00    +0.333 C 
ATOM      5  C   UNL     1     -35.084  25.186   4.746  0.00  0.00    +0.127 C 
ENDROOT
BRANCH   5   7
ATOM      6  F   UNL     1     -31.973  28.720   3.739  0.00  0.00    -0.204 F 
ATOM      7  C   UNL     1     -34.103  26.145   5.170  0.00  0.00    +0.079 C 
ATOM      8  C   UNL     1     -32.196  28.007   5.993  0.00  0.00    +0.081 C 
ATOM      9  C   UNL     1     -33.498  26.984   4.234  0.00  0.00    +0.041 C 
ATOM     10  C   UNL     1     -33.752  26.236   6.517  0.00  0.00    +0.011 C 
ATOM     11  C   UNL     1     -32.545  27.916   4.646  0.00  0.00    +0.145 C 
ATOM     12  C   UNL     1     -32.799  27.168   6.929  0.00  0.00    +0.007 C 
BRANCH   8  15
ATOM     13  O   UNL     1     -31.554  30.037   6.976  0.00  0.00    -0.270 OA
ATOM     14  N   UNL     1     -29.859  28.649   6.215  0.00  0.00    -0.300 N 
ATOM     15  C   ACE A   0     -31.181  28.999   6.435  0.00  0.00    +0.248 C 
ATOM     16  H   UNL     1     -29.663  27.793   5.772  0.00  0.00    +0.150 HD
BRANCH  14  17
ATOM     17  CA  UNL     1     -28.757  29.497   6.611  0.00  0.00    +0.101 C 
ATOM     18  CB  UNL     1     -27.800  29.686   5.442  0.00  0.00    +0.024 C 
BRANCH  17  19
ATOM     19  C   UNL     1     -28.038  28.908   7.822  0.00  0.00    +0.157 C 
BRANCH  19  20
ATOM     20  O   UNL     1     -28.463  29.584   8.999  0.00  0.00    -0.380 OA
ATOM     21  H   UNL     1     -29.183  29.085   9.417  0.00  0.00    +0.211 HD
ENDBRANCH  19  20
ENDBRANCH  17  19
ENDBRANCH  14  17
ENDBRANCH   8  15
ENDBRANCH   5   7
BRANCH   4  22
ATOM     22  C   UNL     1     -37.021  23.391   2.411  0.00  0.00    +0.257 C 
BRANCH  22  23
ATOM     23  C   UNL     1     -36.334  22.130   1.823  0.00  0.00    +0.055 C 
ATOM     24  C   UNL     1     -35.540  21.355   2.864  0.00  0.00    +0.004 C 
ENDBRANCH  22  23
BRANCH  22  25
ATOM     25  O   UNL     1     -38.323  22.991   2.887  0.00  0.00    -0.468 OA
BRANCH  25  31
ATOM     26  C   UNL     1     -41.478  25.492   1.875  0.00  0.00    +0.035 C 
ATOM     27  C   UNL     1     -40.719  25.753   3.016  0.00  0.00    +0.006 C 
ATOM     28  C   UNL     1     -41.177  24.391   1.074  0.00  0.00    +0.006 C 
ATOM     29  C   UNL     1     -39.659  24.913   3.356  0.00  0.00    +0.037 C 
ATOM     30  C   UNL     1     -40.116  23.551   1.414  0.00  0.00    +0.037 C 
ATOM     31  C   UNL     1     -39.358  23.812   2.555  0.00  0.00    +0.139 C 
BRANCH  26  33
ATOM     32  O   UNL     1     -42.986  26.482   0.353  0.00  0.00    -0.291 OA
ATOM     33  C   UNL     1     -42.584  26.367   1.521  0.00  0.00    +0.173 C 
BRANCH  33  34
ATOM     34  C   UNL     1     -43.276  27.195   2.573  0.00  0.00    +0.062 C 
ATOM     35  C   UNL     1     -44.701  27.611   2.358  0.00  0.00    +0.008 C 
ATOM     36  C   UNL     1     -44.371  26.573   3.390  0.00  0.00    +0.008 C 
ENDBRANCH  33  34
ENDBRANCH  26  33
ENDBRANCH  25  31
ENDBRANCH  22  25
ENDBRANCH   4  22
TORSDOF 11
ENDMDL
