MODEL 1
REMARK VINA RESULT:      -6.9      0.000      0.000
REMARK  Name = 53344588
REMARK  14 active torsions:
REMARK  status: ('A' for Active; 'I' for Inactive)
REMARK    1  A    between atoms: C_1  and  C_3
REMARK    2  A    between atoms: C_1  and  C_16
REMARK    3  A    between atoms: C_1  and  O_32
REMARK    4  A    between atoms: C_5  and  O_9
REMARK    5  A    between atoms: C_6  and  O_11
REMARK    6  A    between atoms: C_7  and  C_13
REMARK    7  A    between atoms: C_13  and  O_14
REMARK    8  A    between atoms: C_17  and  C_19
REMARK    9  A    between atoms: C_19  and  O_20
REMARK   10  A    between atoms: C_19  and  C_22
REMARK   11  A    between atoms: C_22  and  C_23
REMARK   12  A    between atoms: C_24  and  C_26
REMARK   13  A    between atoms: C_26  and  C_27
REMARK   14  A    between atoms: C_27  and  C_28
REMARK                            x       y       z     vdW  Elec       q    Type
REMARK                         _______ _______ _______ _____ _____    ______ ____
ROOT
ATOM      1  C   UNL     1     -35.645  25.620   5.601  0.00  0.00    +0.162 C 
ENDROOT
BRANCH   1   3
ATOM      2  O   UNL     1     -33.221  25.499   5.711  0.00  0.00    -0.348 OA
ATOM      3  C   UNL     1     -34.340  26.305   5.314  0.00  0.00    +0.177 C 
ATOM      4  C   UNL     1     -33.459  26.698   6.464  0.00  0.00    +0.176 C 
ATOM      5  C   UNL     1     -34.174  26.972   3.983  0.00  0.00    +0.162 C 
ATOM      6  C   UNL     1     -32.415  27.762   6.292  0.00  0.00    +0.160 C 
ATOM      7  C   UNL     1     -32.255  28.329   4.896  0.00  0.00    +0.012 C 
ATOM      8  C   UNL     1     -33.053  27.967   3.875  0.00  0.00    +0.001 C 
BRANCH   5   9
ATOM      9  O   UNL     1     -35.371  27.677   3.645  0.00  0.00    -0.377 OA
ATOM     10  H   UNL     1     -36.078  27.042   3.453  0.00  0.00    +0.211 HD
ENDBRANCH   5   9
BRANCH   6  11
ATOM     11  O   UNL     1     -31.158  27.239   6.724  0.00  0.00    -0.378 OA
ATOM     12  H   UNL     1     -31.192  27.063   7.678  0.00  0.00    +0.211 HD
ENDBRANCH   6  11
BRANCH   7  13
ATOM     13  C   UNL     1     -31.174  29.358   4.709  0.00  0.00    +0.162 C 
BRANCH  13  14
ATOM     14  O   UNL     1     -30.948  30.035   5.929  0.00  0.00    -0.377 OA
ATOM     15  H   UNL     1     -31.766  30.466   6.218  0.00  0.00    +0.211 HD
ENDBRANCH  13  14
ENDBRANCH   7  13
ENDBRANCH   1   3
BRANCH   1  16
ATOM     16  C   UNL     1     -35.990  24.528   4.622  0.00  0.00    -0.001 C 
ATOM     17  C   UNL     1     -35.817  23.198   4.779  0.00  0.00    -0.019 C 
ATOM     18  C   UNL     1     -35.222  22.591   6.027  0.00  0.00    +0.029 C 
BRANCH  17  19
ATOM     19  C   UNL     1     -36.220  22.165   3.731  0.00  0.00    +0.133 C 
BRANCH  19  20
ATOM     20  O   UNL     1     -37.532  22.520   3.284  0.00  0.00    -0.380 OA
ATOM     21  H   UNL     1     -37.961  21.745   2.889  0.00  0.00    +0.211 HD
ENDBRANCH  19  20
BRANCH  19  22
ATOM     22  C   UNL     1     -35.306  22.014   2.497  0.00  0.00    +0.059 C 
BRANCH  22  23
ATOM     23  C   UNL     1     -34.911  20.577   2.256  0.00  0.00    -0.032 C 
ATOM     24  C   UNL     1     -34.066  20.096   1.323  0.00  0.00    -0.048 C 
ATOM     25  C   UNL     1     -33.392  21.041   0.360  0.00  0.00    +0.026 C 
BRANCH  24  26
ATOM     26  C   UNL     1     -33.749  18.631   1.108  0.00  0.00    +0.026 C 
BRANCH  26  27
ATOM     27  C   UNL     1     -32.623  18.375   0.098  0.00  0.00    +0.030 C 
BRANCH  27  28
ATOM     28  C   UNL     1     -31.372  17.846   0.742  0.00  0.00    -0.034 C 
ATOM     29  C   UNL     1     -30.103  18.253   0.553  0.00  0.00    -0.048 C 
ATOM     30  C   UNL     1     -29.677  19.382  -0.343  0.00  0.00    +0.026 C 
ATOM     31  C   UNL     1     -28.970  17.574   1.275  0.00  0.00    +0.026 C 
ENDBRANCH  27  28
ENDBRANCH  26  27
ENDBRANCH  24  26
ENDBRANCH  22  23
ENDBRANCH  19  22
ENDBRANCH  17  19
ENDBRANCH   1  16
BRANCH   1  32
ATOM     32  O   UNL     1     -36.698  26.588   5.549  0.00  0.00    -0.377 OA
ATOM     33  H   UNL     1     -37.473  26.249   6.023  0.00  0.00    +0.211 HD
ENDBRANCH   1  32
TORSDOF 14
ENDMDL
MODEL 2
REMARK VINA RESULT:      -6.7      0.972      1.347
REMARK  Name = 53344588
REMARK  14 active torsions:
REMARK  status: ('A' for Active; 'I' for Inactive)
REMARK    1  A    between atoms: C_1  and  C_3
REMARK    2  A    between atoms: C_1  and  C_16
REMARK    3  A    between atoms: C_1  and  O_32
REMARK    4  A    between atoms: C_5  and  O_9
REMARK    5  A    between atoms: C_6  and  O_11
REMARK    6  A    between atoms: C_7  and  C_13
REMARK    7  A    between atoms: C_13  and  O_14
REMARK    8  A    between atoms: C_17  and  C_19
REMARK    9  A    between atoms: C_19  and  O_20
REMARK   10  A    between atoms: C_19  and  C_22
REMARK   11  A    between atoms: C_22  and  C_23
REMARK   12  A    between atoms: C_24  and  C_26
REMARK   13  A    between atoms: C_26  and  C_27
REMARK   14  A    between atoms: C_27  and  C_28
REMARK                            x       y       z     vdW  Elec       q    Type
REMARK                         _______ _______ _______ _____ _____    ______ ____
ROOT
ATOM      1  C   UNL     1     -35.587  25.678   5.602  0.00  0.00    +0.162 C 
ENDROOT
BRANCH   1   3
ATOM      2  O   UNL     1     -33.163  25.555   5.680  0.00  0.00    -0.348 OA
ATOM      3  C   UNL     1     -34.287  26.368   5.311  0.00  0.00    +0.177 C 
ATOM      4  C   UNL     1     -33.391  26.740   6.458  0.00  0.00    +0.176 C 
ATOM      5  C   UNL     1     -34.138  27.059   3.991  0.00  0.00    +0.162 C 
ATOM      6  C   UNL     1     -32.350  27.808   6.292  0.00  0.00    +0.160 C 
ATOM      7  C   UNL     1     -32.207  28.401   4.905  0.00  0.00    +0.012 C 
ATOM      8  C   UNL     1     -33.018  28.057   3.888  0.00  0.00    +0.001 C 
BRANCH   5   9
ATOM      9  O   UNL     1     -35.338  27.770   3.681  0.00  0.00    -0.377 OA
ATOM     10  H   UNL     1     -36.103  27.190   3.820  0.00  0.00    +0.211 HD
ENDBRANCH   5   9
BRANCH   6  11
ATOM     11  O   UNL     1     -31.087  27.278   6.699  0.00  0.00    -0.378 OA
ATOM     12  H   UNL     1     -30.978  26.386   6.333  0.00  0.00    +0.211 HD
ENDBRANCH   6  11
BRANCH   7  13
ATOM     13  C   UNL     1     -31.130  29.434   4.724  0.00  0.00    +0.162 C 
BRANCH  13  14
ATOM     14  O   UNL     1     -30.893  30.093   5.952  0.00  0.00    -0.377 OA
ATOM     15  H   UNL     1     -30.656  29.441   6.629  0.00  0.00    +0.211 HD
ENDBRANCH  13  14
ENDBRANCH   7  13
ENDBRANCH   1   3
BRANCH   1  16
ATOM     16  C   UNL     1     -35.927  24.579   4.628  0.00  0.00    -0.001 C 
ATOM     17  C   UNL     1     -35.785  23.249   4.806  0.00  0.00    -0.019 C 
ATOM     18  C   UNL     1     -35.236  22.647   6.078  0.00  0.00    +0.029 C 
BRANCH  17  19
ATOM     19  C   UNL     1     -36.179  22.209   3.761  0.00  0.00    +0.133 C 
BRANCH  19  20
ATOM     20  O   UNL     1     -37.520  22.513   3.362  0.00  0.00    -0.380 OA
ATOM     21  H   UNL     1     -38.135  21.916   3.816  0.00  0.00    +0.211 HD
ENDBRANCH  19  20
BRANCH  19  22
ATOM     22  C   UNL     1     -35.302  22.110   2.495  0.00  0.00    +0.059 C 
BRANCH  22  23
ATOM     23  C   UNL     1     -35.321  20.723   1.900  0.00  0.00    -0.032 C 
ATOM     24  C   UNL     1     -35.943  20.312   0.777  0.00  0.00    -0.048 C 
ATOM     25  C   UNL     1     -36.740  21.295  -0.044  0.00  0.00    +0.026 C 
BRANCH  24  26
ATOM     26  C   UNL     1     -35.958  18.888   0.262  0.00  0.00    +0.026 C 
BRANCH  26  27
ATOM     27  C   UNL     1     -34.771  18.539  -0.646  0.00  0.00    +0.030 C 
BRANCH  27  28
ATOM     28  C   UNL     1     -33.587  18.016   0.119  0.00  0.00    -0.034 C 
ATOM     29  C   UNL     1     -32.468  18.676   0.474  0.00  0.00    -0.048 C 
ATOM     30  C   UNL     1     -32.191  20.127   0.198  0.00  0.00    +0.026 C 
ATOM     31  C   UNL     1     -31.371  17.967   1.221  0.00  0.00    +0.026 C 
ENDBRANCH  27  28
ENDBRANCH  26  27
ENDBRANCH  24  26
ENDBRANCH  22  23
ENDBRANCH  19  22
ENDBRANCH  17  19
ENDBRANCH   1  16
BRANCH   1  32
ATOM     32  O   UNL     1     -36.646  26.639   5.546  0.00  0.00    -0.377 OA
ATOM     33  H   UNL     1     -37.467  26.237   5.870  0.00  0.00    +0.211 HD
ENDBRANCH   1  32
TORSDOF 14
ENDMDL
MODEL 3
REMARK VINA RESULT:      -6.7      1.499      2.685
REMARK  Name = 53344588
REMARK  14 active torsions:
REMARK  status: ('A' for Active; 'I' for Inactive)
REMARK    1  A    between atoms: C_1  and  C_3
REMARK    2  A    between atoms: C_1  and  C_16
REMARK    3  A    between atoms: C_1  and  O_32
REMARK    4  A    between atoms: C_5  and  O_9
REMARK    5  A    between atoms: C_6  and  O_11
REMARK    6  A    between atoms: C_7  and  C_13
REMARK    7  A    between atoms: C_13  and  O_14
REMARK    8  A    between atoms: C_17  and  C_19
REMARK    9  A    between atoms: C_19  and  O_20
REMARK   10  A    between atoms: C_19  and  C_22
REMARK   11  A    between atoms: C_22  and  C_23
REMARK   12  A    between atoms: C_24  and  C_26
REMARK   13  A    between atoms: C_26  and  C_27
REMARK   14  A    between atoms: C_27  and  C_28
REMARK                            x       y       z     vdW  Elec       q    Type
REMARK                         _______ _______ _______ _____ _____    ______ ____
ROOT
ATOM      1  C   UNL     1     -35.643  25.623   5.596  0.00  0.00    +0.162 C 
ENDROOT
BRANCH   1   3
ATOM      2  O   UNL     1     -33.219  25.501   5.708  0.00  0.00    -0.348 OA
ATOM      3  C   UNL     1     -34.337  26.307   5.309  0.00  0.00    +0.177 C 
ATOM      4  C   UNL     1     -33.457  26.700   6.460  0.00  0.00    +0.176 C 
ATOM      5  C   UNL     1     -34.170  26.973   3.979  0.00  0.00    +0.162 C 
ATOM      6  C   UNL     1     -32.413  27.763   6.289  0.00  0.00    +0.160 C 
ATOM      7  C   UNL     1     -32.251  28.330   4.893  0.00  0.00    +0.012 C 
ATOM      8  C   UNL     1     -33.048  27.969   3.872  0.00  0.00    +0.001 C 
BRANCH   5   9
ATOM      9  O   UNL     1     -35.366  27.680   3.639  0.00  0.00    -0.377 OA
ATOM     10  H   UNL     1     -35.136  28.548   3.274  0.00  0.00    +0.211 HD
ENDBRANCH   5   9
BRANCH   6  11
ATOM     11  O   UNL     1     -31.156  27.240   6.722  0.00  0.00    -0.378 OA
ATOM     12  H   UNL     1     -30.496  27.951   6.731  0.00  0.00    +0.211 HD
ENDBRANCH   6  11
BRANCH   7  13
ATOM     13  C   UNL     1     -31.170  29.359   4.707  0.00  0.00    +0.162 C 
BRANCH  13  14
ATOM     14  O   UNL     1     -30.951  30.043   5.925  0.00  0.00    -0.377 OA
ATOM     15  H   UNL     1     -31.750  30.535   6.168  0.00  0.00    +0.211 HD
ENDBRANCH  13  14
ENDBRANCH   7  13
ENDBRANCH   1   3
BRANCH   1  16
ATOM     16  C   UNL     1     -35.989  24.533   4.615  0.00  0.00    -0.001 C 
ATOM     17  C   UNL     1     -35.811  23.204   4.766  0.00  0.00    -0.019 C 
ATOM     18  C   UNL     1     -35.206  22.594   6.008  0.00  0.00    +0.029 C 
BRANCH  17  19
ATOM     19  C   UNL     1     -36.215  22.172   3.716  0.00  0.00    +0.133 C 
BRANCH  19  20
ATOM     20  O   UNL     1     -37.538  22.515   3.289  0.00  0.00    -0.380 OA
ATOM     21  H   UNL     1     -37.587  22.472   2.321  0.00  0.00    +0.211 HD
ENDBRANCH  19  20
BRANCH  19  22
ATOM     22  C   UNL     1     -35.317  22.041   2.468  0.00  0.00    +0.059 C 
BRANCH  22  23
ATOM     23  C   UNL     1     -34.891  20.614   2.224  0.00  0.00    -0.032 C 
ATOM     24  C   UNL     1     -34.051  20.151   1.278  0.00  0.00    -0.048 C 
ATOM     25  C   UNL     1     -33.417  21.109   0.301  0.00  0.00    +0.026 C 
BRANCH  24  26
ATOM     26  C   UNL     1     -33.702  18.693   1.061  0.00  0.00    +0.026 C 
BRANCH  26  27
ATOM     27  C   UNL     1     -34.170  18.132  -0.288  0.00  0.00    +0.030 C 
BRANCH  27  28
ATOM     28  C   UNL     1     -35.634  17.786  -0.298  0.00  0.00    -0.034 C 
ATOM     29  C   UNL     1     -36.657  18.515  -0.783  0.00  0.00    -0.048 C 
ATOM     30  C   UNL     1     -36.528  19.846  -1.466  0.00  0.00    +0.026 C 
ATOM     31  C   UNL     1     -38.070  18.007  -0.676  0.00  0.00    +0.026 C 
ENDBRANCH  27  28
ENDBRANCH  26  27
ENDBRANCH  24  26
ENDBRANCH  22  23
ENDBRANCH  19  22
ENDBRANCH  17  19
ENDBRANCH   1  16
BRANCH   1  32
ATOM     32  O   UNL     1     -36.695  26.592   5.546  0.00  0.00    -0.377 OA
ATOM     33  H   UNL     1     -37.536  26.168   5.777  0.00  0.00    +0.211 HD
ENDBRANCH   1  32
TORSDOF 14
ENDMDL
MODEL 4
REMARK VINA RESULT:      -6.5      3.004      5.006
REMARK  Name = 53344588
REMARK  14 active torsions:
REMARK  status: ('A' for Active; 'I' for Inactive)
REMARK    1  A    between atoms: C_1  and  C_3
REMARK    2  A    between atoms: C_1  and  C_16
REMARK    3  A    between atoms: C_1  and  O_32
REMARK    4  A    between atoms: C_5  and  O_9
REMARK    5  A    between atoms: C_6  and  O_11
REMARK    6  A    between atoms: C_7  and  C_13
REMARK    7  A    between atoms: C_13  and  O_14
REMARK    8  A    between atoms: C_17  and  C_19
REMARK    9  A    between atoms: C_19  and  O_20
REMARK   10  A    between atoms: C_19  and  C_22
REMARK   11  A    between atoms: C_22  and  C_23
REMARK   12  A    between atoms: C_24  and  C_26
REMARK   13  A    between atoms: C_26  and  C_27
REMARK   14  A    between atoms: C_27  and  C_28
REMARK                            x       y       z     vdW  Elec       q    Type
REMARK                         _______ _______ _______ _____ _____    ______ ____
ROOT
ATOM      1  C   UNL     1     -35.600  25.669   5.581  0.00  0.00    +0.162 C 
ENDROOT
BRANCH   1   3
ATOM      2  O   UNL     1     -33.177  25.538   5.683  0.00  0.00    -0.348 OA
ATOM      3  C   UNL     1     -34.295  26.361   5.318  0.00  0.00    +0.177 C 
ATOM      4  C   UNL     1     -33.411  26.707   6.482  0.00  0.00    +0.176 C 
ATOM      5  C   UNL     1     -34.129  27.079   4.015  0.00  0.00    +0.162 C 
ATOM      6  C   UNL     1     -32.366  27.775   6.350  0.00  0.00    +0.160 C 
ATOM      7  C   UNL     1     -32.206  28.396   4.978  0.00  0.00    +0.012 C 
ATOM      8  C   UNL     1     -33.006  28.076   3.945  0.00  0.00    +0.001 C 
BRANCH   5   9
ATOM      9  O   UNL     1     -35.325  27.800   3.706  0.00  0.00    -0.377 OA
ATOM     10  H   UNL     1     -35.239  28.715   4.016  0.00  0.00    +0.211 HD
ENDBRANCH   5   9
BRANCH   6  11
ATOM     11  O   UNL     1     -31.109  27.233   6.760  0.00  0.00    -0.378 OA
ATOM     12  H   UNL     1     -30.695  26.776   6.012  0.00  0.00    +0.211 HD
ENDBRANCH   6  11
BRANCH   7  13
ATOM     13  C   UNL     1     -31.123  29.430   4.830  0.00  0.00    +0.162 C 
BRANCH  13  14
ATOM     14  O   UNL     1     -30.888  30.051   6.077  0.00  0.00    -0.377 OA
ATOM     15  H   UNL     1     -30.785  29.374   6.763  0.00  0.00    +0.211 HD
ENDBRANCH  13  14
ENDBRANCH   7  13
ENDBRANCH   1   3
BRANCH   1  16
ATOM     16  C   UNL     1     -35.920  24.575   4.595  0.00  0.00    -0.001 C 
ATOM     17  C   UNL     1     -35.754  23.246   4.757  0.00  0.00    -0.019 C 
ATOM     18  C   UNL     1     -35.192  22.639   6.021  0.00  0.00    +0.029 C 
BRANCH  17  19
ATOM     19  C   UNL     1     -36.129  22.211   3.700  0.00  0.00    +0.133 C 
BRANCH  19  20
ATOM     20  O   UNL     1     -37.485  22.478   3.325  0.00  0.00    -0.380 OA
ATOM     21  H   UNL     1     -37.534  23.338   2.879  0.00  0.00    +0.211 HD
ENDBRANCH  19  20
BRANCH  19  22
ATOM     22  C   UNL     1     -35.269  22.160   2.420  0.00  0.00    +0.059 C 
BRANCH  22  23
ATOM     23  C   UNL     1     -35.826  23.040   1.327  0.00  0.00    -0.032 C 
ATOM     24  C   UNL     1     -35.283  24.160   0.810  0.00  0.00    -0.048 C 
ATOM     25  C   UNL     1     -33.961  24.665   1.329  0.00  0.00    +0.026 C 
BRANCH  24  26
ATOM     26  C   UNL     1     -35.923  25.022  -0.259  0.00  0.00    +0.026 C 
BRANCH  26  27
ATOM     27  C   UNL     1     -36.523  26.331   0.270  0.00  0.00    +0.030 C 
BRANCH  27  28
ATOM     28  C   UNL     1     -37.338  26.136   1.519  0.00  0.00    -0.034 C 
ATOM     29  C   UNL     1     -38.592  25.658   1.626  0.00  0.00    -0.048 C 
ATOM     30  C   UNL     1     -39.439  25.175   0.484  0.00  0.00    +0.026 C 
ATOM     31  C   UNL     1     -39.256  25.561   2.974  0.00  0.00    +0.026 C 
ENDBRANCH  27  28
ENDBRANCH  26  27
ENDBRANCH  24  26
ENDBRANCH  22  23
ENDBRANCH  19  22
ENDBRANCH  17  19
ENDBRANCH   1  16
BRANCH   1  32
ATOM     32  O   UNL     1     -36.658  26.630   5.509  0.00  0.00    -0.377 OA
ATOM     33  H   UNL     1     -36.353  27.412   5.025  0.00  0.00    +0.211 HD
ENDBRANCH   1  32
TORSDOF 14
ENDMDL
MODEL 5
REMARK VINA RESULT:      -6.4      1.675      2.570
REMARK  Name = 53344588
REMARK  14 active torsions:
REMARK  status: ('A' for Active; 'I' for Inactive)
REMARK    1  A    between atoms: C_1  and  C_3
REMARK    2  A    between atoms: C_1  and  C_16
REMARK    3  A    between atoms: C_1  and  O_32
REMARK    4  A    between atoms: C_5  and  O_9
REMARK    5  A    between atoms: C_6  and  O_11
REMARK    6  A    between atoms: C_7  and  C_13
REMARK    7  A    between atoms: C_13  and  O_14
REMARK    8  A    between atoms: C_17  and  C_19
REMARK    9  A    between atoms: C_19  and  O_20
REMARK   10  A    between atoms: C_19  and  C_22
REMARK   11  A    between atoms: C_22  and  C_23
REMARK   12  A    between atoms: C_24  and  C_26
REMARK   13  A    between atoms: C_26  and  C_27
REMARK   14  A    between atoms: C_27  and  C_28
REMARK                            x       y       z     vdW  Elec       q    Type
REMARK                         _______ _______ _______ _____ _____    ______ ____
ROOT
ATOM      1  C   UNL     1     -36.093  24.222   4.653  0.00  0.00    +0.162 C 
ENDROOT
BRANCH   1   3
ATOM      2  O   UNL     1     -33.731  24.761   4.831  0.00  0.00    -0.348 OA
ATOM      3  C   UNL     1     -35.001  25.197   4.323  0.00  0.00    +0.177 C 
ATOM      4  C   UNL     1     -34.312  25.921   5.444  0.00  0.00    +0.176 C 
ATOM      5  C   UNL     1     -34.949  25.751   2.933  0.00  0.00    +0.162 C 
ATOM      6  C   UNL     1     -33.577  27.202   5.182  0.00  0.00    +0.160 C 
ATOM      7  C   UNL     1     -33.500  27.652   3.738  0.00  0.00    +0.012 C 
ATOM      8  C   UNL     1     -34.123  26.993   2.744  0.00  0.00    +0.001 C 
BRANCH   5   9
ATOM      9  O   UNL     1     -36.270  26.076   2.494  0.00  0.00    -0.377 OA
ATOM     10  H   UNL     1     -36.449  27.012   2.675  0.00  0.00    +0.211 HD
ENDBRANCH   5   9
BRANCH   6  11
ATOM     11  O   UNL     1     -32.250  27.077   5.697  0.00  0.00    -0.378 OA
ATOM     12  H   UNL     1     -32.134  27.689   6.441  0.00  0.00    +0.211 HD
ENDBRANCH   6  11
BRANCH   7  13
ATOM     13  C   UNL     1     -32.720  28.909   3.465  0.00  0.00    +0.162 C 
BRANCH  13  14
ATOM     14  O   UNL     1     -32.758  29.747   4.603  0.00  0.00    -0.377 OA
ATOM     15  H   UNL     1     -33.281  30.538   4.405  0.00  0.00    +0.211 HD
ENDBRANCH  13  14
ENDBRANCH   7  13
ENDBRANCH   1   3
BRANCH   1  16
ATOM     16  C   UNL     1     -36.158  23.040   3.722  0.00  0.00    -0.001 C 
ATOM     17  C   UNL     1     -35.700  21.790   3.945  0.00  0.00    -0.019 C 
ATOM     18  C   UNL     1     -35.022  21.384   5.232  0.00  0.00    +0.029 C 
BRANCH  17  19
ATOM     19  C   UNL     1     -35.831  20.649   2.940  0.00  0.00    +0.133 C 
BRANCH  19  20
ATOM     20  O   UNL     1     -37.180  20.674   2.462  0.00  0.00    -0.380 OA
ATOM     21  H   UNL     1     -37.550  19.778   2.487  0.00  0.00    +0.211 HD
ENDBRANCH  19  20
BRANCH  19  22
ATOM     22  C   UNL     1     -34.880  20.661   1.725  0.00  0.00    +0.059 C 
BRANCH  22  23
ATOM     23  C   UNL     1     -33.924  19.494   1.741  0.00  0.00    -0.032 C 
ATOM     24  C   UNL     1     -32.794  19.339   1.023  0.00  0.00    -0.048 C 
ATOM     25  C   UNL     1     -32.361  20.417   0.062  0.00  0.00    +0.026 C 
BRANCH  24  26
ATOM     26  C   UNL     1     -31.903  18.115   1.056  0.00  0.00    +0.026 C 
BRANCH  26  27
ATOM     27  C   UNL     1     -32.059  17.194  -0.161  0.00  0.00    +0.030 C 
BRANCH  27  28
ATOM     28  C   UNL     1     -33.227  16.256  -0.036  0.00  0.00    -0.034 C 
ATOM     29  C   UNL     1     -34.474  16.411  -0.519  0.00  0.00    -0.048 C 
ATOM     30  C   UNL     1     -34.949  17.576  -1.339  0.00  0.00    +0.026 C 
ATOM     31  C   UNL     1     -35.524  15.363  -0.264  0.00  0.00    +0.026 C 
ENDBRANCH  27  28
ENDBRANCH  26  27
ENDBRANCH  24  26
ENDBRANCH  22  23
ENDBRANCH  19  22
ENDBRANCH  17  19
ENDBRANCH   1  16
BRANCH   1  32
ATOM     32  O   UNL     1     -37.354  24.894   4.577  0.00  0.00    -0.377 OA
ATOM     33  H   UNL     1     -37.208  25.847   4.473  0.00  0.00    +0.211 HD
ENDBRANCH   1  32
TORSDOF 14
ENDMDL
MODEL 6
REMARK VINA RESULT:      -6.3      4.328      8.241
REMARK  Name = 53344588
REMARK  14 active torsions:
REMARK  status: ('A' for Active; 'I' for Inactive)
REMARK    1  A    between atoms: C_1  and  C_3
REMARK    2  A    between atoms: C_1  and  C_16
REMARK    3  A    between atoms: C_1  and  O_32
REMARK    4  A    between atoms: C_5  and  O_9
REMARK    5  A    between atoms: C_6  and  O_11
REMARK    6  A    between atoms: C_7  and  C_13
REMARK    7  A    between atoms: C_13  and  O_14
REMARK    8  A    between atoms: C_17  and  C_19
REMARK    9  A    between atoms: C_19  and  O_20
REMARK   10  A    between atoms: C_19  and  C_22
REMARK   11  A    between atoms: C_22  and  C_23
REMARK   12  A    between atoms: C_24  and  C_26
REMARK   13  A    between atoms: C_26  and  C_27
REMARK   14  A    between atoms: C_27  and  C_28
REMARK                            x       y       z     vdW  Elec       q    Type
REMARK                         _______ _______ _______ _____ _____    ______ ____
ROOT
ATOM      1  C   UNL     1     -36.314  26.590   2.489  0.00  0.00    +0.162 C 
ENDROOT
BRANCH   1   3
ATOM      2  O   UNL     1     -34.885  24.632   2.645  0.00  0.00    -0.348 OA
ATOM      3  C   UNL     1     -35.838  25.450   3.341  0.00  0.00    +0.177 C 
ATOM      4  C   UNL     1     -36.166  24.046   2.921  0.00  0.00    +0.176 C 
ATOM      5  C   UNL     1     -35.475  25.739   4.765  0.00  0.00    +0.162 C 
ATOM      6  C   UNL     1     -36.140  22.929   3.922  0.00  0.00    +0.160 C 
ATOM      7  C   UNL     1     -35.683  23.288   5.322  0.00  0.00    +0.012 C 
ATOM      8  C   UNL     1     -35.394  24.551   5.683  0.00  0.00    +0.001 C 
BRANCH   5   9
ATOM      9  O   UNL     1     -36.440  26.624   5.338  0.00  0.00    -0.377 OA
ATOM     10  H   UNL     1     -36.543  27.403   4.770  0.00  0.00    +0.211 HD
ENDBRANCH   5   9
BRANCH   6  11
ATOM     11  O   UNL     1     -35.303  21.886   3.418  0.00  0.00    -0.378 OA
ATOM     12  H   UNL     1     -35.755  21.034   3.515  0.00  0.00    +0.211 HD
ENDBRANCH   6  11
BRANCH   7  13
ATOM     13  C   UNL     1     -35.607  22.160   6.314  0.00  0.00    +0.162 C 
BRANCH  13  14
ATOM     14  O   UNL     1     -34.440  21.398   6.076  0.00  0.00    -0.377 OA
ATOM     15  H   UNL     1     -34.667  20.456   6.061  0.00  0.00    +0.211 HD
ENDBRANCH  13  14
ENDBRANCH   7  13
ENDBRANCH   1   3
BRANCH   1  16
ATOM     16  C   UNL     1     -35.618  27.896   2.773  0.00  0.00    -0.001 C 
ATOM     17  C   UNL     1     -35.632  29.016   2.020  0.00  0.00    -0.019 C 
ATOM     18  C   UNL     1     -36.391  29.119   0.719  0.00  0.00    +0.029 C 
BRANCH  17  19
ATOM     19  C   UNL     1     -34.906  30.303   2.405  0.00  0.00    +0.133 C 
BRANCH  19  20
ATOM     20  O   UNL     1     -35.386  30.674   3.702  0.00  0.00    -0.380 OA
ATOM     21  H   UNL     1     -35.303  31.634   3.815  0.00  0.00    +0.211 HD
ENDBRANCH  19  20
BRANCH  19  22
ATOM     22  C   UNL     1     -33.364  30.261   2.447  0.00  0.00    +0.059 C 
BRANCH  22  23
ATOM     23  C   UNL     1     -32.834  30.321   3.858  0.00  0.00    -0.032 C 
ATOM     24  C   UNL     1     -32.339  29.311   4.600  0.00  0.00    -0.048 C 
ATOM     25  C   UNL     1     -32.274  27.918   4.025  0.00  0.00    +0.026 C 
BRANCH  24  26
ATOM     26  C   UNL     1     -31.865  29.434   6.033  0.00  0.00    +0.026 C 
BRANCH  26  27
ATOM     27  C   UNL     1     -30.361  29.702   6.173  0.00  0.00    +0.030 C 
BRANCH  27  28
ATOM     28  C   UNL     1     -29.564  28.447   6.399  0.00  0.00    -0.034 C 
ATOM     29  C   UNL     1     -28.404  28.309   7.068  0.00  0.00    -0.048 C 
ATOM     30  C   UNL     1     -27.671  29.412   7.777  0.00  0.00    +0.026 C 
ATOM     31  C   UNL     1     -27.738  26.962   7.163  0.00  0.00    +0.026 C 
ENDBRANCH  27  28
ENDBRANCH  26  27
ENDBRANCH  24  26
ENDBRANCH  22  23
ENDBRANCH  19  22
ENDBRANCH  17  19
ENDBRANCH   1  16
BRANCH   1  32
ATOM     32  O   UNL     1     -37.711  26.793   2.724  0.00  0.00    -0.377 OA
ATOM     33  H   UNL     1     -37.951  26.429   3.590  0.00  0.00    +0.211 HD
ENDBRANCH   1  32
TORSDOF 14
ENDMDL
MODEL 7
REMARK VINA RESULT:      -6.3      4.997     10.644
REMARK  Name = 53344588
REMARK  14 active torsions:
REMARK  status: ('A' for Active; 'I' for Inactive)
REMARK    1  A    between atoms: C_1  and  C_3
REMARK    2  A    between atoms: C_1  and  C_16
REMARK    3  A    between atoms: C_1  and  O_32
REMARK    4  A    between atoms: C_5  and  O_9
REMARK    5  A    between atoms: C_6  and  O_11
REMARK    6  A    between atoms: C_7  and  C_13
REMARK    7  A    between atoms: C_13  and  O_14
REMARK    8  A    between atoms: C_17  and  C_19
REMARK    9  A    between atoms: C_19  and  O_20
REMARK   10  A    between atoms: C_19  and  C_22
REMARK   11  A    between atoms: C_22  and  C_23
REMARK   12  A    between atoms: C_24  and  C_26
REMARK   13  A    between atoms: C_26  and  C_27
REMARK   14  A    between atoms: C_27  and  C_28
REMARK                            x       y       z     vdW  Elec       q    Type
REMARK                         _______ _______ _______ _____ _____    ______ ____
ROOT
ATOM      1  C   UNL     1     -36.829  26.192   2.433  0.00  0.00    +0.162 C 
ENDROOT
BRANCH   1   3
ATOM      2  O   UNL     1     -35.229  24.364   2.458  0.00  0.00    -0.348 OA
ATOM      3  C   UNL     1     -36.125  25.153   3.256  0.00  0.00    +0.177 C 
ATOM      4  C   UNL     1     -36.393  23.702   2.975  0.00  0.00    +0.176 C 
ATOM      5  C   UNL     1     -35.564  25.567   4.581  0.00  0.00    +0.162 C 
ATOM      6  C   UNL     1     -36.109  22.662   4.019  0.00  0.00    +0.160 C 
ATOM      7  C   UNL     1     -35.466  23.151   5.300  0.00  0.00    +0.012 C 
ATOM      8  C   UNL     1     -35.233  24.455   5.537  0.00  0.00    +0.001 C 
BRANCH   5   9
ATOM      9  O   UNL     1     -36.497  26.412   5.256  0.00  0.00    -0.377 OA
ATOM     10  H   UNL     1     -37.185  26.697   4.635  0.00  0.00    +0.211 HD
ENDBRANCH   5   9
BRANCH   6  11
ATOM     11  O   UNL     1     -35.277  21.655   3.441  0.00  0.00    -0.378 OA
ATOM     12  H   UNL     1     -35.483  20.796   3.844  0.00  0.00    +0.211 HD
ENDBRANCH   6  11
BRANCH   7  13
ATOM     13  C   UNL     1     -35.133  22.104   6.327  0.00  0.00    +0.162 C 
BRANCH  13  14
ATOM     14  O   UNL     1     -35.616  20.847   5.896  0.00  0.00    -0.377 OA
ATOM     15  H   UNL     1     -36.566  20.909   5.717  0.00  0.00    +0.211 HD
ENDBRANCH  13  14
ENDBRANCH   7  13
ENDBRANCH   1   3
BRANCH   1  16
ATOM     16  C   UNL     1     -36.043  27.465   2.255  0.00  0.00    -0.001 C 
ATOM     17  C   UNL     1     -36.212  28.411   1.307  0.00  0.00    -0.019 C 
ATOM     18  C   UNL     1     -37.272  28.316   0.235  0.00  0.00    +0.029 C 
BRANCH  17  19
ATOM     19  C   UNL     1     -35.373  29.683   1.222  0.00  0.00    +0.133 C 
BRANCH  19  20
ATOM     20  O   UNL     1     -35.561  30.213  -0.094  0.00  0.00    -0.380 OA
ATOM     21  H   UNL     1     -34.765  30.053  -0.625  0.00  0.00    +0.211 HD
ENDBRANCH  19  20
BRANCH  19  22
ATOM     22  C   UNL     1     -35.670  30.798   2.246  0.00  0.00    +0.059 C 
BRANCH  22  23
ATOM     23  C   UNL     1     -35.746  32.159   1.597  0.00  0.00    -0.032 C 
ATOM     24  C   UNL     1     -34.812  33.130   1.599  0.00  0.00    -0.048 C 
ATOM     25  C   UNL     1     -33.503  32.912   2.316  0.00  0.00    +0.026 C 
BRANCH  24  26
ATOM     26  C   UNL     1     -34.974  34.495   0.963  0.00  0.00    +0.026 C 
BRANCH  26  27
ATOM     27  C   UNL     1     -36.372  34.754   0.387  0.00  0.00    +0.030 C 
BRANCH  27  28
ATOM     28  C   UNL     1     -37.297  35.408   1.375  0.00  0.00    -0.034 C 
ATOM     29  C   UNL     1     -38.447  34.925   1.882  0.00  0.00    -0.048 C 
ATOM     30  C   UNL     1     -39.032  33.575   1.578  0.00  0.00    +0.026 C 
ATOM     31  C   UNL     1     -39.256  35.748   2.849  0.00  0.00    +0.026 C 
ENDBRANCH  27  28
ENDBRANCH  26  27
ENDBRANCH  24  26
ENDBRANCH  22  23
ENDBRANCH  19  22
ENDBRANCH  17  19
ENDBRANCH   1  16
BRANCH   1  32
ATOM     32  O   UNL     1     -38.060  26.537   3.075  0.00  0.00    -0.377 OA
ATOM     33  H   UNL     1     -38.148  26.033   3.899  0.00  0.00    +0.211 HD
ENDBRANCH   1  32
TORSDOF 14
ENDMDL
MODEL 8
REMARK VINA RESULT:      -6.3      4.098      8.450
REMARK  Name = 53344588
REMARK  14 active torsions:
REMARK  status: ('A' for Active; 'I' for Inactive)
REMARK    1  A    between atoms: C_1  and  C_3
REMARK    2  A    between atoms: C_1  and  C_16
REMARK    3  A    between atoms: C_1  and  O_32
REMARK    4  A    between atoms: C_5  and  O_9
REMARK    5  A    between atoms: C_6  and  O_11
REMARK    6  A    between atoms: C_7  and  C_13
REMARK    7  A    between atoms: C_13  and  O_14
REMARK    8  A    between atoms: C_17  and  C_19
REMARK    9  A    between atoms: C_19  and  O_20
REMARK   10  A    between atoms: C_19  and  C_22
REMARK   11  A    between atoms: C_22  and  C_23
REMARK   12  A    between atoms: C_24  and  C_26
REMARK   13  A    between atoms: C_26  and  C_27
REMARK   14  A    between atoms: C_27  and  C_28
REMARK                            x       y       z     vdW  Elec       q    Type
REMARK                         _______ _______ _______ _____ _____    ______ ____
ROOT
ATOM      1  C   UNL     1     -38.001  23.843   2.072  0.00  0.00    +0.162 C 
ENDROOT
BRANCH   1   3
ATOM      2  O   UNL     1     -40.336  23.176   2.074  0.00  0.00    -0.348 OA
ATOM      3  C   UNL     1     -39.431  24.285   2.180  0.00  0.00    +0.177 C 
ATOM      4  C   UNL     1     -40.333  24.118   0.991  0.00  0.00    +0.176 C 
ATOM      5  C   UNL     1     -39.785  25.265   3.255  0.00  0.00    +0.162 C 
ATOM      6  C   UNL     1     -41.586  24.934   0.869  0.00  0.00    +0.160 C 
ATOM      7  C   UNL     1     -41.916  25.842   2.036  0.00  0.00    +0.012 C 
ATOM      8  C   UNL     1     -41.097  25.981   3.094  0.00  0.00    +0.001 C 
BRANCH   5   9
ATOM      9  O   UNL     1     -38.781  26.279   3.332  0.00  0.00    -0.377 OA
ATOM     10  H   UNL     1     -37.909  25.884   3.180  0.00  0.00    +0.211 HD
ENDBRANCH   5   9
BRANCH   6  11
ATOM     11  O   UNL     1     -42.685  24.048   0.649  0.00  0.00    -0.378 OA
ATOM     12  H   UNL     1     -43.516  24.548   0.691  0.00  0.00    +0.211 HD
ENDBRANCH   6  11
BRANCH   7  13
ATOM     13  C   UNL     1     -43.198  26.623   1.939  0.00  0.00    +0.162 C 
BRANCH  13  14
ATOM     14  O   UNL     1     -44.291  25.779   2.242  0.00  0.00    -0.377 OA
ATOM     15  H   UNL     1     -44.336  25.639   3.200  0.00  0.00    +0.211 HD
ENDBRANCH  13  14
ENDBRANCH   7  13
ENDBRANCH   1   3
BRANCH   1  16
ATOM     16  C   UNL     1     -37.406  23.374   3.374  0.00  0.00    -0.001 C 
ATOM     17  C   UNL     1     -36.338  22.568   3.548  0.00  0.00    -0.019 C 
ATOM     18  C   UNL     1     -35.550  21.993   2.395  0.00  0.00    +0.029 C 
BRANCH  17  19
ATOM     19  C   UNL     1     -35.798  22.163   4.917  0.00  0.00    +0.133 C 
BRANCH  19  20
ATOM     20  O   UNL     1     -35.152  20.897   4.747  0.00  0.00    -0.380 OA
ATOM     21  H   UNL     1     -35.817  20.191   4.751  0.00  0.00    +0.211 HD
ENDBRANCH  19  20
BRANCH  19  22
ATOM     22  C   UNL     1     -34.809  23.129   5.603  0.00  0.00    +0.059 C 
BRANCH  22  23
ATOM     23  C   UNL     1     -34.400  24.262   4.693  0.00  0.00    -0.032 C 
ATOM     24  C   UNL     1     -34.862  25.528   4.690  0.00  0.00    -0.048 C 
ATOM     25  C   UNL     1     -35.917  25.946   5.683  0.00  0.00    +0.026 C 
BRANCH  24  26
ATOM     26  C   UNL     1     -34.438  26.606   3.714  0.00  0.00    +0.026 C 
BRANCH  26  27
ATOM     27  C   UNL     1     -32.920  26.807   3.624  0.00  0.00    +0.030 C 
BRANCH  27  28
ATOM     28  C   UNL     1     -32.469  28.114   4.214  0.00  0.00    -0.034 C 
ATOM     29  C   UNL     1     -32.263  28.414   5.510  0.00  0.00    -0.048 C 
ATOM     30  C   UNL     1     -32.411  27.455   6.658  0.00  0.00    +0.026 C 
ATOM     31  C   UNL     1     -31.835  29.800   5.912  0.00  0.00    +0.026 C 
ENDBRANCH  27  28
ENDBRANCH  26  27
ENDBRANCH  24  26
ENDBRANCH  22  23
ENDBRANCH  19  22
ENDBRANCH  17  19
ENDBRANCH   1  16
BRANCH   1  32
ATOM     32  O   UNL     1     -37.209  24.944   1.614  0.00  0.00    -0.377 OA
ATOM     33  H   UNL     1     -36.276  24.680   1.578  0.00  0.00    +0.211 HD
ENDBRANCH   1  32
TORSDOF 14
ENDMDL
MODEL 9
REMARK VINA RESULT:      -6.1      3.515      4.594
REMARK  Name = 53344588
REMARK  14 active torsions:
REMARK  status: ('A' for Active; 'I' for Inactive)
REMARK    1  A    between atoms: C_1  and  C_3
REMARK    2  A    between atoms: C_1  and  C_16
REMARK    3  A    between atoms: C_1  and  O_32
REMARK    4  A    between atoms: C_5  and  O_9
REMARK    5  A    between atoms: C_6  and  O_11
REMARK    6  A    between atoms: C_7  and  C_13
REMARK    7  A    between atoms: C_13  and  O_14
REMARK    8  A    between atoms: C_17  and  C_19
REMARK    9  A    between atoms: C_19  and  O_20
REMARK   10  A    between atoms: C_19  and  C_22
REMARK   11  A    between atoms: C_22  and  C_23
REMARK   12  A    between atoms: C_24  and  C_26
REMARK   13  A    between atoms: C_26  and  C_27
REMARK   14  A    between atoms: C_27  and  C_28
REMARK                            x       y       z     vdW  Elec       q    Type
REMARK                         _______ _______ _______ _____ _____    ______ ____
ROOT
ATOM      1  C   UNL     1     -35.544  25.655   5.407  0.00  0.00    +0.162 C 
ENDROOT
BRANCH   1   3
ATOM      2  O   UNL     1     -33.123  25.551   5.576  0.00  0.00    -0.348 OA
ATOM      3  C   UNL     1     -34.241  26.381   5.228  0.00  0.00    +0.177 C 
ATOM      4  C   UNL     1     -33.399  26.666   6.438  0.00  0.00    +0.176 C 
ATOM      5  C   UNL     1     -34.048  27.179   3.977  0.00  0.00    +0.162 C 
ATOM      6  C   UNL     1     -32.366  27.754   6.404  0.00  0.00    +0.160 C 
ATOM      7  C   UNL     1     -32.175  28.460   5.078  0.00  0.00    +0.012 C 
ATOM      8  C   UNL     1     -32.938  28.194   4.002  0.00  0.00    +0.001 C 
BRANCH   5   9
ATOM      9  O   UNL     1     -35.244  27.901   3.676  0.00  0.00    -0.377 OA
ATOM     10  H   UNL     1     -36.013  27.396   3.982  0.00  0.00    +0.211 HD
ENDBRANCH   5   9
BRANCH   6  11
ATOM     11  O   UNL     1     -31.114  27.205   6.819  0.00  0.00    -0.378 OA
ATOM     12  H   UNL     1     -30.464  27.311   6.107  0.00  0.00    +0.211 HD
ENDBRANCH   6  11
BRANCH   7  13
ATOM     13  C   UNL     1     -31.105  29.516   5.027  0.00  0.00    +0.162 C 
BRANCH  13  14
ATOM     14  O   UNL     1     -29.847  28.907   4.815  0.00  0.00    -0.377 OA
ATOM     15  H   UNL     1     -29.290  29.032   5.598  0.00  0.00    +0.211 HD
ENDBRANCH  13  14
ENDBRANCH   7  13
ENDBRANCH   1   3
BRANCH   1  16
ATOM     16  C   UNL     1     -35.803  24.599   4.364  0.00  0.00    -0.001 C 
ATOM     17  C   UNL     1     -35.729  23.260   4.513  0.00  0.00    -0.019 C 
ATOM     18  C   UNL     1     -35.356  22.601   5.819  0.00  0.00    +0.029 C 
BRANCH  17  19
ATOM     19  C   UNL     1     -36.031  22.267   3.394  0.00  0.00    +0.133 C 
BRANCH  19  20
ATOM     20  O   UNL     1     -35.793  20.960   3.927  0.00  0.00    -0.380 OA
ATOM     21  H   UNL     1     -35.251  20.450   3.305  0.00  0.00    +0.211 HD
ENDBRANCH  19  20
BRANCH  19  22
ATOM     22  C   UNL     1     -37.448  22.296   2.784  0.00  0.00    +0.059 C 
BRANCH  22  23
ATOM     23  C   UNL     1     -37.512  23.147   1.539  0.00  0.00    -0.032 C 
ATOM     24  C   UNL     1     -38.163  24.315   1.368  0.00  0.00    -0.048 C 
ATOM     25  C   UNL     1     -38.947  24.913   2.508  0.00  0.00    +0.026 C 
BRANCH  24  26
ATOM     26  C   UNL     1     -38.222  25.096   0.071  0.00  0.00    +0.026 C 
BRANCH  26  27
ATOM     27  C   UNL     1     -36.963  24.968  -0.795  0.00  0.00    +0.030 C 
BRANCH  27  28
ATOM     28  C   UNL     1     -35.983  26.086  -0.568  0.00  0.00    -0.034 C 
ATOM     29  C   UNL     1     -34.877  26.079   0.200  0.00  0.00    -0.048 C 
ATOM     30  C   UNL     1     -34.366  24.900   0.977  0.00  0.00    +0.026 C 
ATOM     31  C   UNL     1     -34.030  27.318   0.323  0.00  0.00    +0.026 C 
ENDBRANCH  27  28
ENDBRANCH  26  27
ENDBRANCH  24  26
ENDBRANCH  22  23
ENDBRANCH  19  22
ENDBRANCH  17  19
ENDBRANCH   1  16
BRANCH   1  32
ATOM     32  O   UNL     1     -36.616  26.600   5.332  0.00  0.00    -0.377 OA
ATOM     33  H   UNL     1     -37.169  26.527   6.125  0.00  0.00    +0.211 HD
ENDBRANCH   1  32
TORSDOF 14
ENDMDL
