MODEL 1
REMARK VINA RESULT:      -6.7      0.000      0.000
REMARK  Name = 193951
REMARK  9 active torsions:
REMARK  status: ('A' for Active; 'I' for Inactive)
REMARK    1  A    between atoms: N_1  and  C_9
REMARK    2  A    between atoms: N_2  and  C_24
REMARK    3  A    between atoms: C_9  and  C_11
REMARK    4  A    between atoms: C_9  and  C_18
REMARK    5  A    between atoms: C_24  and  C_25
REMARK    6  A    between atoms: C_25  and  O_26
REMARK    7  A    between atoms: C_25  and  C_28
REMARK    8  A    between atoms: C_28  and  S_29
REMARK    9  A    between atoms: S_29  and  C_34
REMARK                            x       y       z     vdW  Elec       q    Type
REMARK                         _______ _______ _______ _____ _____    ______ ____
ROOT
ATOM      1  N   UNL     1     -36.987  21.413   1.488  0.00  0.00    +0.390 N 
ATOM      2  N   UNL     1     -39.676  21.019   0.503  0.00  0.00    +0.386 N 
ATOM      3  C   UNL     1     -37.327  20.263   0.641  0.00  0.00    -0.100 C 
ATOM      4  C   UNL     1     -38.155  21.837   2.270  0.00  0.00    -0.100 C 
ATOM      5  C   UNL     1     -38.508  20.593  -0.277  0.00  0.00    -0.101 C 
ATOM      6  C   UNL     1     -39.336  22.168   1.351  0.00  0.00    -0.101 C 
ATOM      7  H   UNL     1     -36.707  22.186   0.883  0.00  0.00    -0.079 HD
ATOM      8  H   UNL     1     -39.957  20.245   1.108  0.00  0.00    -0.080 HD
ENDROOT
BRANCH   1   9
ATOM      9  C   UNL     1     -35.862  21.098   2.365  0.00  0.00    -0.012 C 
BRANCH   9  11
ATOM     10  F   UNL     1     -34.761  25.230   6.014  0.00  0.00    -0.204 F 
ATOM     11  C   UNL     1     -35.564  22.216   3.354  0.00  0.00    -0.037 C 
ATOM     12  C   UNL     1     -35.471  21.913   4.696  0.00  0.00    -0.004 C 
ATOM     13  C   UNL     1     -35.396  23.501   2.876  0.00  0.00    -0.004 C 
ATOM     14  C   UNL     1     -35.198  22.939   5.602  0.00  0.00    +0.029 C 
ATOM     15  C   UNL     1     -35.123  24.526   3.782  0.00  0.00    +0.029 C 
ATOM     16  C   UNL     1     -35.025  24.246   5.144  0.00  0.00    +0.140 C 
ENDBRANCH   9  11
BRANCH   9  18
ATOM     17  F   UNL     1     -31.275  19.565  -0.499  0.00  0.00    -0.204 F 
ATOM     18  C   UNL     1     -34.621  20.684   1.589  0.00  0.00    -0.037 C 
ATOM     19  C   UNL     1     -34.089  21.557   0.663  0.00  0.00    -0.004 C 
ATOM     20  C   UNL     1     -34.063  19.445   1.836  0.00  0.00    -0.004 C 
ATOM     21  C   UNL     1     -32.950  21.177  -0.048  0.00  0.00    +0.029 C 
ATOM     22  C   UNL     1     -32.925  19.065   1.125  0.00  0.00    +0.029 C 
ATOM     23  C   UNL     1     -32.368  19.931   0.183  0.00  0.00    +0.140 C 
ENDBRANCH   9  18
ENDBRANCH   1   9
BRANCH   2  24
ATOM     24  C   UNL     1     -40.800  21.335  -0.375  0.00  0.00    -0.047 C 
BRANCH  24  25
ATOM     25  C   UNL     1     -40.728  22.769  -0.913  0.00  0.00    +0.101 C 
BRANCH  25  26
ATOM     26  O   UNL     1     -40.530  22.699  -2.327  0.00  0.00    -0.386 OA
ATOM     27  H   UNL     1     -40.104  21.857  -2.552  0.00  0.00    +0.210 HD
ENDBRANCH  25  26
BRANCH  25  28
ATOM     28  C   UNL     1     -41.936  23.668  -0.616  0.00  0.00    +0.090 C 
BRANCH  28  29
ATOM     29  S   UNL     1     -41.597  25.450  -0.772  0.00  0.00    -0.095 S 
BRANCH  29  34
ATOM     30  N   UNL     1     -39.287  25.634   0.622  0.00  0.00    -0.241 NA
ATOM     31  N   UNL     1     -42.486  26.294   2.313  0.00  0.00    -0.271 NA
ATOM     32  N   UNL     1     -39.067  26.215   2.981  0.00  0.00    -0.232 NA
ATOM     33  N   UNL     1     -41.188  26.648   4.089  0.00  0.00    -0.307 N 
ATOM     34  C   UNL     1     -40.619  25.750   0.695  0.00  0.00    +0.103 C 
ATOM     35  C   UNL     1     -41.206  26.092   1.882  0.00  0.00    +0.156 C 
ATOM     36  C   UNL     1     -40.417  26.318   3.003  0.00  0.00    +0.124 C 
ATOM     37  C   UNL     1     -38.597  25.872   1.762  0.00  0.00    +0.252 C 
ATOM     38  C   UNL     1     -42.424  26.625   3.640  0.00  0.00    +0.163 C 
ATOM     39  H   UNL     1     -43.303  26.216   1.769  0.00  0.00    +0.125 HD
ATOM     40  H   UNL     1     -40.883  26.857   5.001  0.00  0.00    +0.149 HD
ENDBRANCH  29  34
ENDBRANCH  28  29
ENDBRANCH  25  28
ENDBRANCH  24  25
ENDBRANCH   2  24
TORSDOF 9
ENDMDL
MODEL 2
REMARK VINA RESULT:      -6.7      0.330      1.880
REMARK  Name = 193951
REMARK  9 active torsions:
REMARK  status: ('A' for Active; 'I' for Inactive)
REMARK    1  A    between atoms: N_1  and  C_9
REMARK    2  A    between atoms: N_2  and  C_24
REMARK    3  A    between atoms: C_9  and  C_11
REMARK    4  A    between atoms: C_9  and  C_18
REMARK    5  A    between atoms: C_24  and  C_25
REMARK    6  A    between atoms: C_25  and  O_26
REMARK    7  A    between atoms: C_25  and  C_28
REMARK    8  A    between atoms: C_28  and  S_29
REMARK    9  A    between atoms: S_29  and  C_34
REMARK                            x       y       z     vdW  Elec       q    Type
REMARK                         _______ _______ _______ _____ _____    ______ ____
ROOT
ATOM      1  N   UNL     1     -36.960  21.368   1.482  0.00  0.00    +0.390 N 
ATOM      2  N   UNL     1     -39.658  21.014   0.505  0.00  0.00    +0.386 N 
ATOM      3  C   UNL     1     -37.320  20.223   0.638  0.00  0.00    -0.100 C 
ATOM      4  C   UNL     1     -38.119  21.811   2.267  0.00  0.00    -0.100 C 
ATOM      5  C   UNL     1     -38.499  20.569  -0.278  0.00  0.00    -0.101 C 
ATOM      6  C   UNL     1     -39.297  22.159   1.350  0.00  0.00    -0.101 C 
ATOM      7  H   UNL     1     -36.670  22.136   0.876  0.00  0.00    -0.079 HD
ATOM      8  H   UNL     1     -39.948  20.246   1.111  0.00  0.00    -0.080 HD
ENDROOT
BRANCH   1   9
ATOM      9  C   UNL     1     -35.837  21.037   2.357  0.00  0.00    -0.012 C 
BRANCH   9  11
ATOM     10  F   UNL     1     -34.739  25.104   6.078  0.00  0.00    -0.204 F 
ATOM     11  C   UNL     1     -35.540  22.139   3.363  0.00  0.00    -0.037 C 
ATOM     12  C   UNL     1     -35.408  23.436   2.914  0.00  0.00    -0.004 C 
ATOM     13  C   UNL     1     -35.411  21.806   4.697  0.00  0.00    -0.004 C 
ATOM     14  C   UNL     1     -35.135  24.445   3.838  0.00  0.00    +0.029 C 
ATOM     15  C   UNL     1     -35.138  22.815   5.620  0.00  0.00    +0.029 C 
ATOM     16  C   UNL     1     -34.999  24.135   5.191  0.00  0.00    +0.140 C 
ENDBRANCH   9  11
BRANCH   9  18
ATOM     17  F   UNL     1     -31.251  19.541  -0.528  0.00  0.00    -0.204 F 
ATOM     18  C   UNL     1     -34.596  20.632   1.577  0.00  0.00    -0.037 C 
ATOM     19  C   UNL     1     -34.029  19.396   1.817  0.00  0.00    -0.004 C 
ATOM     20  C   UNL     1     -34.073  21.512   0.651  0.00  0.00    -0.004 C 
ATOM     21  C   UNL     1     -32.891  19.025   1.101  0.00  0.00    +0.029 C 
ATOM     22  C   UNL     1     -32.935  21.141  -0.064  0.00  0.00    +0.029 C 
ATOM     23  C   UNL     1     -32.344  19.898   0.161  0.00  0.00    +0.140 C 
ENDBRANCH   9  18
ENDBRANCH   1   9
BRANCH   2  24
ATOM     24  C   UNL     1     -40.780  21.347  -0.371  0.00  0.00    -0.047 C 
BRANCH  24  25
ATOM     25  C   UNL     1     -40.769  22.821  -0.789  0.00  0.00    +0.101 C 
BRANCH  25  26
ATOM     26  O   UNL     1     -40.471  22.880  -2.186  0.00  0.00    -0.386 OA
ATOM     27  H   UNL     1     -40.329  21.982  -2.524  0.00  0.00    +0.210 HD
ENDBRANCH  25  26
BRANCH  25  28
ATOM     28  C   UNL     1     -42.053  23.615  -0.512  0.00  0.00    +0.090 C 
BRANCH  28  29
ATOM     29  S   UNL     1     -41.866  25.419  -0.680  0.00  0.00    -0.095 S 
BRANCH  29  34
ATOM     30  N   UNL     1     -42.681  26.291   1.746  0.00  0.00    -0.241 NA
ATOM     31  N   UNL     1     -39.119  25.574   1.177  0.00  0.00    -0.271 NA
ATOM     32  N   UNL     1     -41.263  26.675   3.694  0.00  0.00    -0.232 NA
ATOM     33  N   UNL     1     -38.910  26.199   3.306  0.00  0.00    -0.307 N 
ATOM     34  C   UNL     1     -41.622  25.906   1.023  0.00  0.00    +0.103 C 
ATOM     35  C   UNL     1     -40.380  25.894   1.594  0.00  0.00    +0.156 C 
ATOM     36  C   UNL     1     -40.224  26.279   2.919  0.00  0.00    +0.124 C 
ATOM     37  C   UNL     1     -42.439  26.649   3.029  0.00  0.00    +0.252 C 
ATOM     38  C   UNL     1     -38.274  25.772   2.236  0.00  0.00    +0.163 C 
ATOM     39  H   UNL     1     -38.865  25.259   0.279  0.00  0.00    +0.125 HD
ATOM     40  H   UNL     1     -38.529  26.412   4.188  0.00  0.00    +0.149 HD
ENDBRANCH  29  34
ENDBRANCH  28  29
ENDBRANCH  25  28
ENDBRANCH  24  25
ENDBRANCH   2  24
TORSDOF 9
ENDMDL
MODEL 3
REMARK VINA RESULT:      -6.6      3.394      6.157
REMARK  Name = 193951
REMARK  9 active torsions:
REMARK  status: ('A' for Active; 'I' for Inactive)
REMARK    1  A    between atoms: N_1  and  C_9
REMARK    2  A    between atoms: N_2  and  C_24
REMARK    3  A    between atoms: C_9  and  C_11
REMARK    4  A    between atoms: C_9  and  C_18
REMARK    5  A    between atoms: C_24  and  C_25
REMARK    6  A    between atoms: C_25  and  O_26
REMARK    7  A    between atoms: C_25  and  C_28
REMARK    8  A    between atoms: C_28  and  S_29
REMARK    9  A    between atoms: S_29  and  C_34
REMARK                            x       y       z     vdW  Elec       q    Type
REMARK                         _______ _______ _______ _____ _____    ______ ____
ROOT
ATOM      1  N   UNL     1     -36.864  21.340   1.323  0.00  0.00    +0.390 N 
ATOM      2  N   UNL     1     -39.455  20.948   0.102  0.00  0.00    +0.386 N 
ATOM      3  C   UNL     1     -37.088  20.277   0.335  0.00  0.00    -0.100 C 
ATOM      4  C   UNL     1     -38.103  21.629   2.056  0.00  0.00    -0.100 C 
ATOM      5  C   UNL     1     -38.216  20.658  -0.629  0.00  0.00    -0.101 C 
ATOM      6  C   UNL     1     -39.231  22.010   1.090  0.00  0.00    -0.101 C 
ATOM      7  H   UNL     1     -36.580  22.185   0.827  0.00  0.00    -0.079 HD
ATOM      8  H   UNL     1     -39.740  20.103   0.598  0.00  0.00    -0.080 HD
ENDROOT
BRANCH   1   9
ATOM      9  C   UNL     1     -35.790  20.976   2.244  0.00  0.00    -0.012 C 
BRANCH   9  11
ATOM     10  F   UNL     1     -34.800  24.965   6.078  0.00  0.00    -0.204 F 
ATOM     11  C   UNL     1     -35.521  22.057   3.281  0.00  0.00    -0.037 C 
ATOM     12  C   UNL     1     -35.414  23.368   2.867  0.00  0.00    -0.004 C 
ATOM     13  C   UNL     1     -35.394  21.692   4.607  0.00  0.00    -0.004 C 
ATOM     14  C   UNL     1     -35.167  24.358   3.819  0.00  0.00    +0.029 C 
ATOM     15  C   UNL     1     -35.149  22.681   5.558  0.00  0.00    +0.029 C 
ATOM     16  C   UNL     1     -35.035  24.015   5.164  0.00  0.00    +0.140 C 
ENDBRANCH   9  11
BRANCH   9  18
ATOM     17  F   UNL     1     -31.097  19.445  -0.446  0.00  0.00    -0.204 F 
ATOM     18  C   UNL     1     -34.519  20.561   1.517  0.00  0.00    -0.037 C 
ATOM     19  C   UNL     1     -33.969  19.324   1.785  0.00  0.00    -0.004 C 
ATOM     20  C   UNL     1     -33.955  21.435   0.609  0.00  0.00    -0.004 C 
ATOM     21  C   UNL     1     -32.805  18.944   1.117  0.00  0.00    +0.029 C 
ATOM     22  C   UNL     1     -32.791  21.055  -0.058  0.00  0.00    +0.029 C 
ATOM     23  C   UNL     1     -32.216  19.810   0.196  0.00  0.00    +0.140 C 
ENDBRANCH   9  18
ENDBRANCH   1   9
BRANCH   2  24
ATOM     24  C   UNL     1     -40.529  21.314  -0.819  0.00  0.00    -0.047 C 
BRANCH  24  25
ATOM     25  C   UNL     1     -41.505  20.156  -1.059  0.00  0.00    +0.101 C 
BRANCH  25  26
ATOM     26  O   UNL     1     -42.825  20.701  -1.127  0.00  0.00    -0.386 OA
ATOM     27  H   UNL     1     -42.791  21.579  -1.539  0.00  0.00    +0.210 HD
ENDBRANCH  25  26
BRANCH  25  28
ATOM     28  C   UNL     1     -41.246  19.297  -2.304  0.00  0.00    +0.090 C 
BRANCH  28  29
ATOM     29  S   UNL     1     -41.920  17.609  -2.199  0.00  0.00    -0.095 S 
BRANCH  29  34
ATOM     30  N   UNL     1     -39.397  17.369  -1.258  0.00  0.00    -0.241 NA
ATOM     31  N   UNL     1     -41.719  14.533  -0.969  0.00  0.00    -0.271 NA
ATOM     32  N   UNL     1     -38.435  15.398  -0.189  0.00  0.00    -0.232 NA
ATOM     33  N   UNL     1     -39.979  13.529  -0.004  0.00  0.00    -0.307 N 
ATOM     34  C   UNL     1     -40.568  16.740  -1.414  0.00  0.00    +0.103 C 
ATOM     35  C   UNL     1     -40.711  15.453  -0.976  0.00  0.00    +0.156 C 
ATOM     36  C   UNL     1     -39.640  14.806  -0.372  0.00  0.00    +0.124 C 
ATOM     37  C   UNL     1     -38.408  16.664  -0.659  0.00  0.00    +0.252 C 
ATOM     38  C   UNL     1     -41.234  13.397  -0.376  0.00  0.00    +0.163 C 
ATOM     39  H   UNL     1     -42.629  14.662  -1.324  0.00  0.00    +0.125 HD
ATOM     40  H   UNL     1     -39.411  12.860   0.441  0.00  0.00    +0.149 HD
ENDBRANCH  29  34
ENDBRANCH  28  29
ENDBRANCH  25  28
ENDBRANCH  24  25
ENDBRANCH   2  24
TORSDOF 9
ENDMDL
MODEL 4
REMARK VINA RESULT:      -6.6      3.240      5.958
REMARK  Name = 193951
REMARK  9 active torsions:
REMARK  status: ('A' for Active; 'I' for Inactive)
REMARK    1  A    between atoms: N_1  and  C_9
REMARK    2  A    between atoms: N_2  and  C_24
REMARK    3  A    between atoms: C_9  and  C_11
REMARK    4  A    between atoms: C_9  and  C_18
REMARK    5  A    between atoms: C_24  and  C_25
REMARK    6  A    between atoms: C_25  and  O_26
REMARK    7  A    between atoms: C_25  and  C_28
REMARK    8  A    between atoms: C_28  and  S_29
REMARK    9  A    between atoms: S_29  and  C_34
REMARK                            x       y       z     vdW  Elec       q    Type
REMARK                         _______ _______ _______ _____ _____    ______ ____
ROOT
ATOM      1  N   UNL     1     -37.543  24.508   2.535  0.00  0.00    +0.390 N 
ATOM      2  N   UNL     1     -40.115  25.624   1.827  0.00  0.00    +0.386 N 
ATOM      3  C   UNL     1     -37.933  25.856   2.965  0.00  0.00    -0.100 C 
ATOM      4  C   UNL     1     -38.201  24.165   1.267  0.00  0.00    -0.100 C 
ATOM      5  C   UNL     1     -39.456  25.969   3.093  0.00  0.00    -0.101 C 
ATOM      6  C   UNL     1     -39.724  24.276   1.396  0.00  0.00    -0.101 C 
ATOM      7  H   UNL     1     -37.848  23.843   3.245  0.00  0.00    -0.079 HD
ATOM      8  H   UNL     1     -39.811  26.290   1.116  0.00  0.00    -0.080 HD
ENDROOT
BRANCH   1   9
ATOM      9  C   UNL     1     -36.091  24.402   2.411  0.00  0.00    -0.012 C 
BRANCH   9  11
ATOM     10  F   UNL     1     -34.393  19.122   1.500  0.00  0.00    -0.204 F 
ATOM     11  C   UNL     1     -35.632  22.972   2.165  0.00  0.00    -0.037 C 
ATOM     12  C   UNL     1     -36.060  21.977   3.019  0.00  0.00    -0.004 C 
ATOM     13  C   UNL     1     -34.799  22.714   1.094  0.00  0.00    -0.004 C 
ATOM     14  C   UNL     1     -35.638  20.667   2.793  0.00  0.00    +0.029 C 
ATOM     15  C   UNL     1     -34.378  21.404   0.868  0.00  0.00    +0.029 C 
ATOM     16  C   UNL     1     -34.796  20.380   1.717  0.00  0.00    +0.140 C 
ENDBRANCH   9  11
BRANCH   9  18
ATOM     17  F   UNL     1     -33.393  26.749   6.748  0.00  0.00    -0.204 F 
ATOM     18  C   UNL     1     -35.362  25.037   3.585  0.00  0.00    -0.037 C 
ATOM     19  C   UNL     1     -35.729  24.686   4.869  0.00  0.00    -0.004 C 
ATOM     20  C   UNL     1     -34.354  25.945   3.331  0.00  0.00    -0.004 C 
ATOM     21  C   UNL     1     -35.059  25.269   5.945  0.00  0.00    +0.029 C 
ATOM     22  C   UNL     1     -33.685  26.528   4.407  0.00  0.00    +0.029 C 
ATOM     23  C   UNL     1     -34.037  26.189   5.714  0.00  0.00    +0.140 C 
ENDBRANCH   9  18
ENDBRANCH   1   9
BRANCH   2  24
ATOM     24  C   UNL     1     -41.567  25.729   1.952  0.00  0.00    -0.047 C 
BRANCH  24  25
ATOM     25  C   UNL     1     -41.987  26.901   2.846  0.00  0.00    +0.101 C 
BRANCH  25  26
ATOM     26  O   UNL     1     -41.939  28.093   2.059  0.00  0.00    -0.386 OA
ATOM     27  H   UNL     1     -41.503  27.905   1.213  0.00  0.00    +0.210 HD
ENDBRANCH  25  26
BRANCH  25  28
ATOM     28  C   UNL     1     -43.366  26.788   3.510  0.00  0.00    +0.090 C 
BRANCH  28  29
ATOM     29  S   UNL     1     -44.413  28.266   3.314  0.00  0.00    -0.095 S 
BRANCH  29  34
ATOM     30  N   UNL     1     -43.488  30.050   5.123  0.00  0.00    -0.241 NA
ATOM     31  N   UNL     1     -45.897  27.479   6.176  0.00  0.00    -0.271 NA
ATOM     32  N   UNL     1     -44.095  30.159   7.484  0.00  0.00    -0.232 NA
ATOM     33  N   UNL     1     -45.688  28.455   8.169  0.00  0.00    -0.307 N 
ATOM     34  C   UNL     1     -44.295  28.997   4.941  0.00  0.00    +0.103 C 
ATOM     35  C   UNL     1     -45.010  28.501   5.996  0.00  0.00    +0.156 C 
ATOM     36  C   UNL     1     -44.895  29.092   7.247  0.00  0.00    +0.124 C 
ATOM     37  C   UNL     1     -43.437  30.563   6.375  0.00  0.00    +0.252 C 
ATOM     38  C   UNL     1     -46.276  27.491   7.492  0.00  0.00    +0.163 C 
ATOM     39  H   UNL     1     -46.209  26.850   5.486  0.00  0.00    +0.125 HD
ATOM     40  H   UNL     1     -45.793  28.670   9.123  0.00  0.00    +0.149 HD
ENDBRANCH  29  34
ENDBRANCH  28  29
ENDBRANCH  25  28
ENDBRANCH  24  25
ENDBRANCH   2  24
TORSDOF 9
ENDMDL
MODEL 5
REMARK VINA RESULT:      -6.6      3.207      4.580
REMARK  Name = 193951
REMARK  9 active torsions:
REMARK  status: ('A' for Active; 'I' for Inactive)
REMARK    1  A    between atoms: N_1  and  C_9
REMARK    2  A    between atoms: N_2  and  C_24
REMARK    3  A    between atoms: C_9  and  C_11
REMARK    4  A    between atoms: C_9  and  C_18
REMARK    5  A    between atoms: C_24  and  C_25
REMARK    6  A    between atoms: C_25  and  O_26
REMARK    7  A    between atoms: C_25  and  C_28
REMARK    8  A    between atoms: C_28  and  S_29
REMARK    9  A    between atoms: S_29  and  C_34
REMARK                            x       y       z     vdW  Elec       q    Type
REMARK                         _______ _______ _______ _____ _____    ______ ____
ROOT
ATOM      1  N   UNL     1     -37.764  23.990   2.644  0.00  0.00    +0.390 N 
ATOM      2  N   UNL     1     -40.458  25.012   2.410  0.00  0.00    +0.386 N 
ATOM      3  C   UNL     1     -38.910  23.087   2.487  0.00  0.00    -0.100 C 
ATOM      4  C   UNL     1     -38.173  25.224   3.326  0.00  0.00    -0.100 C 
ATOM      5  C   UNL     1     -40.049  23.777   1.730  0.00  0.00    -0.101 C 
ATOM      6  C   UNL     1     -39.311  25.915   2.567  0.00  0.00    -0.101 C 
ATOM      7  H   UNL     1     -37.418  24.235   1.716  0.00  0.00    -0.079 HD
ATOM      8  H   UNL     1     -40.804  24.767   3.338  0.00  0.00    -0.080 HD
ENDROOT
BRANCH   1   9
ATOM      9  C   UNL     1     -36.678  23.333   3.369  0.00  0.00    -0.012 C 
BRANCH   9  11
ATOM     10  F   UNL     1     -33.184  27.004   5.798  0.00  0.00    -0.204 F 
ATOM     11  C   UNL     1     -35.732  24.326   4.025  0.00  0.00    -0.037 C 
ATOM     12  C   UNL     1     -34.742  24.910   3.263  0.00  0.00    -0.004 C 
ATOM     13  C   UNL     1     -35.893  24.614   5.366  0.00  0.00    -0.004 C 
ATOM     14  C   UNL     1     -33.874  25.821   3.866  0.00  0.00    +0.029 C 
ATOM     15  C   UNL     1     -35.025  25.524   5.969  0.00  0.00    +0.029 C 
ATOM     16  C   UNL     1     -34.016  26.128   5.219  0.00  0.00    +0.140 C 
ENDBRANCH   9  11
BRANCH   9  18
ATOM     17  F   UNL     1     -33.922  19.611   0.184  0.00  0.00    -0.204 F 
ATOM     18  C   UNL     1     -35.933  22.325   2.506  0.00  0.00    -0.037 C 
ATOM     19  C   UNL     1     -35.663  22.643   1.190  0.00  0.00    -0.004 C 
ATOM     20  C   UNL     1     -35.548  21.124   3.066  0.00  0.00    -0.004 C 
ATOM     21  C   UNL     1     -34.979  21.719   0.400  0.00  0.00    +0.029 C 
ATOM     22  C   UNL     1     -34.864  20.200   2.276  0.00  0.00    +0.029 C 
ATOM     23  C   UNL     1     -34.579  20.498   0.943  0.00  0.00    +0.140 C 
ENDBRANCH   9  18
ENDBRANCH   1   9
BRANCH   2  24
ATOM     24  C   UNL     1     -41.542  25.670   1.683  0.00  0.00    -0.047 C 
BRANCH  24  25
ATOM     25  C   UNL     1     -42.194  26.787   2.506  0.00  0.00    +0.101 C 
BRANCH  25  26
ATOM     26  O   UNL     1     -41.897  28.033   1.870  0.00  0.00    -0.386 OA
ATOM     27  H   UNL     1     -41.657  27.873   0.943  0.00  0.00    +0.210 HD
ENDBRANCH  25  26
BRANCH  25  28
ATOM     28  C   UNL     1     -43.710  26.677   2.720  0.00  0.00    +0.090 C 
BRANCH  28  29
ATOM     29  S   UNL     1     -44.259  27.104   4.403  0.00  0.00    -0.095 S 
BRANCH  29  34
ATOM     30  N   UNL     1     -44.514  29.471   3.121  0.00  0.00    -0.241 NA
ATOM     31  N   UNL     1     -43.944  29.425   6.754  0.00  0.00    -0.271 NA
ATOM     32  N   UNL     1     -44.406  31.685   4.142  0.00  0.00    -0.232 NA
ATOM     33  N   UNL     1     -44.028  31.642   6.544  0.00  0.00    -0.307 N 
ATOM     34  C   UNL     1     -44.315  28.889   4.311  0.00  0.00    +0.103 C 
ATOM     35  C   UNL     1     -44.158  29.663   5.427  0.00  0.00    +0.156 C 
ATOM     36  C   UNL     1     -44.206  31.047   5.320  0.00  0.00    +0.124 C 
ATOM     37  C   UNL     1     -44.547  30.825   3.110  0.00  0.00    +0.252 C 
ATOM     38  C   UNL     1     -43.874  30.640   7.382  0.00  0.00    +0.163 C 
ATOM     39  H   UNL     1     -43.857  28.542   7.181  0.00  0.00    +0.125 HD
ATOM     40  H   UNL     1     -44.018  32.604   6.748  0.00  0.00    +0.149 HD
ENDBRANCH  29  34
ENDBRANCH  28  29
ENDBRANCH  25  28
ENDBRANCH  24  25
ENDBRANCH   2  24
TORSDOF 9
ENDMDL
MODEL 6
REMARK VINA RESULT:      -6.6      3.011      5.905
REMARK  Name = 193951
REMARK  9 active torsions:
REMARK  status: ('A' for Active; 'I' for Inactive)
REMARK    1  A    between atoms: N_1  and  C_9
REMARK    2  A    between atoms: N_2  and  C_24
REMARK    3  A    between atoms: C_9  and  C_11
REMARK    4  A    between atoms: C_9  and  C_18
REMARK    5  A    between atoms: C_24  and  C_25
REMARK    6  A    between atoms: C_25  and  O_26
REMARK    7  A    between atoms: C_25  and  C_28
REMARK    8  A    between atoms: C_28  and  S_29
REMARK    9  A    between atoms: S_29  and  C_34
REMARK                            x       y       z     vdW  Elec       q    Type
REMARK                         _______ _______ _______ _____ _____    ______ ____
ROOT
ATOM      1  N   UNL     1     -36.950  21.460   1.469  0.00  0.00    +0.390 N 
ATOM      2  N   UNL     1     -39.607  21.047   0.407  0.00  0.00    +0.386 N 
ATOM      3  C   UNL     1     -37.238  20.355   0.546  0.00  0.00    -0.100 C 
ATOM      4  C   UNL     1     -38.145  21.800   2.252  0.00  0.00    -0.100 C 
ATOM      5  C   UNL     1     -38.412  20.706  -0.374  0.00  0.00    -0.101 C 
ATOM      6  C   UNL     1     -39.318  22.151   1.331  0.00  0.00    -0.101 C 
ATOM      7  H   UNL     1     -36.683  22.277   0.919  0.00  0.00    -0.079 HD
ATOM      8  H   UNL     1     -39.874  20.229   0.957  0.00  0.00    -0.080 HD
ENDROOT
BRANCH   1   9
ATOM      9  C   UNL     1     -35.832  21.125   2.348  0.00  0.00    -0.012 C 
BRANCH   9  11
ATOM     10  F   UNL     1     -34.697  25.212   6.036  0.00  0.00    -0.204 F 
ATOM     11  C   UNL     1     -35.524  22.232   3.345  0.00  0.00    -0.037 C 
ATOM     12  C   UNL     1     -35.355  23.521   2.882  0.00  0.00    -0.004 C 
ATOM     13  C   UNL     1     -35.425  21.913   4.685  0.00  0.00    -0.004 C 
ATOM     14  C   UNL     1     -35.072  24.535   3.798  0.00  0.00    +0.029 C 
ATOM     15  C   UNL     1     -35.143  22.927   5.600  0.00  0.00    +0.029 C 
ATOM     16  C   UNL     1     -34.967  24.238   5.157  0.00  0.00    +0.140 C 
ENDBRANCH   9  11
BRANCH   9  18
ATOM     17  F   UNL     1     -31.257  19.560  -0.518  0.00  0.00    -0.204 F 
ATOM     18  C   UNL     1     -34.593  20.701   1.573  0.00  0.00    -0.037 C 
ATOM     19  C   UNL     1     -34.051  19.454   1.810  0.00  0.00    -0.004 C 
ATOM     20  C   UNL     1     -34.048  21.577   0.655  0.00  0.00    -0.004 C 
ATOM     21  C   UNL     1     -32.916  19.065   1.098  0.00  0.00    +0.029 C 
ATOM     22  C   UNL     1     -32.913  21.189  -0.055  0.00  0.00    +0.029 C 
ATOM     23  C   UNL     1     -32.347  19.933   0.166  0.00  0.00    +0.140 C 
ENDBRANCH   9  18
ENDBRANCH   1   9
BRANCH   2  24
ATOM     24  C   UNL     1     -40.724  21.383  -0.472  0.00  0.00    -0.047 C 
BRANCH  24  25
ATOM     25  C   UNL     1     -41.575  20.157  -0.821  0.00  0.00    +0.101 C 
BRANCH  25  26
ATOM     26  O   UNL     1     -42.849  20.311  -0.191  0.00  0.00    -0.386 OA
ATOM     27  H   UNL     1     -43.442  19.601  -0.483  0.00  0.00    +0.210 HD
ENDBRANCH  25  26
BRANCH  25  28
ATOM     28  C   UNL     1     -41.781  19.876  -2.316  0.00  0.00    +0.090 C 
BRANCH  28  29
ATOM     29  S   UNL     1     -40.465  18.872  -3.075  0.00  0.00    -0.095 S 
BRANCH  29  34
ATOM     30  N   UNL     1     -41.779  16.704  -2.136  0.00  0.00    -0.241 NA
ATOM     31  N   UNL     1     -38.247  17.214  -1.245  0.00  0.00    -0.271 NA
ATOM     32  N   UNL     1     -40.851  14.963  -0.700  0.00  0.00    -0.232 NA
ATOM     33  N   UNL     1     -38.516  15.311  -0.117  0.00  0.00    -0.307 N 
ATOM     34  C   UNL     1     -40.606  17.350  -2.147  0.00  0.00    +0.103 C 
ATOM     35  C   UNL     1     -39.544  16.840  -1.454  0.00  0.00    +0.156 C 
ATOM     36  C   UNL     1     -39.688  15.656  -0.742  0.00  0.00    +0.124 C 
ATOM     37  C   UNL     1     -41.829  15.557  -1.418  0.00  0.00    +0.252 C 
ATOM     38  C   UNL     1     -37.672  16.267  -0.440  0.00  0.00    +0.163 C 
ATOM     39  H   UNL     1     -37.807  18.016  -1.608  0.00  0.00    +0.125 HD
ATOM     40  H   UNL     1     -38.345  14.523   0.448  0.00  0.00    +0.149 HD
ENDBRANCH  29  34
ENDBRANCH  28  29
ENDBRANCH  25  28
ENDBRANCH  24  25
ENDBRANCH   2  24
TORSDOF 9
ENDMDL
MODEL 7
REMARK VINA RESULT:      -6.5      3.074      5.737
REMARK  Name = 193951
REMARK  9 active torsions:
REMARK  status: ('A' for Active; 'I' for Inactive)
REMARK    1  A    between atoms: N_1  and  C_9
REMARK    2  A    between atoms: N_2  and  C_24
REMARK    3  A    between atoms: C_9  and  C_11
REMARK    4  A    between atoms: C_9  and  C_18
REMARK    5  A    between atoms: C_24  and  C_25
REMARK    6  A    between atoms: C_25  and  O_26
REMARK    7  A    between atoms: C_25  and  C_28
REMARK    8  A    between atoms: C_28  and  S_29
REMARK    9  A    between atoms: S_29  and  C_34
REMARK                            x       y       z     vdW  Elec       q    Type
REMARK                         _______ _______ _______ _____ _____    ______ ____
ROOT
ATOM      1  N   UNL     1     -37.626  21.990   1.423  0.00  0.00    +0.390 N 
ATOM      2  N   UNL     1     -39.534  21.309  -0.639  0.00  0.00    +0.386 N 
ATOM      3  C   UNL     1     -37.194  21.718   0.046  0.00  0.00    -0.100 C 
ATOM      4  C   UNL     1     -38.850  21.242   1.734  0.00  0.00    -0.100 C 
ATOM      5  C   UNL     1     -38.308  22.055  -0.951  0.00  0.00    -0.101 C 
ATOM      6  C   UNL     1     -39.964  21.580   0.737  0.00  0.00    -0.101 C 
ATOM      7  H   UNL     1     -37.828  22.987   1.505  0.00  0.00    -0.079 HD
ATOM      8  H   UNL     1     -39.331  20.312  -0.722  0.00  0.00    -0.080 HD
ENDROOT
BRANCH   1   9
ATOM      9  C   UNL     1     -36.565  21.666   2.374  0.00  0.00    -0.012 C 
BRANCH   9  11
ATOM     10  F   UNL     1     -35.755  25.737   6.164  0.00  0.00    -0.204 F 
ATOM     11  C   UNL     1     -36.346  22.769   3.399  0.00  0.00    -0.037 C 
ATOM     12  C   UNL     1     -36.936  23.999   3.194  0.00  0.00    -0.004 C 
ATOM     13  C   UNL     1     -35.563  22.505   4.505  0.00  0.00    -0.004 C 
ATOM     14  C   UNL     1     -36.735  25.009   4.135  0.00  0.00    +0.029 C 
ATOM     15  C   UNL     1     -35.362  23.515   5.445  0.00  0.00    +0.029 C 
ATOM     16  C   UNL     1     -35.947  24.767   5.260  0.00  0.00    +0.140 C 
ENDBRANCH   9  11
BRANCH   9  18
ATOM     17  F   UNL     1     -31.774  20.204  -0.179  0.00  0.00    -0.204 F 
ATOM     18  C   UNL     1     -35.268  21.271   1.682  0.00  0.00    -0.037 C 
ATOM     19  C   UNL     1     -34.581  22.223   0.956  0.00  0.00    -0.004 C 
ATOM     20  C   UNL     1     -34.818  19.972   1.803  0.00  0.00    -0.004 C 
ATOM     21  C   UNL     1     -33.392  21.860   0.323  0.00  0.00    +0.029 C 
ATOM     22  C   UNL     1     -33.629  19.609   1.169  0.00  0.00    +0.029 C 
ATOM     23  C   UNL     1     -32.917  20.553   0.429  0.00  0.00    +0.140 C 
ENDBRANCH   9  18
ENDBRANCH   1   9
BRANCH   2  24
ATOM     24  C   UNL     1     -40.595  21.634  -1.590  0.00  0.00    -0.047 C 
BRANCH  24  25
ATOM     25  C   UNL     1     -40.880  20.479  -2.556  0.00  0.00    +0.101 C 
BRANCH  25  26
ATOM     26  O   UNL     1     -39.697  20.245  -3.324  0.00  0.00    -0.386 OA
ATOM     27  H   UNL     1     -39.614  20.931  -4.005  0.00  0.00    +0.210 HD
ENDBRANCH  25  26
BRANCH  25  28
ATOM     28  C   UNL     1     -41.340  19.159  -1.921  0.00  0.00    +0.090 C 
BRANCH  28  29
ATOM     29  S   UNL     1     -41.026  17.688  -2.946  0.00  0.00    -0.095 S 
BRANCH  29  34
ATOM     30  N   UNL     1     -40.472  15.396  -1.623  0.00  0.00    -0.241 NA
ATOM     31  N   UNL     1     -38.352  18.355  -1.097  0.00  0.00    -0.271 NA
ATOM     32  N   UNL     1     -38.643  15.046  -0.046  0.00  0.00    -0.232 NA
ATOM     33  N   UNL     1     -37.249  17.008   0.294  0.00  0.00    -0.307 N 
ATOM     34  C   UNL     1     -40.092  16.666  -1.815  0.00  0.00    +0.103 C 
ATOM     35  C   UNL     1     -39.004  17.156  -1.148  0.00  0.00    +0.156 C 
ATOM     36  C   UNL     1     -38.301  16.336  -0.275  0.00  0.00    +0.124 C 
ATOM     37  C   UNL     1     -39.729  14.668  -0.755  0.00  0.00    +0.252 C 
ATOM     38  C   UNL     1     -37.308  18.217  -0.221  0.00  0.00    +0.163 C 
ATOM     39  H   UNL     1     -38.589  19.169  -1.599  0.00  0.00    +0.125 HD
ATOM     40  H   UNL     1     -36.595  16.662   0.943  0.00  0.00    +0.149 HD
ENDBRANCH  29  34
ENDBRANCH  28  29
ENDBRANCH  25  28
ENDBRANCH  24  25
ENDBRANCH   2  24
TORSDOF 9
ENDMDL
MODEL 8
REMARK VINA RESULT:      -6.4      2.859      4.267
REMARK  Name = 193951
REMARK  9 active torsions:
REMARK  status: ('A' for Active; 'I' for Inactive)
REMARK    1  A    between atoms: N_1  and  C_9
REMARK    2  A    between atoms: N_2  and  C_24
REMARK    3  A    between atoms: C_9  and  C_11
REMARK    4  A    between atoms: C_9  and  C_18
REMARK    5  A    between atoms: C_24  and  C_25
REMARK    6  A    between atoms: C_25  and  O_26
REMARK    7  A    between atoms: C_25  and  C_28
REMARK    8  A    between atoms: C_28  and  S_29
REMARK    9  A    between atoms: S_29  and  C_34
REMARK                            x       y       z     vdW  Elec       q    Type
REMARK                         _______ _______ _______ _____ _____    ______ ____
ROOT
ATOM      1  N   UNL     1     -37.555  23.693   2.498  0.00  0.00    +0.390 N 
ATOM      2  N   UNL     1     -40.333  24.355   2.050  0.00  0.00    +0.386 N 
ATOM      3  C   UNL     1     -38.526  22.669   2.095  0.00  0.00    -0.100 C 
ATOM      4  C   UNL     1     -38.218  24.756   3.264  0.00  0.00    -0.100 C 
ATOM      5  C   UNL     1     -39.670  23.291   1.286  0.00  0.00    -0.101 C 
ATOM      6  C   UNL     1     -39.361  25.378   2.454  0.00  0.00    -0.101 C 
ATOM      7  H   UNL     1     -37.154  24.106   1.656  0.00  0.00    -0.079 HD
ATOM      8  H   UNL     1     -40.735  23.943   2.892  0.00  0.00    -0.080 HD
ENDROOT
BRANCH   1   9
ATOM      9  C   UNL     1     -36.466  23.100   3.272  0.00  0.00    -0.012 C 
BRANCH   9  11
ATOM     10  F   UNL     1     -33.330  26.967   5.881  0.00  0.00    -0.204 F 
ATOM     11  C   UNL     1     -35.618  24.147   3.979  0.00  0.00    -0.037 C 
ATOM     12  C   UNL     1     -35.634  24.200   5.357  0.00  0.00    -0.004 C 
ATOM     13  C   UNL     1     -34.856  25.012   3.219  0.00  0.00    -0.004 C 
ATOM     14  C   UNL     1     -34.857  25.161   6.004  0.00  0.00    +0.029 C 
ATOM     15  C   UNL     1     -34.078  25.971   3.866  0.00  0.00    +0.029 C 
ATOM     16  C   UNL     1     -34.078  26.046   5.259  0.00  0.00    +0.140 C 
ENDBRANCH   9  11
BRANCH   9  18
ATOM     17  F   UNL     1     -33.328  19.592   0.198  0.00  0.00    -0.204 F 
ATOM     18  C   UNL     1     -35.616  22.150   2.440  0.00  0.00    -0.037 C 
ATOM     19  C   UNL     1     -35.414  20.863   2.895  0.00  0.00    -0.004 C 
ATOM     20  C   UNL     1     -35.073  22.605   1.255  0.00  0.00    -0.004 C 
ATOM     21  C   UNL     1     -34.635  19.992   2.132  0.00  0.00    +0.029 C 
ATOM     22  C   UNL     1     -34.295  21.734   0.493  0.00  0.00    +0.029 C 
ATOM     23  C   UNL     1     -34.076  20.428   0.931  0.00  0.00    +0.140 C 
ENDBRANCH   9  18
ENDBRANCH   1   9
BRANCH   2  24
ATOM     24  C   UNL     1     -41.421  24.949   1.275  0.00  0.00    -0.047 C 
BRANCH  24  25
ATOM     25  C   UNL     1     -41.633  26.428   1.616  0.00  0.00    +0.101 C 
BRANCH  25  26
ATOM     26  O   UNL     1     -41.677  27.161   0.390  0.00  0.00    -0.386 OA
ATOM     27  H   UNL     1     -40.775  27.286   0.056  0.00  0.00    +0.210 HD
ENDBRANCH  25  26
BRANCH  25  28
ATOM     28  C   UNL     1     -42.878  26.762   2.450  0.00  0.00    +0.090 C 
BRANCH  28  29
ATOM     29  S   UNL     1     -42.944  28.484   3.037  0.00  0.00    -0.095 S 
BRANCH  29  34
ATOM     30  N   UNL     1     -45.089  27.428   4.300  0.00  0.00    -0.241 NA
ATOM     31  N   UNL     1     -43.240  30.194   5.866  0.00  0.00    -0.271 NA
ATOM     32  N   UNL     1     -45.982  28.129   6.460  0.00  0.00    -0.232 NA
ATOM     33  N   UNL     1     -44.752  29.958   7.486  0.00  0.00    -0.307 N 
ATOM     34  C   UNL     1     -44.123  28.352   4.375  0.00  0.00    +0.103 C 
ATOM     35  C   UNL     1     -44.055  29.175   5.465  0.00  0.00    +0.156 C 
ATOM     36  C   UNL     1     -44.988  29.048   6.487  0.00  0.00    +0.124 C 
ATOM     37  C   UNL     1     -45.954  27.373   5.341  0.00  0.00    +0.252 C 
ATOM     38  C   UNL     1     -43.696  30.630   7.082  0.00  0.00    +0.163 C 
ATOM     39  H   UNL     1     -42.465  30.549   5.373  0.00  0.00    +0.125 HD
ATOM     40  H   UNL     1     -45.261  30.081   8.319  0.00  0.00    +0.149 HD
ENDBRANCH  29  34
ENDBRANCH  28  29
ENDBRANCH  25  28
ENDBRANCH  24  25
ENDBRANCH   2  24
TORSDOF 9
ENDMDL
MODEL 9
REMARK VINA RESULT:      -6.4      3.571      6.143
REMARK  Name = 193951
REMARK  9 active torsions:
REMARK  status: ('A' for Active; 'I' for Inactive)
REMARK    1  A    between atoms: N_1  and  C_9
REMARK    2  A    between atoms: N_2  and  C_24
REMARK    3  A    between atoms: C_9  and  C_11
REMARK    4  A    between atoms: C_9  and  C_18
REMARK    5  A    between atoms: C_24  and  C_25
REMARK    6  A    between atoms: C_25  and  O_26
REMARK    7  A    between atoms: C_25  and  C_28
REMARK    8  A    between atoms: C_28  and  S_29
REMARK    9  A    between atoms: S_29  and  C_34
REMARK                            x       y       z     vdW  Elec       q    Type
REMARK                         _______ _______ _______ _____ _____    ______ ____
ROOT
ATOM      1  N   UNL     1     -37.671  24.505   2.051  0.00  0.00    +0.390 N 
ATOM      2  N   UNL     1     -40.053  26.077   2.507  0.00  0.00    +0.386 N 
ATOM      3  C   UNL     1     -38.160  24.770   3.409  0.00  0.00    -0.100 C 
ATOM      4  C   UNL     1     -38.045  25.601   1.148  0.00  0.00    -0.100 C 
ATOM      5  C   UNL     1     -39.678  24.983   3.410  0.00  0.00    -0.101 C 
ATOM      6  C   UNL     1     -39.563  25.813   1.149  0.00  0.00    -0.101 C 
ATOM      7  H   UNL     1     -38.108  23.647   1.713  0.00  0.00    -0.079 HD
ATOM      8  H   UNL     1     -39.617  26.936   2.845  0.00  0.00    -0.080 HD
ENDROOT
BRANCH   1   9
ATOM      9  C   UNL     1     -36.223  24.304   2.050  0.00  0.00    -0.012 C 
BRANCH   9  11
ATOM     10  F   UNL     1     -34.796  18.947   1.128  0.00  0.00    -0.204 F 
ATOM     11  C   UNL     1     -35.838  22.853   1.801  0.00  0.00    -0.037 C 
ATOM     12  C   UNL     1     -36.698  21.854   2.207  0.00  0.00    -0.004 C 
ATOM     13  C   UNL     1     -34.638  22.581   1.175  0.00  0.00    -0.004 C 
ATOM     14  C   UNL     1     -36.343  20.525   1.979  0.00  0.00    +0.029 C 
ATOM     15  C   UNL     1     -34.283  21.252   0.947  0.00  0.00    +0.029 C 
ATOM     16  C   UNL     1     -35.135  20.223   1.349  0.00  0.00    +0.140 C 
ENDBRANCH   9  11
BRANCH   9  18
ATOM     17  F   UNL     1     -33.779  26.354   6.678  0.00  0.00    -0.204 F 
ATOM     18  C   UNL     1     -35.561  24.859   3.302  0.00  0.00    -0.037 C 
ATOM     19  C   UNL     1     -35.094  26.158   3.291  0.00  0.00    -0.004 C 
ATOM     20  C   UNL     1     -35.448  24.047   4.412  0.00  0.00    -0.004 C 
ATOM     21  C   UNL     1     -34.488  26.667   4.440  0.00  0.00    +0.029 C 
ATOM     22  C   UNL     1     -34.841  24.556   5.560  0.00  0.00    +0.029 C 
ATOM     23  C   UNL     1     -34.361  25.865   5.574  0.00  0.00    +0.140 C 
ENDBRANCH   9  18
ENDBRANCH   1   9
BRANCH   2  24
ATOM     24  C   UNL     1     -41.501  26.277   2.507  0.00  0.00    -0.047 C 
BRANCH  24  25
ATOM     25  C   UNL     1     -42.032  26.662   3.892  0.00  0.00    +0.101 C 
BRANCH  25  26
ATOM     26  O   UNL     1     -41.290  27.796   4.348  0.00  0.00    -0.386 OA
ATOM     27  H   UNL     1     -41.723  28.173   5.130  0.00  0.00    +0.210 HD
ENDBRANCH  25  26
BRANCH  25  28
ATOM     28  C   UNL     1     -43.533  26.970   3.984  0.00  0.00    +0.090 C 
BRANCH  28  29
ATOM     29  S   UNL     1     -44.069  28.382   2.967  0.00  0.00    -0.095 S 
BRANCH  29  34
ATOM     30  N   UNL     1     -43.638  29.458   5.410  0.00  0.00    -0.241 NA
ATOM     31  N   UNL     1     -45.257  31.476   2.796  0.00  0.00    -0.271 NA
ATOM     32  N   UNL     1     -44.226  31.719   6.115  0.00  0.00    -0.232 NA
ATOM     33  N   UNL     1     -45.295  33.043   4.380  0.00  0.00    -0.307 N 
ATOM     34  C   UNL     1     -44.134  29.687   4.187  0.00  0.00    +0.103 C 
ATOM     35  C   UNL     1     -44.678  30.907   3.894  0.00  0.00    +0.156 C 
ATOM     36  C   UNL     1     -44.714  31.899   4.865  0.00  0.00    +0.124 C 
ATOM     37  C   UNL     1     -43.714  30.481   6.294  0.00  0.00    +0.252 C 
ATOM     38  C   UNL     1     -45.609  32.755   3.135  0.00  0.00    +0.163 C 
ATOM     39  H   UNL     1     -45.395  31.046   1.921  0.00  0.00    +0.125 HD
ATOM     40  H   UNL     1     -45.444  33.891   4.857  0.00  0.00    +0.149 HD
ENDBRANCH  29  34
ENDBRANCH  28  29
ENDBRANCH  25  28
ENDBRANCH  24  25
ENDBRANCH   2  24
TORSDOF 9
ENDMDL
