MODEL 1
REMARK VINA RESULT:      -6.5      0.000      0.000
REMARK  Name = 53248452
REMARK  5 active torsions:
REMARK  status: ('A' for Active; 'I' for Inactive)
REMARK    1  A    between atoms: C_4  and  O_11
REMARK    2  A    between atoms: C_10  and  C_13
REMARK    3  A    between atoms: C_14  and  C_15
REMARK    4  A    between atoms: C_18  and  O_21
REMARK    5  A    between atoms: C_20  and  O_23
REMARK                            x       y       z     vdW  Elec       q    Type
REMARK                         _______ _______ _______ _____ _____    ______ ____
ROOT
ATOM      1  O   UNL     1     -37.310  22.862   3.269  0.00  0.00    -0.422 OA
ATOM      2  O   UNL     1     -39.247  23.985   3.121  0.00  0.00    -0.247 OA
ATOM      3  O   UNL     1     -34.161  25.109   5.261  0.00  0.00    -0.291 OA
ATOM      4  C   UNL     1     -37.273  25.293   3.570  0.00  0.00    +0.185 C 
ATOM      5  C   UNL     1     -36.512  25.214   4.884  0.00  0.00    +0.107 C 
ATOM      6  C   UNL     1     -36.471  25.736   2.348  0.00  0.00    +0.041 C 
ATOM      7  C   UNL     1     -38.032  24.013   3.313  0.00  0.00    +0.346 C 
ATOM      8  C   UNL     1     -35.157  24.574   4.772  0.00  0.00    +0.179 C 
ATOM      9  C   UNL     1     -35.012  23.252   4.122  0.00  0.00    +0.075 C 
ATOM     10  C   UNL     1     -35.950  22.531   3.488  0.00  0.00    +0.151 C 
ENDROOT
BRANCH   4  11
ATOM     11  O   UNL     1     -38.306  26.277   3.759  0.00  0.00    -0.376 OA
ATOM     12  H   UNL     1     -39.116  25.986   3.313  0.00  0.00    +0.211 HD
ENDBRANCH   4  11
BRANCH  10  13
ATOM     13  C   UNL     1     -35.633  21.231   2.950  0.00  0.00    +0.038 C 
ATOM     14  C   UNL     1     -34.971  21.060   1.797  0.00  0.00    +0.003 C 
BRANCH  14  15
ATOM     15  C   UNL     1     -34.634  19.754   1.203  0.00  0.00    +0.003 C 
ATOM     16  C   UNL     1     -33.426  19.135   1.521  0.00  0.00    +0.040 C 
ATOM     17  C   UNL     1     -35.523  19.138   0.322  0.00  0.00    +0.003 C 
ATOM     18  C   UNL     1     -33.105  17.899   0.958  0.00  0.00    +0.167 C 
ATOM     19  C   UNL     1     -35.203  17.903  -0.241  0.00  0.00    +0.040 C 
ATOM     20  C   UNL     1     -33.995  17.283   0.078  0.00  0.00    +0.167 C 
BRANCH  18  21
ATOM     21  O   UNL     1     -31.922  17.304   1.276  0.00  0.00    -0.503 OA
ATOM     22  H   UNL     1     -31.663  16.515   0.843  0.00  0.00    +0.292 HD
ENDBRANCH  18  21
BRANCH  20  23
ATOM     23  O   UNL     1     -33.694  16.077  -0.479  0.00  0.00    -0.503 OA
ATOM     24  H   UNL     1     -32.801  15.811  -0.568  0.00  0.00    +0.292 HD
ENDBRANCH  20  23
ENDBRANCH  14  15
ENDBRANCH  10  13
TORSDOF 5
ENDMDL
MODEL 2
REMARK VINA RESULT:      -6.4      4.589      6.799
REMARK  Name = 53248452
REMARK  5 active torsions:
REMARK  status: ('A' for Active; 'I' for Inactive)
REMARK    1  A    between atoms: C_4  and  O_11
REMARK    2  A    between atoms: C_10  and  C_13
REMARK    3  A    between atoms: C_14  and  C_15
REMARK    4  A    between atoms: C_18  and  O_21
REMARK    5  A    between atoms: C_20  and  O_23
REMARK                            x       y       z     vdW  Elec       q    Type
REMARK                         _______ _______ _______ _____ _____    ______ ____
ROOT
ATOM      1  O   UNL     1     -33.442  28.862   3.662  0.00  0.00    -0.422 OA
ATOM      2  O   UNL     1     -33.875  30.762   2.550  0.00  0.00    -0.247 OA
ATOM      3  O   UNL     1     -30.860  29.435   7.117  0.00  0.00    -0.291 OA
ATOM      4  C   UNL     1     -31.977  30.790   4.036  0.00  0.00    +0.185 C 
ATOM      5  C   UNL     1     -32.113  30.719   5.549  0.00  0.00    +0.107 C 
ATOM      6  C   UNL     1     -30.661  30.286   3.450  0.00  0.00    +0.041 C 
ATOM      7  C   UNL     1     -33.173  30.160   3.361  0.00  0.00    +0.346 C 
ATOM      8  C   UNL     1     -31.624  29.432   6.151  0.00  0.00    +0.179 C 
ATOM      9  C   UNL     1     -32.108  28.135   5.624  0.00  0.00    +0.075 C 
ATOM     10  C   UNL     1     -32.892  27.913   4.559  0.00  0.00    +0.151 C 
ENDROOT
BRANCH   4  11
ATOM     11  O   UNL     1     -32.075  32.182   3.686  0.00  0.00    -0.376 OA
ATOM     12  H   UNL     1     -31.795  32.725   4.438  0.00  0.00    +0.211 HD
ENDBRANCH   4  11
BRANCH  10  13
ATOM     13  C   UNL     1     -33.302  26.572   4.219  0.00  0.00    +0.038 C 
ATOM     14  C   UNL     1     -34.315  25.942   4.830  0.00  0.00    +0.003 C 
BRANCH  14  15
ATOM     15  C   UNL     1     -34.763  24.571   4.526  0.00  0.00    +0.003 C 
ATOM     16  C   UNL     1     -35.153  23.720   5.559  0.00  0.00    +0.040 C 
ATOM     17  C   UNL     1     -34.797  24.126   3.204  0.00  0.00    +0.003 C 
ATOM     18  C   UNL     1     -35.578  22.422   5.272  0.00  0.00    +0.167 C 
ATOM     19  C   UNL     1     -35.221  22.829   2.917  0.00  0.00    +0.040 C 
ATOM     20  C   UNL     1     -35.612  21.977   3.950  0.00  0.00    +0.167 C 
BRANCH  18  21
ATOM     21  O   UNL     1     -35.956  21.600   6.290  0.00  0.00    -0.503 OA
ATOM     22  H   UNL     1     -35.655  21.764   7.161  0.00  0.00    +0.292 HD
ENDBRANCH  18  21
BRANCH  20  23
ATOM     23  O   UNL     1     -36.024  20.713   3.656  0.00  0.00    -0.503 OA
ATOM     24  H   UNL     1     -35.921  20.028   4.287  0.00  0.00    +0.292 HD
ENDBRANCH  20  23
ENDBRANCH  14  15
ENDBRANCH  10  13
TORSDOF 5
ENDMDL
MODEL 3
REMARK VINA RESULT:      -6.3      1.444      8.088
REMARK  Name = 53248452
REMARK  5 active torsions:
REMARK  status: ('A' for Active; 'I' for Inactive)
REMARK    1  A    between atoms: C_4  and  O_11
REMARK    2  A    between atoms: C_10  and  C_13
REMARK    3  A    between atoms: C_14  and  C_15
REMARK    4  A    between atoms: C_18  and  O_21
REMARK    5  A    between atoms: C_20  and  O_23
REMARK                            x       y       z     vdW  Elec       q    Type
REMARK                         _______ _______ _______ _____ _____    ______ ____
ROOT
ATOM      1  O   UNL     1     -33.828  19.395   1.666  0.00  0.00    -0.422 OA
ATOM      2  O   UNL     1     -32.191  17.864   1.798  0.00  0.00    -0.247 OA
ATOM      3  O   UNL     1     -36.925  18.365  -1.211  0.00  0.00    -0.291 OA
ATOM      4  C   UNL     1     -33.584  17.788  -0.167  0.00  0.00    +0.185 C 
ATOM      5  C   UNL     1     -35.048  17.376  -0.126  0.00  0.00    +0.107 C 
ATOM      6  C   UNL     1     -33.171  18.703  -1.317  0.00  0.00    +0.041 C 
ATOM      7  C   UNL     1     -33.142  18.329   1.172  0.00  0.00    +0.346 C 
ATOM      8  C   UNL     1     -36.011  18.497  -0.396  0.00  0.00    +0.179 C 
ATOM      9  C   UNL     1     -35.909  19.763   0.365  0.00  0.00    +0.075 C 
ATOM     10  C   UNL     1     -34.967  20.125   1.250  0.00  0.00    +0.151 C 
ENDROOT
BRANCH   4  11
ATOM     11  O   UNL     1     -32.826  16.575  -0.318  0.00  0.00    -0.376 OA
ATOM     12  H   UNL     1     -31.891  16.792  -0.454  0.00  0.00    +0.211 HD
ENDBRANCH   4  11
BRANCH  10  13
ATOM     13  C   UNL     1     -35.057  21.392   1.935  0.00  0.00    +0.038 C 
ATOM     14  C   UNL     1     -35.893  21.611   2.959  0.00  0.00    +0.003 C 
BRANCH  14  15
ATOM     15  C   UNL     1     -36.028  22.887   3.682  0.00  0.00    +0.003 C 
ATOM     16  C   UNL     1     -37.002  23.808   3.297  0.00  0.00    +0.040 C 
ATOM     17  C   UNL     1     -35.180  23.175   4.752  0.00  0.00    +0.003 C 
ATOM     18  C   UNL     1     -37.130  25.017   3.981  0.00  0.00    +0.167 C 
ATOM     19  C   UNL     1     -35.308  24.384   5.437  0.00  0.00    +0.040 C 
ATOM     20  C   UNL     1     -36.282  25.304   5.051  0.00  0.00    +0.167 C 
BRANCH  18  21
ATOM     21  O   UNL     1     -38.085  25.908   3.596  0.00  0.00    -0.503 OA
ATOM     22  H   UNL     1     -38.698  26.239   4.222  0.00  0.00    +0.292 HD
ENDBRANCH  18  21
BRANCH  20  23
ATOM     23  O   UNL     1     -36.396  26.481   5.727  0.00  0.00    -0.503 OA
ATOM     24  H   UNL     1     -35.986  26.584   6.563  0.00  0.00    +0.292 HD
ENDBRANCH  20  23
ENDBRANCH  14  15
ENDBRANCH  10  13
TORSDOF 5
ENDMDL
MODEL 4
REMARK VINA RESULT:      -6.3      0.602      1.484
REMARK  Name = 53248452
REMARK  5 active torsions:
REMARK  status: ('A' for Active; 'I' for Inactive)
REMARK    1  A    between atoms: C_4  and  O_11
REMARK    2  A    between atoms: C_10  and  C_13
REMARK    3  A    between atoms: C_14  and  C_15
REMARK    4  A    between atoms: C_18  and  O_21
REMARK    5  A    between atoms: C_20  and  O_23
REMARK                            x       y       z     vdW  Elec       q    Type
REMARK                         _______ _______ _______ _____ _____    ______ ____
ROOT
ATOM      1  O   UNL     1     -37.289  22.835   3.292  0.00  0.00    -0.422 OA
ATOM      2  O   UNL     1     -39.227  23.955   3.129  0.00  0.00    -0.247 OA
ATOM      3  O   UNL     1     -34.159  25.087   5.308  0.00  0.00    -0.291 OA
ATOM      4  C   UNL     1     -37.258  25.267   3.592  0.00  0.00    +0.185 C 
ATOM      5  C   UNL     1     -36.506  25.189   4.912  0.00  0.00    +0.107 C 
ATOM      6  C   UNL     1     -36.447  25.710   2.376  0.00  0.00    +0.041 C 
ATOM      7  C   UNL     1     -38.014  23.985   3.330  0.00  0.00    +0.346 C 
ATOM      8  C   UNL     1     -35.150  24.550   4.811  0.00  0.00    +0.179 C 
ATOM      9  C   UNL     1     -34.998  23.228   4.163  0.00  0.00    +0.075 C 
ATOM     10  C   UNL     1     -35.931  22.506   3.522  0.00  0.00    +0.151 C 
ENDROOT
BRANCH   4  11
ATOM     11  O   UNL     1     -38.293  26.249   3.773  0.00  0.00    -0.376 OA
ATOM     12  H   UNL     1     -38.991  25.883   4.339  0.00  0.00    +0.211 HD
ENDBRANCH   4  11
BRANCH  10  13
ATOM     13  C   UNL     1     -35.608  21.205   2.987  0.00  0.00    +0.038 C 
ATOM     14  C   UNL     1     -34.984  21.034   1.814  0.00  0.00    +0.003 C 
BRANCH  14  15
ATOM     15  C   UNL     1     -34.643  19.728   1.222  0.00  0.00    +0.003 C 
ATOM     16  C   UNL     1     -35.526  19.112   0.336  0.00  0.00    +0.040 C 
ATOM     17  C   UNL     1     -33.435  19.109   1.547  0.00  0.00    +0.003 C 
ATOM     18  C   UNL     1     -35.204  17.875  -0.224  0.00  0.00    +0.167 C 
ATOM     19  C   UNL     1     -33.113  17.873   0.987  0.00  0.00    +0.040 C 
ATOM     20  C   UNL     1     -33.996  17.257   0.101  0.00  0.00    +0.167 C 
BRANCH  18  21
ATOM     21  O   UNL     1     -36.075  17.283  -1.088  0.00  0.00    -0.503 OA
ATOM     22  H   UNL     1     -36.924  17.021  -0.791  0.00  0.00    +0.292 HD
ENDBRANCH  18  21
BRANCH  20  23
ATOM     23  O   UNL     1     -33.669  16.050  -0.439  0.00  0.00    -0.503 OA
ATOM     24  H   UNL     1     -33.924  15.844  -1.316  0.00  0.00    +0.292 HD
ENDBRANCH  20  23
ENDBRANCH  14  15
ENDBRANCH  10  13
TORSDOF 5
ENDMDL
MODEL 5
REMARK VINA RESULT:      -6.3      1.135      2.453
REMARK  Name = 53248452
REMARK  5 active torsions:
REMARK  status: ('A' for Active; 'I' for Inactive)
REMARK    1  A    between atoms: C_4  and  O_11
REMARK    2  A    between atoms: C_10  and  C_13
REMARK    3  A    between atoms: C_14  and  C_15
REMARK    4  A    between atoms: C_18  and  O_21
REMARK    5  A    between atoms: C_20  and  O_23
REMARK                            x       y       z     vdW  Elec       q    Type
REMARK                         _______ _______ _______ _____ _____    ______ ____
ROOT
ATOM      1  O   UNL     1     -34.767  23.824   2.934  0.00  0.00    -0.422 OA
ATOM      2  O   UNL     1     -33.534  25.668   3.271  0.00  0.00    -0.247 OA
ATOM      3  O   UNL     1     -39.029  24.465   3.533  0.00  0.00    -0.291 OA
ATOM      4  C   UNL     1     -35.761  25.676   4.193  0.00  0.00    +0.185 C 
ATOM      5  C   UNL     1     -37.012  25.717   3.328  0.00  0.00    +0.107 C 
ATOM      6  C   UNL     1     -35.915  25.052   5.577  0.00  0.00    +0.041 C 
ATOM      7  C   UNL     1     -34.602  25.079   3.430  0.00  0.00    +0.346 C 
ATOM      8  C   UNL     1     -37.812  24.445   3.344  0.00  0.00    +0.179 C 
ATOM      9  C   UNL     1     -37.152  23.149   3.067  0.00  0.00    +0.075 C 
ATOM     10  C   UNL     1     -35.844  22.905   2.888  0.00  0.00    +0.151 C 
ENDROOT
BRANCH   4  11
ATOM     11  O   UNL     1     -35.370  27.044   4.403  0.00  0.00    -0.376 OA
ATOM     12  H   UNL     1     -36.160  27.606   4.432  0.00  0.00    +0.211 HD
ENDBRANCH   4  11
BRANCH  10  13
ATOM     13  C   UNL     1     -35.385  21.573   2.580  0.00  0.00    +0.038 C 
ATOM     14  C   UNL     1     -35.111  21.165   1.333  0.00  0.00    +0.003 C 
BRANCH  14  15
ATOM     15  C   UNL     1     -34.650  19.814   0.969  0.00  0.00    +0.003 C 
ATOM     16  C   UNL     1     -33.446  19.328   1.478  0.00  0.00    +0.040 C 
ATOM     17  C   UNL     1     -35.417  19.022   0.114  0.00  0.00    +0.003 C 
ATOM     18  C   UNL     1     -33.009  18.048   1.133  0.00  0.00    +0.167 C 
ATOM     19  C   UNL     1     -34.980  17.743  -0.231  0.00  0.00    +0.040 C 
ATOM     20  C   UNL     1     -33.777  17.256   0.278  0.00  0.00    +0.167 C 
BRANCH  18  21
ATOM     21  O   UNL     1     -31.831  17.584   1.636  0.00  0.00    -0.503 OA
ATOM     22  H   UNL     1     -31.729  17.472   2.560  0.00  0.00    +0.292 HD
ENDBRANCH  18  21
BRANCH  20  23
ATOM     23  O   UNL     1     -33.360  16.006  -0.067  0.00  0.00    -0.503 OA
ATOM     24  H   UNL     1     -32.856  15.497   0.536  0.00  0.00    +0.292 HD
ENDBRANCH  20  23
ENDBRANCH  14  15
ENDBRANCH  10  13
TORSDOF 5
ENDMDL
MODEL 6
REMARK VINA RESULT:      -6.2      4.497      7.089
REMARK  Name = 53248452
REMARK  5 active torsions:
REMARK  status: ('A' for Active; 'I' for Inactive)
REMARK    1  A    between atoms: C_4  and  O_11
REMARK    2  A    between atoms: C_10  and  C_13
REMARK    3  A    between atoms: C_14  and  C_15
REMARK    4  A    between atoms: C_18  and  O_21
REMARK    5  A    between atoms: C_20  and  O_23
REMARK                            x       y       z     vdW  Elec       q    Type
REMARK                         _______ _______ _______ _____ _____    ______ ____
ROOT
ATOM      1  O   UNL     1     -31.249  27.670   4.119  0.00  0.00    -0.422 OA
ATOM      2  O   UNL     1     -29.215  28.176   4.922  0.00  0.00    -0.247 OA
ATOM      3  O   UNL     1     -33.793  31.153   3.547  0.00  0.00    -0.291 OA
ATOM      4  C   UNL     1     -30.926  29.854   5.182  0.00  0.00    +0.185 C 
ATOM      5  C   UNL     1     -31.517  30.618   4.007  0.00  0.00    +0.107 C 
ATOM      6  C   UNL     1     -31.812  29.721   6.418  0.00  0.00    +0.041 C 
ATOM      7  C   UNL     1     -30.381  28.518   4.732  0.00  0.00    +0.346 C 
ATOM      8  C   UNL     1     -32.947  30.271   3.705  0.00  0.00    +0.179 C 
ATOM      9  C   UNL     1     -33.347  28.857   3.529  0.00  0.00    +0.075 C 
ATOM     10  C   UNL     1     -32.601  27.755   3.706  0.00  0.00    +0.151 C 
ENDROOT
BRANCH   4  11
ATOM     11  O   UNL     1     -29.757  30.584   5.593  0.00  0.00    -0.376 OA
ATOM     12  H   UNL     1     -29.013  30.356   5.015  0.00  0.00    +0.211 HD
ENDBRANCH   4  11
BRANCH  10  13
ATOM     13  C   UNL     1     -33.152  26.449   3.442  0.00  0.00    +0.038 C 
ATOM     14  C   UNL     1     -33.973  25.818   4.293  0.00  0.00    +0.003 C 
BRANCH  14  15
ATOM     15  C   UNL     1     -34.553  24.481   4.073  0.00  0.00    +0.003 C 
ATOM     16  C   UNL     1     -34.988  23.723   5.160  0.00  0.00    +0.040 C 
ATOM     17  C   UNL     1     -34.666  23.974   2.778  0.00  0.00    +0.003 C 
ATOM     18  C   UNL     1     -35.538  22.457   4.952  0.00  0.00    +0.167 C 
ATOM     19  C   UNL     1     -35.215  22.709   2.571  0.00  0.00    +0.040 C 
ATOM     20  C   UNL     1     -35.651  21.951   3.657  0.00  0.00    +0.167 C 
BRANCH  18  21
ATOM     21  O   UNL     1     -35.959  21.725   6.021  0.00  0.00    -0.503 OA
ATOM     22  H   UNL     1     -35.918  22.089   6.883  0.00  0.00    +0.292 HD
ENDBRANCH  18  21
BRANCH  20  23
ATOM     23  O   UNL     1     -36.185  20.716   3.440  0.00  0.00    -0.503 OA
ATOM     24  H   UNL     1     -36.675  20.293   4.116  0.00  0.00    +0.292 HD
ENDBRANCH  20  23
ENDBRANCH  14  15
ENDBRANCH  10  13
TORSDOF 5
ENDMDL
MODEL 7
REMARK VINA RESULT:      -6.1      1.589      1.879
REMARK  Name = 53248452
REMARK  5 active torsions:
REMARK  status: ('A' for Active; 'I' for Inactive)
REMARK    1  A    between atoms: C_4  and  O_11
REMARK    2  A    between atoms: C_10  and  C_13
REMARK    3  A    between atoms: C_14  and  C_15
REMARK    4  A    between atoms: C_18  and  O_21
REMARK    5  A    between atoms: C_20  and  O_23
REMARK                            x       y       z     vdW  Elec       q    Type
REMARK                         _______ _______ _______ _____ _____    ______ ____
ROOT
ATOM      1  O   UNL     1     -35.595  24.034   2.191  0.00  0.00    -0.422 OA
ATOM      2  O   UNL     1     -35.839  26.239   1.850  0.00  0.00    -0.247 OA
ATOM      3  O   UNL     1     -35.938  22.889   6.376  0.00  0.00    -0.291 OA
ATOM      4  C   UNL     1     -35.337  25.546   4.103  0.00  0.00    +0.185 C 
ATOM      5  C   UNL     1     -36.321  24.773   4.967  0.00  0.00    +0.107 C 
ATOM      6  C   UNL     1     -33.858  25.363   4.434  0.00  0.00    +0.041 C 
ATOM      7  C   UNL     1     -35.620  25.319   2.636  0.00  0.00    +0.346 C 
ATOM      8  C   UNL     1     -35.921  23.349   5.233  0.00  0.00    +0.179 C 
ATOM      9  C   UNL     1     -35.560  22.457   4.107  0.00  0.00    +0.075 C 
ATOM     10  C   UNL     1     -35.432  22.770   2.809  0.00  0.00    +0.151 C 
ENDROOT
BRANCH   4  11
ATOM     11  O   UNL     1     -35.632  26.940   4.301  0.00  0.00    -0.376 OA
ATOM     12  H   UNL     1     -36.011  27.310   3.489  0.00  0.00    +0.211 HD
ENDBRANCH   4  11
BRANCH  10  13
ATOM     13  C   UNL     1     -35.114  21.750   1.839  0.00  0.00    +0.038 C 
ATOM     14  C   UNL     1     -34.790  20.495   2.180  0.00  0.00    +0.003 C 
BRANCH  14  15
ATOM     15  C   UNL     1     -34.449  19.423   1.229  0.00  0.00    +0.003 C 
ATOM     16  C   UNL     1     -33.312  18.642   1.437  0.00  0.00    +0.040 C 
ATOM     17  C   UNL     1     -35.263  19.189   0.120  0.00  0.00    +0.003 C 
ATOM     18  C   UNL     1     -32.988  17.627   0.536  0.00  0.00    +0.167 C 
ATOM     19  C   UNL     1     -34.939  18.174  -0.780  0.00  0.00    +0.040 C 
ATOM     20  C   UNL     1     -33.803  17.393  -0.572  0.00  0.00    +0.167 C 
BRANCH  18  21
ATOM     21  O   UNL     1     -31.875  16.871   0.750  0.00  0.00    -0.503 OA
ATOM     22  H   UNL     1     -31.655  16.596   1.618  0.00  0.00    +0.292 HD
ENDBRANCH  18  21
BRANCH  20  23
ATOM     23  O   UNL     1     -33.497  16.405  -1.459  0.00  0.00    -0.503 OA
ATOM     24  H   UNL     1     -33.881  16.406  -2.313  0.00  0.00    +0.292 HD
ENDBRANCH  20  23
ENDBRANCH  14  15
ENDBRANCH  10  13
TORSDOF 5
ENDMDL
MODEL 8
REMARK VINA RESULT:      -6.1      3.958      6.540
REMARK  Name = 53248452
REMARK  5 active torsions:
REMARK  status: ('A' for Active; 'I' for Inactive)
REMARK    1  A    between atoms: C_4  and  O_11
REMARK    2  A    between atoms: C_10  and  C_13
REMARK    3  A    between atoms: C_14  and  C_15
REMARK    4  A    between atoms: C_18  and  O_21
REMARK    5  A    between atoms: C_20  and  O_23
REMARK                            x       y       z     vdW  Elec       q    Type
REMARK                         _______ _______ _______ _____ _____    ______ ____
ROOT
ATOM      1  O   UNL     1     -34.059  28.774   3.638  0.00  0.00    -0.422 OA
ATOM      2  O   UNL     1     -33.120  30.652   4.428  0.00  0.00    -0.247 OA
ATOM      3  O   UNL     1     -35.182  29.039  -0.558  0.00  0.00    -0.291 OA
ATOM      4  C   UNL     1     -34.378  30.854   2.382  0.00  0.00    +0.185 C 
ATOM      5  C   UNL     1     -33.920  30.241   1.068  0.00  0.00    +0.107 C 
ATOM      6  C   UNL     1     -35.881  31.073   2.539  0.00  0.00    +0.041 C 
ATOM      7  C   UNL     1     -33.791  30.104   3.555  0.00  0.00    +0.346 C 
ATOM      8  C   UNL     1     -34.763  29.088   0.599  0.00  0.00    +0.179 C 
ATOM      9  C   UNL     1     -35.048  27.958   1.512  0.00  0.00    +0.075 C 
ATOM     10  C   UNL     1     -34.732  27.841   2.811  0.00  0.00    +0.151 C 
ENDROOT
BRANCH   4  11
ATOM     11  O   UNL     1     -33.765  32.153   2.458  0.00  0.00    -0.376 OA
ATOM     12  H   UNL     1     -33.276  32.231   3.292  0.00  0.00    +0.211 HD
ENDBRANCH   4  11
BRANCH  10  13
ATOM     13  C   UNL     1     -35.055  26.636   3.536  0.00  0.00    +0.038 C 
ATOM     14  C   UNL     1     -34.504  25.446   3.257  0.00  0.00    +0.003 C 
BRANCH  14  15
ATOM     15  C   UNL     1     -34.809  24.188   3.961  0.00  0.00    +0.003 C 
ATOM     16  C   UNL     1     -35.216  23.066   3.239  0.00  0.00    +0.040 C 
ATOM     17  C   UNL     1     -34.691  24.120   5.349  0.00  0.00    +0.003 C 
ATOM     18  C   UNL     1     -35.504  21.875   3.905  0.00  0.00    +0.167 C 
ATOM     19  C   UNL     1     -34.979  22.929   6.015  0.00  0.00    +0.040 C 
ATOM     20  C   UNL     1     -35.386  21.807   5.294  0.00  0.00    +0.167 C 
BRANCH  18  21
ATOM     21  O   UNL     1     -35.901  20.786   3.190  0.00  0.00    -0.503 OA
ATOM     22  H   UNL     1     -35.712  19.924   3.504  0.00  0.00    +0.292 HD
ENDBRANCH  18  21
BRANCH  20  23
ATOM     23  O   UNL     1     -35.665  20.650   5.956  0.00  0.00    -0.503 OA
ATOM     24  H   UNL     1     -36.415  20.142   5.718  0.00  0.00    +0.292 HD
ENDBRANCH  20  23
ENDBRANCH  14  15
ENDBRANCH  10  13
TORSDOF 5
ENDMDL
MODEL 9
REMARK VINA RESULT:      -6.0      3.864      8.425
REMARK  Name = 53248452
REMARK  5 active torsions:
REMARK  status: ('A' for Active; 'I' for Inactive)
REMARK    1  A    between atoms: C_4  and  O_11
REMARK    2  A    between atoms: C_10  and  C_13
REMARK    3  A    between atoms: C_14  and  C_15
REMARK    4  A    between atoms: C_18  and  O_21
REMARK    5  A    between atoms: C_20  and  O_23
REMARK                            x       y       z     vdW  Elec       q    Type
REMARK                         _______ _______ _______ _____ _____    ______ ____
ROOT
ATOM      1  O   UNL     1     -34.474  23.796   2.645  0.00  0.00    -0.422 OA
ATOM      2  O   UNL     1     -34.890  22.513   0.851  0.00  0.00    -0.247 OA
ATOM      3  O   UNL     1     -35.968  22.098   6.362  0.00  0.00    -0.291 OA
ATOM      4  C   UNL     1     -36.201  22.067   2.823  0.00  0.00    +0.185 C 
ATOM      5  C   UNL     1     -35.609  21.472   4.091  0.00  0.00    +0.107 C 
ATOM      6  C   UNL     1     -37.460  22.914   2.997  0.00  0.00    +0.041 C 
ATOM      7  C   UNL     1     -35.141  22.787   2.023  0.00  0.00    +0.346 C 
ATOM      8  C   UNL     1     -35.552  22.427   5.251  0.00  0.00    +0.179 C 
ATOM      9  C   UNL     1     -34.934  23.762   5.084  0.00  0.00    +0.075 C 
ATOM     10  C   UNL     1     -34.473  24.328   3.958  0.00  0.00    +0.151 C 
ENDROOT
BRANCH   4  11
ATOM     11  O   UNL     1     -36.570  20.955   1.989  0.00  0.00    -0.376 OA
ATOM     12  H   UNL     1     -37.351  20.517   2.359  0.00  0.00    +0.211 HD
ENDBRANCH   4  11
BRANCH  10  13
ATOM     13  C   UNL     1     -33.856  25.631   3.995  0.00  0.00    +0.038 C 
ATOM     14  C   UNL     1     -33.483  26.230   5.135  0.00  0.00    +0.003 C 
BRANCH  14  15
ATOM     15  C   UNL     1     -32.860  27.562   5.224  0.00  0.00    +0.003 C 
ATOM     16  C   UNL     1     -32.221  27.955   6.400  0.00  0.00    +0.040 C 
ATOM     17  C   UNL     1     -32.908  28.430   4.133  0.00  0.00    +0.003 C 
ATOM     18  C   UNL     1     -31.630  29.217   6.485  0.00  0.00    +0.167 C 
ATOM     19  C   UNL     1     -32.318  29.691   4.218  0.00  0.00    +0.040 C 
ATOM     20  C   UNL     1     -31.680  30.084   5.393  0.00  0.00    +0.167 C 
BRANCH  18  21
ATOM     21  O   UNL     1     -31.010  29.590   7.639  0.00  0.00    -0.503 OA
ATOM     22  H   UNL     1     -31.503  29.986   8.329  0.00  0.00    +0.292 HD
ENDBRANCH  18  21
BRANCH  20  23
ATOM     23  O   UNL     1     -31.108  31.318   5.464  0.00  0.00    -0.503 OA
ATOM     24  H   UNL     1     -31.142  31.806   6.263  0.00  0.00    +0.292 HD
ENDBRANCH  20  23
ENDBRANCH  14  15
ENDBRANCH  10  13
TORSDOF 5
ENDMDL
