MODEL 1
REMARK VINA RESULT:      -4.6      0.000      0.000
REMARK  Name = 194475
REMARK  8 active torsions:
REMARK  status: ('A' for Active; 'I' for Inactive)
REMARK    1  A    between atoms: C_4  and  C_13
REMARK    2  A    between atoms: C_7  and  C_10
REMARK    3  A    between atoms: C_8  and  S_17
REMARK    4  A    between atoms: C_10  and  O_11
REMARK    5  A    between atoms: C_13  and  O_15
REMARK    6  A    between atoms: S_17  and  C_18
REMARK    7  A    between atoms: C_18  and  C_19
REMARK    8  A    between atoms: C_19  and  N_20
REMARK                            x       y       z     vdW  Elec       q    Type
REMARK                         _______ _______ _______ _____ _____    ______ ____
ROOT
ATOM      1  S   UNL     1     -34.134  25.845   5.174  0.00  0.00    -0.086 S 
ATOM      2  O   UNL     1     -37.528  24.129   2.774  0.00  0.00    -0.274 OA
ATOM      3  N   UNL     1     -36.470  25.871   3.969  0.00  0.00    -0.244 N 
ATOM      4  C   UNL     1     -36.441  24.123   5.092  0.00  0.00    +0.133 C 
ATOM      5  C   UNL     1     -35.938  25.561   5.306  0.00  0.00    +0.143 C 
ATOM      6  C   UNL     1     -36.986  24.630   3.734  0.00  0.00    +0.235 C 
ATOM      7  C   UNL     1     -35.585  26.528   3.149  0.00  0.00    +0.142 C 
ATOM      8  C   UNL     1     -34.333  26.644   3.625  0.00  0.00    +0.072 C 
ENDROOT
BRANCH   7  10
ATOM      9  O   UNL     1     -35.840  26.406   0.789  0.00  0.00    -0.244 OA
ATOM     10  C   UNL     1     -36.055  26.984   1.840  0.00  0.00    +0.353 C 
BRANCH  10  11
ATOM     11  O   UNL     1     -36.753  28.131   1.983  0.00  0.00    -0.476 OA
ATOM     12  H   UNL     1     -36.493  28.759   2.628  0.00  0.00    +0.295 HD
ENDBRANCH  10  11
ENDBRANCH   7  10
BRANCH   4  13
ATOM     13  C   UNL     1     -35.455  22.981   4.976  0.00  0.00    +0.122 C 
ATOM     14  C   UNL     1     -35.188  22.312   6.321  0.00  0.00    +0.032 C 
BRANCH  13  15
ATOM     15  O   UNL     1     -35.962  22.001   4.070  0.00  0.00    -0.384 OA
ATOM     16  H   UNL     1     -36.405  21.298   4.569  0.00  0.00    +0.210 HD
ENDBRANCH  13  15
ENDBRANCH   4  13
BRANCH   8  17
ATOM     17  S   UNL     1     -33.000  27.390   2.830  0.00  0.00    -0.108 S 
BRANCH  17  18
ATOM     18  C   UNL     1     -33.029  29.013   3.626  0.00  0.00    +0.039 C 
BRANCH  18  19
ATOM     19  C   UNL     1     -33.886  29.982   2.823  0.00  0.00    -0.074 C 
BRANCH  19  20
ATOM     20  N   UNL     1     -35.170  30.179   3.489  0.00  0.00    +0.381 N 
ATOM     21  H   UNL     1     -35.794  29.406   3.258  0.00  0.00    -0.089 HD
ATOM     22  H   UNL     1     -35.584  31.056   3.175  0.00  0.00    -0.089 HD
ATOM     23  H   UNL     1     -35.027  30.211   4.499  0.00  0.00    -0.089 HD
ENDBRANCH  19  20
ENDBRANCH  18  19
ENDBRANCH  17  18
ENDBRANCH   8  17
TORSDOF 8
ENDMDL
MODEL 2
REMARK VINA RESULT:      -4.6      3.183      4.453
REMARK  Name = 194475
REMARK  8 active torsions:
REMARK  status: ('A' for Active; 'I' for Inactive)
REMARK    1  A    between atoms: C_4  and  C_13
REMARK    2  A    between atoms: C_7  and  C_10
REMARK    3  A    between atoms: C_8  and  S_17
REMARK    4  A    between atoms: C_10  and  O_11
REMARK    5  A    between atoms: C_13  and  O_15
REMARK    6  A    between atoms: S_17  and  C_18
REMARK    7  A    between atoms: C_18  and  C_19
REMARK    8  A    between atoms: C_19  and  N_20
REMARK                            x       y       z     vdW  Elec       q    Type
REMARK                         _______ _______ _______ _____ _____    ______ ____
ROOT
ATOM      1  S   UNL     1     -36.602  23.633   1.053  0.00  0.00    -0.086 S 
ATOM      2  O   UNL     1     -35.186  20.889   4.322  0.00  0.00    -0.274 OA
ATOM      3  N   UNL     1     -35.001  22.820   2.973  0.00  0.00    -0.244 N 
ATOM      4  C   UNL     1     -35.335  21.151   1.780  0.00  0.00    +0.133 C 
ATOM      5  C   UNL     1     -35.126  22.652   1.516  0.00  0.00    +0.143 C 
ATOM      6  C   UNL     1     -35.128  21.495   3.275  0.00  0.00    +0.235 C 
ATOM      7  C   UNL     1     -35.776  23.827   3.493  0.00  0.00    +0.142 C 
ATOM      8  C   UNL     1     -36.641  24.394   2.633  0.00  0.00    +0.072 C 
ENDROOT
BRANCH   7  10
ATOM      9  O   UNL     1     -35.022  25.109   5.347  0.00  0.00    -0.244 OA
ATOM     10  C   UNL     1     -35.637  24.151   4.913  0.00  0.00    +0.353 C 
BRANCH  10  11
ATOM     11  O   UNL     1     -36.289  23.230   5.654  0.00  0.00    -0.476 OA
ATOM     12  H   UNL     1     -35.830  22.753   6.318  0.00  0.00    +0.295 HD
ENDBRANCH  10  11
ENDBRANCH   7  10
BRANCH   4  13
ATOM     13  C   UNL     1     -36.666  20.501   1.472  0.00  0.00    +0.122 C 
ATOM     14  C   UNL     1     -36.675  19.826   0.105  0.00  0.00    +0.032 C 
BRANCH  13  15
ATOM     15  O   UNL     1     -36.963  19.522   2.468  0.00  0.00    -0.384 OA
ATOM     16  H   UNL     1     -37.088  18.659   2.045  0.00  0.00    +0.210 HD
ENDBRANCH  13  15
ENDBRANCH   4  13
BRANCH   8  17
ATOM     17  S   UNL     1     -37.754  25.659   2.985  0.00  0.00    -0.108 S 
BRANCH  17  18
ATOM     18  C   UNL     1     -37.068  26.977   1.956  0.00  0.00    +0.039 C 
BRANCH  18  19
ATOM     19  C   UNL     1     -35.598  27.198   2.289  0.00  0.00    -0.074 C 
BRANCH  19  20
ATOM     20  N   UNL     1     -35.467  27.676   3.662  0.00  0.00    +0.381 N 
ATOM     21  H   UNL     1     -34.486  27.647   3.939  0.00  0.00    -0.089 HD
ATOM     22  H   UNL     1     -36.014  27.080   4.283  0.00  0.00    -0.089 HD
ATOM     23  H   UNL     1     -35.809  28.636   3.721  0.00  0.00    -0.089 HD
ENDBRANCH  19  20
ENDBRANCH  18  19
ENDBRANCH  17  18
ENDBRANCH   8  17
TORSDOF 8
ENDMDL
MODEL 3
REMARK VINA RESULT:      -4.6      3.733      5.994
REMARK  Name = 194475
REMARK  8 active torsions:
REMARK  status: ('A' for Active; 'I' for Inactive)
REMARK    1  A    between atoms: C_4  and  C_13
REMARK    2  A    between atoms: C_7  and  C_10
REMARK    3  A    between atoms: C_8  and  S_17
REMARK    4  A    between atoms: C_10  and  O_11
REMARK    5  A    between atoms: C_13  and  O_15
REMARK    6  A    between atoms: S_17  and  C_18
REMARK    7  A    between atoms: C_18  and  C_19
REMARK    8  A    between atoms: C_19  and  N_20
REMARK                            x       y       z     vdW  Elec       q    Type
REMARK                         _______ _______ _______ _____ _____    ______ ____
ROOT
ATOM      1  S   UNL     1     -36.402  24.499   2.162  0.00  0.00    -0.086 S 
ATOM      2  O   UNL     1     -34.803  22.049   5.576  0.00  0.00    -0.274 OA
ATOM      3  N   UNL     1     -36.433  22.571   3.948  0.00  0.00    -0.244 N 
ATOM      4  C   UNL     1     -35.896  24.288   4.988  0.00  0.00    +0.133 C 
ATOM      5  C   UNL     1     -36.879  23.971   3.848  0.00  0.00    +0.143 C 
ATOM      6  C   UNL     1     -35.581  22.772   4.994  0.00  0.00    +0.235 C 
ATOM      7  C   UNL     1     -36.090  22.002   2.746  0.00  0.00    +0.142 C 
ATOM      8  C   UNL     1     -36.058  22.842   1.697  0.00  0.00    +0.072 C 
ENDROOT
BRANCH   7  10
ATOM      9  O   UNL     1     -34.607  20.146   2.704  0.00  0.00    -0.244 OA
ATOM     10  C   UNL     1     -35.744  20.580   2.722  0.00  0.00    +0.353 C 
BRANCH  10  11
ATOM     11  O   UNL     1     -36.873  19.839   2.720  0.00  0.00    -0.476 OA
ATOM     12  H   UNL     1     -37.425  19.829   1.963  0.00  0.00    +0.295 HD
ENDBRANCH  10  11
ENDBRANCH   7  10
BRANCH   4  13
ATOM     13  C   UNL     1     -34.694  25.170   4.734  0.00  0.00    +0.122 C 
ATOM     14  C   UNL     1     -34.404  26.102   5.906  0.00  0.00    +0.032 C 
BRANCH  13  15
ATOM     15  O   UNL     1     -33.544  24.357   4.499  0.00  0.00    -0.384 OA
ATOM     16  H   UNL     1     -32.742  24.882   4.647  0.00  0.00    +0.210 HD
ENDBRANCH  13  15
ENDBRANCH   4  13
BRANCH   8  17
ATOM     17  S   UNL     1     -35.647  22.440   0.074  0.00  0.00    -0.108 S 
BRANCH  17  18
ATOM     18  C   UNL     1     -37.291  22.090  -0.589  0.00  0.00    +0.039 C 
BRANCH  18  19
ATOM     19  C   UNL     1     -37.524  20.587  -0.663  0.00  0.00    -0.074 C 
BRANCH  19  20
ATOM     20  N   UNL     1     -38.508  20.187   0.338  0.00  0.00    +0.381 N 
ATOM     21  H   UNL     1     -39.201  19.575  -0.092  0.00  0.00    -0.089 HD
ATOM     22  H   UNL     1     -38.971  21.016   0.710  0.00  0.00    -0.089 HD
ATOM     23  H   UNL     1     -38.039  19.690   1.096  0.00  0.00    -0.089 HD
ENDBRANCH  19  20
ENDBRANCH  18  19
ENDBRANCH  17  18
ENDBRANCH   8  17
TORSDOF 8
ENDMDL
MODEL 4
REMARK VINA RESULT:      -4.5      2.949      4.575
REMARK  Name = 194475
REMARK  8 active torsions:
REMARK  status: ('A' for Active; 'I' for Inactive)
REMARK    1  A    between atoms: C_4  and  C_13
REMARK    2  A    between atoms: C_7  and  C_10
REMARK    3  A    between atoms: C_8  and  S_17
REMARK    4  A    between atoms: C_10  and  O_11
REMARK    5  A    between atoms: C_13  and  O_15
REMARK    6  A    between atoms: S_17  and  C_18
REMARK    7  A    between atoms: C_18  and  C_19
REMARK    8  A    between atoms: C_19  and  N_20
REMARK                            x       y       z     vdW  Elec       q    Type
REMARK                         _______ _______ _______ _____ _____    ______ ____
ROOT
ATOM      1  S   UNL     1     -35.249  23.228   1.753  0.00  0.00    -0.086 S 
ATOM      2  O   UNL     1     -36.390  25.586   5.407  0.00  0.00    -0.274 OA
ATOM      3  N   UNL     1     -35.461  25.381   3.244  0.00  0.00    -0.244 N 
ATOM      4  C   UNL     1     -34.683  23.912   4.492  0.00  0.00    +0.133 C 
ATOM      5  C   UNL     1     -34.482  24.305   3.019  0.00  0.00    +0.143 C 
ATOM      6  C   UNL     1     -35.649  25.120   4.571  0.00  0.00    +0.235 C 
ATOM      7  C   UNL     1     -36.458  25.443   2.301  0.00  0.00    +0.142 C 
ATOM      8  C   UNL     1     -36.482  24.430   1.418  0.00  0.00    +0.072 C 
ENDROOT
BRANCH   7  10
ATOM      9  O   UNL     1     -37.367  27.548   1.677  0.00  0.00    -0.244 OA
ATOM     10  C   UNL     1     -37.414  26.548   2.371  0.00  0.00    +0.353 C 
BRANCH  10  11
ATOM     11  O   UNL     1     -38.342  26.286   3.316  0.00  0.00    -0.476 OA
ATOM     12  H   UNL     1     -38.224  26.603   4.190  0.00  0.00    +0.295 HD
ENDBRANCH  10  11
ENDBRANCH   7  10
BRANCH   4  13
ATOM     13  C   UNL     1     -35.319  22.586   4.846  0.00  0.00    +0.122 C 
ATOM     14  C   UNL     1     -35.088  22.208   6.306  0.00  0.00    +0.032 C 
BRANCH  13  15
ATOM     15  O   UNL     1     -36.725  22.649   4.606  0.00  0.00    -0.384 OA
ATOM     16  H   UNL     1     -36.933  22.185   3.780  0.00  0.00    +0.210 HD
ENDBRANCH  13  15
ENDBRANCH   4  13
BRANCH   8  17
ATOM     17  S   UNL     1     -37.613  24.213   0.138  0.00  0.00    -0.108 S 
BRANCH  17  18
ATOM     18  C   UNL     1     -38.928  23.346   1.024  0.00  0.00    +0.039 C 
BRANCH  18  19
ATOM     19  C   UNL     1     -38.720  21.839   0.938  0.00  0.00    -0.074 C 
BRANCH  19  20
ATOM     20  N   UNL     1     -38.449  21.299   2.266  0.00  0.00    +0.381 N 
ATOM     21  H   UNL     1     -38.097  20.345   2.179  0.00  0.00    -0.089 HD
ATOM     22  H   UNL     1     -39.309  21.295   2.814  0.00  0.00    -0.089 HD
ATOM     23  H   UNL     1     -37.751  21.878   2.733  0.00  0.00    -0.089 HD
ENDBRANCH  19  20
ENDBRANCH  18  19
ENDBRANCH  17  18
ENDBRANCH   8  17
TORSDOF 8
ENDMDL
MODEL 5
REMARK VINA RESULT:      -4.5      3.344      4.539
REMARK  Name = 194475
REMARK  8 active torsions:
REMARK  status: ('A' for Active; 'I' for Inactive)
REMARK    1  A    between atoms: C_4  and  C_13
REMARK    2  A    between atoms: C_7  and  C_10
REMARK    3  A    between atoms: C_8  and  S_17
REMARK    4  A    between atoms: C_10  and  O_11
REMARK    5  A    between atoms: C_13  and  O_15
REMARK    6  A    between atoms: S_17  and  C_18
REMARK    7  A    between atoms: C_18  and  C_19
REMARK    8  A    between atoms: C_19  and  N_20
REMARK                            x       y       z     vdW  Elec       q    Type
REMARK                         _______ _______ _______ _____ _____    ______ ____
ROOT
ATOM      1  S   UNL     1     -36.058  24.128   0.701  0.00  0.00    -0.086 S 
ATOM      2  O   UNL     1     -35.775  22.377   4.832  0.00  0.00    -0.274 OA
ATOM      3  N   UNL     1     -35.099  23.874   3.134  0.00  0.00    -0.244 N 
ATOM      4  C   UNL     1     -35.209  21.943   2.374  0.00  0.00    +0.133 C 
ATOM      5  C   UNL     1     -34.835  23.319   1.796  0.00  0.00    +0.143 C 
ATOM      6  C   UNL     1     -35.393  22.679   3.724  0.00  0.00    +0.235 C 
ATOM      7  C   UNL     1     -35.916  24.979   3.135  0.00  0.00    +0.142 C 
ATOM      8  C   UNL     1     -36.473  25.286   1.951  0.00  0.00    +0.072 C 
ENDROOT
BRANCH   7  10
ATOM      9  O   UNL     1     -35.479  26.608   4.809  0.00  0.00    -0.244 OA
ATOM     10  C   UNL     1     -36.146  25.674   4.402  0.00  0.00    +0.353 C 
BRANCH  10  11
ATOM     11  O   UNL     1     -37.200  25.119   5.038  0.00  0.00    -0.476 OA
ATOM     12  H   UNL     1     -38.072  25.315   4.757  0.00  0.00    +0.295 HD
ENDBRANCH  10  11
ENDBRANCH   7  10
BRANCH   4  13
ATOM     13  C   UNL     1     -36.448  21.224   1.886  0.00  0.00    +0.122 C 
ATOM     14  C   UNL     1     -36.251  20.613   0.503  0.00  0.00    +0.032 C 
BRANCH  13  15
ATOM     15  O   UNL     1     -36.790  20.185   2.802  0.00  0.00    -0.384 OA
ATOM     16  H   UNL     1     -37.596  19.739   2.498  0.00  0.00    +0.210 HD
ENDBRANCH  13  15
ENDBRANCH   4  13
BRANCH   8  17
ATOM     17  S   UNL     1     -37.551  26.590   1.634  0.00  0.00    -0.108 S 
BRANCH  17  18
ATOM     18  C   UNL     1     -39.118  25.693   1.565  0.00  0.00    +0.039 C 
BRANCH  18  19
ATOM     19  C   UNL     1     -39.934  25.952   2.824  0.00  0.00    -0.074 C 
BRANCH  19  20
ATOM     20  N   UNL     1     -39.710  24.881   3.791  0.00  0.00    +0.381 N 
ATOM     21  H   UNL     1     -40.528  24.790   4.393  0.00  0.00    -0.089 HD
ATOM     22  H   UNL     1     -38.893  25.103   4.359  0.00  0.00    -0.089 HD
ATOM     23  H   UNL     1     -39.552  24.004   3.294  0.00  0.00    -0.089 HD
ENDBRANCH  19  20
ENDBRANCH  18  19
ENDBRANCH  17  18
ENDBRANCH   8  17
TORSDOF 8
ENDMDL
MODEL 6
REMARK VINA RESULT:      -4.5      1.939      2.946
REMARK  Name = 194475
REMARK  8 active torsions:
REMARK  status: ('A' for Active; 'I' for Inactive)
REMARK    1  A    between atoms: C_4  and  C_13
REMARK    2  A    between atoms: C_7  and  C_10
REMARK    3  A    between atoms: C_8  and  S_17
REMARK    4  A    between atoms: C_10  and  O_11
REMARK    5  A    between atoms: C_13  and  O_15
REMARK    6  A    between atoms: S_17  and  C_18
REMARK    7  A    between atoms: C_18  and  C_19
REMARK    8  A    between atoms: C_19  and  N_20
REMARK                            x       y       z     vdW  Elec       q    Type
REMARK                         _______ _______ _______ _____ _____    ______ ____
ROOT
ATOM      1  S   UNL     1     -33.707  25.315   3.827  0.00  0.00    -0.086 S 
ATOM      2  O   UNL     1     -38.142  24.600   4.006  0.00  0.00    -0.274 OA
ATOM      3  N   UNL     1     -36.238  25.998   4.008  0.00  0.00    -0.244 N 
ATOM      4  C   UNL     1     -35.980  24.446   5.367  0.00  0.00    +0.133 C 
ATOM      5  C   UNL     1     -35.136  25.653   4.921  0.00  0.00    +0.143 C 
ATOM      6  C   UNL     1     -37.060  24.979   4.394  0.00  0.00    +0.235 C 
ATOM      7  C   UNL     1     -35.843  26.250   2.717  0.00  0.00    +0.142 C 
ATOM      8  C   UNL     1     -34.552  25.990   2.447  0.00  0.00    +0.072 C 
ENDROOT
BRANCH   7  10
ATOM      9  O   UNL     1     -37.484  25.987   1.018  0.00  0.00    -0.244 OA
ATOM     10  C   UNL     1     -36.848  26.714   1.760  0.00  0.00    +0.353 C 
BRANCH  10  11
ATOM     11  O   UNL     1     -36.953  28.058   1.828  0.00  0.00    -0.476 OA
ATOM     12  H   UNL     1     -36.190  28.581   1.979  0.00  0.00    +0.295 HD
ENDBRANCH  10  11
ENDBRANCH   7  10
BRANCH   4  13
ATOM     13  C   UNL     1     -35.515  23.039   5.067  0.00  0.00    +0.122 C 
ATOM     14  C   UNL     1     -35.300  22.220   6.335  0.00  0.00    +0.032 C 
BRANCH  13  15
ATOM     15  O   UNL     1     -36.485  22.378   4.254  0.00  0.00    -0.384 OA
ATOM     16  H   UNL     1     -37.364  22.483   4.650  0.00  0.00    +0.210 HD
ENDBRANCH  13  15
ENDBRANCH   4  13
BRANCH   8  17
ATOM     17  S   UNL     1     -33.765  26.182   0.927  0.00  0.00    -0.108 S 
BRANCH  17  18
ATOM     18  C   UNL     1     -33.422  24.453   0.531  0.00  0.00    +0.039 C 
BRANCH  18  19
ATOM     19  C   UNL     1     -34.722  23.668   0.410  0.00  0.00    -0.074 C 
BRANCH  19  20
ATOM     20  N   UNL     1     -34.784  22.648   1.452  0.00  0.00    +0.381 N 
ATOM     21  H   UNL     1     -35.043  21.753   1.036  0.00  0.00    -0.089 HD
ATOM     22  H   UNL     1     -35.481  22.914   2.147  0.00  0.00    -0.089 HD
ATOM     23  H   UNL     1     -33.871  22.563   1.900  0.00  0.00    -0.089 HD
ENDBRANCH  19  20
ENDBRANCH  18  19
ENDBRANCH  17  18
ENDBRANCH   8  17
TORSDOF 8
ENDMDL
MODEL 7
REMARK VINA RESULT:      -4.5      3.065      5.943
REMARK  Name = 194475
REMARK  8 active torsions:
REMARK  status: ('A' for Active; 'I' for Inactive)
REMARK    1  A    between atoms: C_4  and  C_13
REMARK    2  A    between atoms: C_7  and  C_10
REMARK    3  A    between atoms: C_8  and  S_17
REMARK    4  A    between atoms: C_10  and  O_11
REMARK    5  A    between atoms: C_13  and  O_15
REMARK    6  A    between atoms: S_17  and  C_18
REMARK    7  A    between atoms: C_18  and  C_19
REMARK    8  A    between atoms: C_19  and  N_20
REMARK                            x       y       z     vdW  Elec       q    Type
REMARK                         _______ _______ _______ _____ _____    ______ ____
ROOT
ATOM      1  S   UNL     1     -37.424  25.387   2.754  0.00  0.00    -0.086 S 
ATOM      2  O   UNL     1     -33.438  24.706   4.719  0.00  0.00    -0.274 OA
ATOM      3  N   UNL     1     -35.799  24.773   4.726  0.00  0.00    -0.244 N 
ATOM      4  C   UNL     1     -35.042  26.526   3.904  0.00  0.00    +0.133 C 
ATOM      5  C   UNL     1     -36.452  25.978   4.188  0.00  0.00    +0.143 C 
ATOM      6  C   UNL     1     -34.521  25.218   4.550  0.00  0.00    +0.235 C 
ATOM      7  C   UNL     1     -36.301  23.593   4.235  0.00  0.00    +0.142 C 
ATOM      8  C   UNL     1     -37.187  23.715   3.231  0.00  0.00    +0.072 C 
ENDROOT
BRANCH   7  10
ATOM      9  O   UNL     1     -35.147  21.517   4.171  0.00  0.00    -0.244 OA
ATOM     10  C   UNL     1     -35.799  22.337   4.792  0.00  0.00    +0.353 C 
BRANCH  10  11
ATOM     11  O   UNL     1     -36.170  22.235   6.086  0.00  0.00    -0.476 OA
ATOM     12  H   UNL     1     -37.031  22.494   6.348  0.00  0.00    +0.295 HD
ENDBRANCH  10  11
ENDBRANCH   7  10
BRANCH   4  13
ATOM     13  C   UNL     1     -34.582  26.740   2.479  0.00  0.00    +0.122 C 
ATOM     14  C   UNL     1     -34.906  28.142   1.974  0.00  0.00    +0.032 C 
BRANCH  13  15
ATOM     15  O   UNL     1     -33.170  26.538   2.397  0.00  0.00    -0.384 OA
ATOM     16  H   UNL     1     -32.824  26.317   3.276  0.00  0.00    +0.210 HD
ENDBRANCH  13  15
ENDBRANCH   4  13
BRANCH   8  17
ATOM     17  S   UNL     1     -37.973  22.431   2.396  0.00  0.00    -0.108 S 
BRANCH  17  18
ATOM     18  C   UNL     1     -36.718  22.051   1.152  0.00  0.00    +0.039 C 
BRANCH  18  19
ATOM     19  C   UNL     1     -36.561  20.544   1.000  0.00  0.00    -0.074 C 
BRANCH  19  20
ATOM     20  N   UNL     1     -36.822  19.887   2.277  0.00  0.00    +0.381 N 
ATOM     21  H   UNL     1     -37.610  19.248   2.176  0.00  0.00    -0.089 HD
ATOM     22  H   UNL     1     -37.043  20.590   2.982  0.00  0.00    -0.089 HD
ATOM     23  H   UNL     1     -35.994  19.364   2.565  0.00  0.00    -0.089 HD
ENDBRANCH  19  20
ENDBRANCH  18  19
ENDBRANCH  17  18
ENDBRANCH   8  17
TORSDOF 8
ENDMDL
MODEL 8
REMARK VINA RESULT:      -4.4      2.560      3.124
REMARK  Name = 194475
REMARK  8 active torsions:
REMARK  status: ('A' for Active; 'I' for Inactive)
REMARK    1  A    between atoms: C_4  and  C_13
REMARK    2  A    between atoms: C_7  and  C_10
REMARK    3  A    between atoms: C_8  and  S_17
REMARK    4  A    between atoms: C_10  and  O_11
REMARK    5  A    between atoms: C_13  and  O_15
REMARK    6  A    between atoms: S_17  and  C_18
REMARK    7  A    between atoms: C_18  and  C_19
REMARK    8  A    between atoms: C_19  and  N_20
REMARK                            x       y       z     vdW  Elec       q    Type
REMARK                         _______ _______ _______ _____ _____    ______ ____
ROOT
ATOM      1  S   UNL     1     -35.468  24.689   0.995  0.00  0.00    -0.086 S 
ATOM      2  O   UNL     1     -36.312  23.121   5.123  0.00  0.00    -0.274 OA
ATOM      3  N   UNL     1     -34.954  24.211   3.527  0.00  0.00    -0.244 N 
ATOM      4  C   UNL     1     -35.655  22.415   2.752  0.00  0.00    +0.133 C 
ATOM      5  C   UNL     1     -34.750  23.545   2.231  0.00  0.00    +0.143 C 
ATOM      6  C   UNL     1     -35.721  23.223   4.071  0.00  0.00    +0.235 C 
ATOM      7  C   UNL     1     -35.317  25.532   3.431  0.00  0.00    +0.142 C 
ATOM      8  C   UNL     1     -35.586  25.969   2.188  0.00  0.00    +0.072 C 
ENDROOT
BRANCH   7  10
ATOM      9  O   UNL     1     -34.520  26.946   5.167  0.00  0.00    -0.244 OA
ATOM     10  C   UNL     1     -35.431  26.315   4.663  0.00  0.00    +0.353 C 
BRANCH  10  11
ATOM     11  O   UNL     1     -36.689  26.224   5.143  0.00  0.00    -0.476 OA
ATOM     12  H   UNL     1     -37.354  25.799   4.637  0.00  0.00    +0.295 HD
ENDBRANCH  10  11
ENDBRANCH   7  10
BRANCH   4  13
ATOM     13  C   UNL     1     -37.002  22.162   2.112  0.00  0.00    +0.122 C 
ATOM     14  C   UNL     1     -37.114  20.751   1.544  0.00  0.00    +0.032 C 
BRANCH  13  15
ATOM     15  O   UNL     1     -38.035  22.350   3.079  0.00  0.00    -0.384 OA
ATOM     16  H   UNL     1     -38.862  21.968   2.747  0.00  0.00    +0.210 HD
ENDBRANCH  13  15
ENDBRANCH   4  13
BRANCH   8  17
ATOM     17  S   UNL     1     -36.084  27.557   1.746  0.00  0.00    -0.108 S 
BRANCH  17  18
ATOM     18  C   UNL     1     -34.481  28.286   1.340  0.00  0.00    +0.039 C 
BRANCH  18  19
ATOM     19  C   UNL     1     -34.091  29.324   2.384  0.00  0.00    -0.074 C 
BRANCH  19  20
ATOM     20  N   UNL     1     -35.186  29.510   3.331  0.00  0.00    +0.381 N 
ATOM     21  H   UNL     1     -34.805  29.681   4.262  0.00  0.00    -0.089 HD
ATOM     22  H   UNL     1     -35.765  28.671   3.350  0.00  0.00    -0.089 HD
ATOM     23  H   UNL     1     -35.752  30.309   3.043  0.00  0.00    -0.089 HD
ENDBRANCH  19  20
ENDBRANCH  18  19
ENDBRANCH  17  18
ENDBRANCH   8  17
TORSDOF 8
ENDMDL
MODEL 9
REMARK VINA RESULT:      -4.3      3.950      5.975
REMARK  Name = 194475
REMARK  8 active torsions:
REMARK  status: ('A' for Active; 'I' for Inactive)
REMARK    1  A    between atoms: C_4  and  C_13
REMARK    2  A    between atoms: C_7  and  C_10
REMARK    3  A    between atoms: C_8  and  S_17
REMARK    4  A    between atoms: C_10  and  O_11
REMARK    5  A    between atoms: C_13  and  O_15
REMARK    6  A    between atoms: S_17  and  C_18
REMARK    7  A    between atoms: C_18  and  C_19
REMARK    8  A    between atoms: C_19  and  N_20
REMARK                            x       y       z     vdW  Elec       q    Type
REMARK                         _______ _______ _______ _____ _____    ______ ____
ROOT
ATOM      1  S   UNL     1     -36.338  24.269   1.548  0.00  0.00    -0.086 S 
ATOM      2  O   UNL     1     -34.921  22.147   5.249  0.00  0.00    -0.274 OA
ATOM      3  N   UNL     1     -36.481  22.537   3.519  0.00  0.00    -0.244 N 
ATOM      4  C   UNL     1     -35.932  24.338   4.398  0.00  0.00    +0.133 C 
ATOM      5  C   UNL     1     -36.885  23.929   3.261  0.00  0.00    +0.143 C 
ATOM      6  C   UNL     1     -35.658  22.824   4.569  0.00  0.00    +0.235 C 
ATOM      7  C   UNL     1     -36.113  21.839   2.394  0.00  0.00    +0.142 C 
ATOM      8  C   UNL     1     -36.023  22.566   1.267  0.00  0.00    +0.072 C 
ENDROOT
BRANCH   7  10
ATOM      9  O   UNL     1     -34.681  19.957   2.623  0.00  0.00    -0.244 OA
ATOM     10  C   UNL     1     -35.805  20.415   2.527  0.00  0.00    +0.353 C 
BRANCH  10  11
ATOM     11  O   UNL     1     -36.951  19.701   2.526  0.00  0.00    -0.476 OA
ATOM     12  H   UNL     1     -36.981  18.863   2.944  0.00  0.00    +0.295 HD
ENDBRANCH  10  11
ENDBRANCH   7  10
BRANCH   4  13
ATOM     13  C   UNL     1     -34.699  25.161   4.098  0.00  0.00    +0.122 C 
ATOM     14  C   UNL     1     -34.979  26.659   4.153  0.00  0.00    +0.032 C 
BRANCH  13  15
ATOM     15  O   UNL     1     -33.675  24.851   5.043  0.00  0.00    -0.384 OA
ATOM     16  H   UNL     1     -32.826  24.764   4.582  0.00  0.00    +0.210 HD
ENDBRANCH  13  15
ENDBRANCH   4  13
BRANCH   8  17
ATOM     17  S   UNL     1     -35.569  21.990  -0.291  0.00  0.00    -0.108 S 
BRANCH  17  18
ATOM     18  C   UNL     1     -33.770  22.006  -0.119  0.00  0.00    +0.039 C 
BRANCH  18  19
ATOM     19  C   UNL     1     -33.183  20.674  -0.569  0.00  0.00    -0.074 C 
BRANCH  19  20
ATOM     20  N   UNL     1     -32.431  20.068   0.526  0.00  0.00    +0.381 N 
ATOM     21  H   UNL     1     -31.590  20.617   0.705  0.00  0.00    -0.089 HD
ATOM     22  H   UNL     1     -32.169  19.116   0.272  0.00  0.00    -0.089 HD
ATOM     23  H   UNL     1     -33.011  20.049   1.366  0.00  0.00    -0.089 HD
ENDBRANCH  19  20
ENDBRANCH  18  19
ENDBRANCH  17  18
ENDBRANCH   8  17
TORSDOF 8
ENDMDL
