MODEL 1
REMARK VINA RESULT:      -5.2      0.000      0.000
REMARK  Name = 193462
REMARK  8 active torsions:
REMARK  status: ('A' for Active; 'I' for Inactive)
REMARK    1  A    between atoms: C_1  and  P_2
REMARK    2  A    between atoms: C_1  and  P_8
REMARK    3  A    between atoms: C_1  and  C_14
REMARK    4  A    between atoms: P_2  and  O_4
REMARK    5  A    between atoms: P_2  and  O_6
REMARK    6  A    between atoms: P_8  and  O_10
REMARK    7  A    between atoms: P_8  and  O_12
REMARK    8  A    between atoms: C_14  and  C_15
REMARK                            x       y       z     vdW  Elec       q    Type
REMARK                         _______ _______ _______ _____ _____    ______ ____
ROOT
ATOM      1  C   UNL     1     -36.106  24.962   3.432  0.00  0.00    +0.212 C 
ENDROOT
BRANCH   1   2
ATOM      2  P   UNL     1     -35.402  26.141   4.658  0.00  0.00    +0.348 P 
ATOM      3  O   UNL     1     -34.184  25.653   5.385  0.00  0.00    -0.258 OA
BRANCH   2   4
ATOM      4  O   UNL     1     -36.667  26.509   5.594  0.00  0.00    -0.323 OA
ATOM      5  H   UNL     1     -37.403  26.807   5.038  0.00  0.00    +0.220 HD
ENDBRANCH   2   4
BRANCH   2   6
ATOM      6  O   UNL     1     -35.174  27.487   3.794  0.00  0.00    -0.323 OA
ATOM      7  H   UNL     1     -35.191  27.271   2.848  0.00  0.00    +0.220 HD
ENDBRANCH   2   6
ENDBRANCH   1   2
BRANCH   1   8
ATOM      8  P   UNL     1     -37.822  25.195   2.781  0.00  0.00    +0.348 P 
ATOM      9  O   UNL     1     -38.120  24.433   1.525  0.00  0.00    -0.258 OA
BRANCH   8  10
ATOM     10  O   UNL     1     -37.962  26.799   2.654  0.00  0.00    -0.323 OA
ATOM     11  H   UNL     1     -37.785  27.209   3.515  0.00  0.00    +0.220 HD
ENDBRANCH   8  10
BRANCH   8  12
ATOM     12  O   UNL     1     -38.750  24.830   4.051  0.00  0.00    -0.323 OA
ATOM     13  H   UNL     1     -38.234  24.923   4.867  0.00  0.00    +0.220 HD
ENDBRANCH   8  12
ENDBRANCH   1   8
BRANCH   1  14
ATOM     14  C   UNL     1     -35.975  23.500   3.924  0.00  0.00    +0.051 C 
BRANCH  14  15
ATOM     15  C   UNL     1     -35.425  22.539   2.902  0.00  0.00    -0.021 C 
ATOM     16  C   UNL     1     -35.539  21.173   3.120  0.00  0.00    -0.004 C 
ATOM     17  C   UNL     1     -34.813  23.033   1.759  0.00  0.00    -0.004 C 
ATOM     18  C   UNL     1     -35.030  20.283   2.174  0.00  0.00    -0.000 C 
ATOM     19  C   UNL     1     -34.305  22.143   0.813  0.00  0.00    -0.000 C 
ATOM     20  C   UNL     1     -34.413  20.768   1.021  0.00  0.00    -0.000 C 
ENDBRANCH  14  15
ENDBRANCH   1  14
TORSDOF 8
ENDMDL
MODEL 2
REMARK VINA RESULT:      -5.2      3.673      4.944
REMARK  Name = 193462
REMARK  8 active torsions:
REMARK  status: ('A' for Active; 'I' for Inactive)
REMARK    1  A    between atoms: C_1  and  P_2
REMARK    2  A    between atoms: C_1  and  P_8
REMARK    3  A    between atoms: C_1  and  C_14
REMARK    4  A    between atoms: P_2  and  O_4
REMARK    5  A    between atoms: P_2  and  O_6
REMARK    6  A    between atoms: P_8  and  O_10
REMARK    7  A    between atoms: P_8  and  O_12
REMARK    8  A    between atoms: C_14  and  C_15
REMARK                            x       y       z     vdW  Elec       q    Type
REMARK                         _______ _______ _______ _____ _____    ______ ____
ROOT
ATOM      1  C   UNL     1     -37.197  22.322   2.629  0.00  0.00    +0.212 C 
ENDROOT
BRANCH   1   2
ATOM      2  P   UNL     1     -35.923  20.992   2.625  0.00  0.00    +0.348 P 
ATOM      3  O   UNL     1     -34.788  21.200   1.666  0.00  0.00    -0.258 OA
BRANCH   2   4
ATOM      4  O   UNL     1     -36.787  19.646   2.396  0.00  0.00    -0.323 OA
ATOM      5  H   UNL     1     -37.688  19.883   2.130  0.00  0.00    +0.220 HD
ENDBRANCH   2   4
BRANCH   2   6
ATOM      6  O   UNL     1     -35.483  20.893   4.177  0.00  0.00    -0.323 OA
ATOM      7  H   UNL     1     -36.201  20.491   4.691  0.00  0.00    +0.220 HD
ENDBRANCH   2   6
ENDBRANCH   1   2
BRANCH   1   8
ATOM      8  P   UNL     1     -38.749  22.139   1.639  0.00  0.00    +0.348 P 
ATOM      9  O   UNL     1     -39.563  23.393   1.520  0.00  0.00    -0.258 OA
BRANCH   8  10
ATOM     10  O   UNL     1     -39.505  20.900   2.348  0.00  0.00    -0.323 OA
ATOM     11  H   UNL     1     -39.333  20.919   3.303  0.00  0.00    +0.220 HD
ENDBRANCH   8  10
BRANCH   8  12
ATOM     12  O   UNL     1     -38.225  21.517   0.244  0.00  0.00    -0.323 OA
ATOM     13  H   UNL     1     -38.810  20.794  -0.029  0.00  0.00    +0.220 HD
ENDBRANCH   8  12
ENDBRANCH   1   8
BRANCH   1  14
ATOM     14  C   UNL     1     -36.571  23.696   2.288  0.00  0.00    +0.051 C 
BRANCH  14  15
ATOM     15  C   UNL     1     -35.911  24.393   3.450  0.00  0.00    -0.021 C 
ATOM     16  C   UNL     1     -36.698  24.965   4.439  0.00  0.00    -0.004 C 
ATOM     17  C   UNL     1     -34.526  24.453   3.513  0.00  0.00    -0.004 C 
ATOM     18  C   UNL     1     -36.087  25.610   5.515  0.00  0.00    -0.000 C 
ATOM     19  C   UNL     1     -33.915  25.098   4.589  0.00  0.00    -0.000 C 
ATOM     20  C   UNL     1     -34.697  25.677   5.589  0.00  0.00    -0.000 C 
ENDBRANCH  14  15
ENDBRANCH   1  14
TORSDOF 8
ENDMDL
MODEL 3
REMARK VINA RESULT:      -5.2      1.860      2.776
REMARK  Name = 193462
REMARK  8 active torsions:
REMARK  status: ('A' for Active; 'I' for Inactive)
REMARK    1  A    between atoms: C_1  and  P_2
REMARK    2  A    between atoms: C_1  and  P_8
REMARK    3  A    between atoms: C_1  and  C_14
REMARK    4  A    between atoms: P_2  and  O_4
REMARK    5  A    between atoms: P_2  and  O_6
REMARK    6  A    between atoms: P_8  and  O_10
REMARK    7  A    between atoms: P_8  and  O_12
REMARK    8  A    between atoms: C_14  and  C_15
REMARK                            x       y       z     vdW  Elec       q    Type
REMARK                         _______ _______ _______ _____ _____    ______ ____
ROOT
ATOM      1  C   UNL     1     -35.943  25.938   3.167  0.00  0.00    +0.212 C 
ENDROOT
BRANCH   1   2
ATOM      2  P   UNL     1     -34.601  27.186   3.353  0.00  0.00    +0.348 P 
ATOM      3  O   UNL     1     -33.485  27.075   2.356  0.00  0.00    -0.258 OA
BRANCH   2   4
ATOM      4  O   UNL     1     -34.164  27.039   4.901  0.00  0.00    -0.323 OA
ATOM      5  H   UNL     1     -34.857  26.568   5.389  0.00  0.00    +0.220 HD
ENDBRANCH   2   4
BRANCH   2   6
ATOM      6  O   UNL     1     -35.393  28.593   3.321  0.00  0.00    -0.323 OA
ATOM      7  H   UNL     1     -34.755  29.324   3.329  0.00  0.00    +0.220 HD
ENDBRANCH   2   6
ENDBRANCH   1   2
BRANCH   1   8
ATOM      8  P   UNL     1     -37.495  26.357   2.252  0.00  0.00    +0.348 P 
ATOM      9  O   UNL     1     -37.422  27.619   1.446  0.00  0.00    -0.258 OA
BRANCH   8  10
ATOM     10  O   UNL     1     -38.626  26.349   3.405  0.00  0.00    -0.323 OA
ATOM     11  H   UNL     1     -38.483  27.097   4.006  0.00  0.00    +0.220 HD
ENDBRANCH   8  10
BRANCH   8  12
ATOM     12  O   UNL     1     -37.800  25.012   1.411  0.00  0.00    -0.323 OA
ATOM     13  H   UNL     1     -36.974  24.670   1.036  0.00  0.00    +0.220 HD
ENDBRANCH   8  12
ENDBRANCH   1   8
BRANCH   1  14
ATOM     14  C   UNL     1     -36.341  25.338   4.537  0.00  0.00    +0.051 C 
BRANCH  14  15
ATOM     15  C   UNL     1     -35.903  23.912   4.751  0.00  0.00    -0.021 C 
ATOM     16  C   UNL     1     -35.459  23.515   6.004  0.00  0.00    -0.004 C 
ATOM     17  C   UNL     1     -35.950  23.018   3.691  0.00  0.00    -0.004 C 
ATOM     18  C   UNL     1     -35.054  22.195   6.202  0.00  0.00    -0.000 C 
ATOM     19  C   UNL     1     -35.546  21.697   3.889  0.00  0.00    -0.000 C 
ATOM     20  C   UNL     1     -35.097  21.287   5.145  0.00  0.00    -0.000 C 
ENDBRANCH  14  15
ENDBRANCH   1  14
TORSDOF 8
ENDMDL
MODEL 4
REMARK VINA RESULT:      -5.1      3.573      5.359
REMARK  Name = 193462
REMARK  8 active torsions:
REMARK  status: ('A' for Active; 'I' for Inactive)
REMARK    1  A    between atoms: C_1  and  P_2
REMARK    2  A    between atoms: C_1  and  P_8
REMARK    3  A    between atoms: C_1  and  C_14
REMARK    4  A    between atoms: P_2  and  O_4
REMARK    5  A    between atoms: P_2  and  O_6
REMARK    6  A    between atoms: P_8  and  O_10
REMARK    7  A    between atoms: P_8  and  O_12
REMARK    8  A    between atoms: C_14  and  C_15
REMARK                            x       y       z     vdW  Elec       q    Type
REMARK                         _______ _______ _______ _____ _____    ______ ____
ROOT
ATOM      1  C   UNL     1     -37.722  21.380   1.867  0.00  0.00    +0.212 C 
ENDROOT
BRANCH   1   2
ATOM      2  P   UNL     1     -37.234  20.200   0.540  0.00  0.00    +0.348 P 
ATOM      3  O   UNL     1     -36.377  20.781  -0.545  0.00  0.00    -0.258 OA
BRANCH   2   4
ATOM      4  O   UNL     1     -38.645  19.580   0.053  0.00  0.00    -0.323 OA
ATOM      5  H   UNL     1     -39.266  19.566   0.797  0.00  0.00    +0.220 HD
ENDBRANCH   2   4
BRANCH   2   6
ATOM      6  O   UNL     1     -36.554  18.982   1.355  0.00  0.00    -0.323 OA
ATOM      7  H   UNL     1     -37.159  18.680   2.051  0.00  0.00    +0.220 HD
ENDBRANCH   2   6
ENDBRANCH   1   2
BRANCH   1   8
ATOM      8  P   UNL     1     -39.370  22.218   1.820  0.00  0.00    +0.348 P 
ATOM      9  O   UNL     1     -39.468  23.446   2.675  0.00  0.00    -0.258 OA
BRANCH   8  10
ATOM     10  O   UNL     1     -40.405  21.038   2.201  0.00  0.00    -0.323 OA
ATOM     11  H   UNL     1     -40.986  21.335   2.918  0.00  0.00    +0.220 HD
ENDBRANCH   8  10
BRANCH   8  12
ATOM     12  O   UNL     1     -39.621  22.449   0.241  0.00  0.00    -0.323 OA
ATOM     13  H   UNL     1     -39.294  21.682  -0.254  0.00  0.00    +0.220 HD
ENDBRANCH   8  12
ENDBRANCH   1   8
BRANCH   1  14
ATOM     14  C   UNL     1     -36.638  22.465   2.076  0.00  0.00    +0.051 C 
BRANCH  14  15
ATOM     15  C   UNL     1     -36.103  22.559   3.481  0.00  0.00    -0.021 C 
ATOM     16  C   UNL     1     -35.558  21.433   4.081  0.00  0.00    -0.004 C 
ATOM     17  C   UNL     1     -36.165  23.770   4.155  0.00  0.00    -0.004 C 
ATOM     18  C   UNL     1     -35.064  21.520   5.383  0.00  0.00    -0.000 C 
ATOM     19  C   UNL     1     -35.670  23.858   5.457  0.00  0.00    -0.000 C 
ATOM     20  C   UNL     1     -35.120  22.732   6.070  0.00  0.00    -0.000 C 
ENDBRANCH  14  15
ENDBRANCH   1  14
TORSDOF 8
ENDMDL
MODEL 5
REMARK VINA RESULT:      -5.1      1.910      3.704
REMARK  Name = 193462
REMARK  8 active torsions:
REMARK  status: ('A' for Active; 'I' for Inactive)
REMARK    1  A    between atoms: C_1  and  P_2
REMARK    2  A    between atoms: C_1  and  P_8
REMARK    3  A    between atoms: C_1  and  C_14
REMARK    4  A    between atoms: P_2  and  O_4
REMARK    5  A    between atoms: P_2  and  O_6
REMARK    6  A    between atoms: P_8  and  O_10
REMARK    7  A    between atoms: P_8  and  O_12
REMARK    8  A    between atoms: C_14  and  C_15
REMARK                            x       y       z     vdW  Elec       q    Type
REMARK                         _______ _______ _______ _____ _____    ______ ____
ROOT
ATOM      1  C   UNL     1     -36.794  25.498   3.073  0.00  0.00    +0.212 C 
ENDROOT
BRANCH   1   2
ATOM      2  P   UNL     1     -38.589  25.243   2.753  0.00  0.00    +0.348 P 
ATOM      3  O   UNL     1     -39.143  23.936   3.238  0.00  0.00    -0.258 OA
BRANCH   2   4
ATOM      4  O   UNL     1     -38.728  25.509   1.165  0.00  0.00    -0.323 OA
ATOM      5  H   UNL     1     -37.873  25.353   0.735  0.00  0.00    +0.220 HD
ENDBRANCH   2   4
BRANCH   2   6
ATOM      6  O   UNL     1     -39.274  26.550   3.411  0.00  0.00    -0.323 OA
ATOM      7  H   UNL     1     -38.691  26.910   4.097  0.00  0.00    +0.220 HD
ENDBRANCH   2   6
ENDBRANCH   1   2
BRANCH   1   8
ATOM      8  P   UNL     1     -35.916  26.973   2.383  0.00  0.00    +0.348 P 
ATOM      9  O   UNL     1     -34.833  26.648   1.397  0.00  0.00    -0.258 OA
BRANCH   8  10
ATOM     10  O   UNL     1     -35.424  27.769   3.699  0.00  0.00    -0.323 OA
ATOM     11  H   UNL     1     -34.506  28.057   3.579  0.00  0.00    +0.220 HD
ENDBRANCH   8  10
BRANCH   8  12
ATOM     12  O   UNL     1     -37.121  27.885   1.813  0.00  0.00    -0.323 OA
ATOM     13  H   UNL     1     -37.577  27.412   1.100  0.00  0.00    +0.220 HD
ENDBRANCH   8  12
ENDBRANCH   1   8
BRANCH   1  14
ATOM     14  C   UNL     1     -35.976  24.237   2.702  0.00  0.00    +0.051 C 
BRANCH  14  15
ATOM     15  C   UNL     1     -35.673  23.320   3.858  0.00  0.00    -0.021 C 
ATOM     16  C   UNL     1     -35.486  21.965   3.624  0.00  0.00    -0.004 C 
ATOM     17  C   UNL     1     -35.588  23.843   5.140  0.00  0.00    -0.004 C 
ATOM     18  C   UNL     1     -35.207  21.116   4.695  0.00  0.00    -0.000 C 
ATOM     19  C   UNL     1     -35.307  22.994   6.211  0.00  0.00    -0.000 C 
ATOM     20  C   UNL     1     -35.118  21.630   5.988  0.00  0.00    -0.000 C 
ENDBRANCH  14  15
ENDBRANCH   1  14
TORSDOF 8
ENDMDL
MODEL 6
REMARK VINA RESULT:      -5.1      0.484      3.100
REMARK  Name = 193462
REMARK  8 active torsions:
REMARK  status: ('A' for Active; 'I' for Inactive)
REMARK    1  A    between atoms: C_1  and  P_2
REMARK    2  A    between atoms: C_1  and  P_8
REMARK    3  A    between atoms: C_1  and  C_14
REMARK    4  A    between atoms: P_2  and  O_4
REMARK    5  A    between atoms: P_2  and  O_6
REMARK    6  A    between atoms: P_8  and  O_10
REMARK    7  A    between atoms: P_8  and  O_12
REMARK    8  A    between atoms: C_14  and  C_15
REMARK                            x       y       z     vdW  Elec       q    Type
REMARK                         _______ _______ _______ _____ _____    ______ ____
ROOT
ATOM      1  C   UNL     1     -36.252  24.849   3.575  0.00  0.00    +0.212 C 
ENDROOT
BRANCH   1   2
ATOM      2  P   UNL     1     -37.893  25.196   2.817  0.00  0.00    +0.348 P 
ATOM      3  O   UNL     1     -38.193  24.427   1.564  0.00  0.00    -0.258 OA
BRANCH   2   4
ATOM      4  O   UNL     1     -37.902  26.805   2.661  0.00  0.00    -0.323 OA
ATOM      5  H   UNL     1     -36.995  27.141   2.737  0.00  0.00    +0.220 HD
ENDBRANCH   2   4
BRANCH   2   6
ATOM      6  O   UNL     1     -38.928  24.934   4.030  0.00  0.00    -0.323 OA
ATOM      7  H   UNL     1     -39.711  25.495   3.914  0.00  0.00    +0.220 HD
ENDBRANCH   2   6
ENDBRANCH   1   2
BRANCH   1   8
ATOM      8  P   UNL     1     -35.474  26.065   4.731  0.00  0.00    +0.348 P 
ATOM      9  O   UNL     1     -34.282  25.542   5.475  0.00  0.00    -0.258 OA
BRANCH   8  10
ATOM     10  O   UNL     1     -36.705  26.540   5.663  0.00  0.00    -0.323 OA
ATOM     11  H   UNL     1     -37.421  25.888   5.612  0.00  0.00    +0.220 HD
ENDBRANCH   8  10
BRANCH   8  12
ATOM     12  O   UNL     1     -35.195  27.345   3.787  0.00  0.00    -0.323 OA
ATOM     13  H   UNL     1     -35.865  28.026   3.957  0.00  0.00    +0.220 HD
ENDBRANCH   8  12
ENDBRANCH   1   8
BRANCH   1  14
ATOM     14  C   UNL     1     -35.206  24.477   2.496  0.00  0.00    +0.051 C 
BRANCH  14  15
ATOM     15  C   UNL     1     -35.063  22.999   2.240  0.00  0.00    -0.021 C 
ATOM     16  C   UNL     1     -35.544  22.095   3.176  0.00  0.00    -0.004 C 
ATOM     17  C   UNL     1     -34.452  22.565   1.072  0.00  0.00    -0.004 C 
ATOM     18  C   UNL     1     -35.411  20.727   2.938  0.00  0.00    -0.000 C 
ATOM     19  C   UNL     1     -34.319  21.196   0.835  0.00  0.00    -0.000 C 
ATOM     20  C   UNL     1     -34.799  20.278   1.769  0.00  0.00    -0.000 C 
ENDBRANCH  14  15
ENDBRANCH   1  14
TORSDOF 8
ENDMDL
MODEL 7
REMARK VINA RESULT:      -5.1      2.600      4.363
REMARK  Name = 193462
REMARK  8 active torsions:
REMARK  status: ('A' for Active; 'I' for Inactive)
REMARK    1  A    between atoms: C_1  and  P_2
REMARK    2  A    between atoms: C_1  and  P_8
REMARK    3  A    between atoms: C_1  and  C_14
REMARK    4  A    between atoms: P_2  and  O_4
REMARK    5  A    between atoms: P_2  and  O_6
REMARK    6  A    between atoms: P_8  and  O_10
REMARK    7  A    between atoms: P_8  and  O_12
REMARK    8  A    between atoms: C_14  and  C_15
REMARK                            x       y       z     vdW  Elec       q    Type
REMARK                         _______ _______ _______ _____ _____    ______ ____
ROOT
ATOM      1  C   UNL     1     -38.532  23.702   2.785  0.00  0.00    +0.212 C 
ENDROOT
BRANCH   1   2
ATOM      2  P   UNL     1     -39.001  22.489   1.482  0.00  0.00    +0.348 P 
ATOM      3  O   UNL     1     -38.152  22.521   0.246  0.00  0.00    -0.258 OA
BRANCH   2   4
ATOM      4  O   UNL     1     -40.574  22.777   1.250  0.00  0.00    -0.323 OA
ATOM      5  H   UNL     1     -41.092  22.022   1.569  0.00  0.00    +0.220 HD
ENDBRANCH   2   4
BRANCH   2   6
ATOM      6  O   UNL     1     -38.994  21.076   2.267  0.00  0.00    -0.323 OA
ATOM      7  H   UNL     1     -38.708  20.372   1.663  0.00  0.00    +0.220 HD
ENDBRANCH   2   6
ENDBRANCH   1   2
BRANCH   1   8
ATOM      8  P   UNL     1     -39.394  25.335   2.903  0.00  0.00    +0.348 P 
ATOM      9  O   UNL     1     -40.116  25.749   1.656  0.00  0.00    -0.258 OA
BRANCH   8  10
ATOM     10  O   UNL     1     -38.226  26.343   3.381  0.00  0.00    -0.323 OA
ATOM     11  H   UNL     1     -37.801  25.992   4.179  0.00  0.00    +0.220 HD
ENDBRANCH   8  10
BRANCH   8  12
ATOM     12  O   UNL     1     -40.317  25.170   4.218  0.00  0.00    -0.323 OA
ATOM     13  H   UNL     1     -39.817  24.709   4.910  0.00  0.00    +0.220 HD
ENDBRANCH   8  12
ENDBRANCH   1   8
BRANCH   1  14
ATOM     14  C   UNL     1     -37.007  23.964   2.782  0.00  0.00    +0.051 C 
BRANCH  14  15
ATOM     15  C   UNL     1     -36.249  23.287   3.894  0.00  0.00    -0.021 C 
ATOM     16  C   UNL     1     -35.978  23.988   5.060  0.00  0.00    -0.004 C 
ATOM     17  C   UNL     1     -35.832  21.973   3.734  0.00  0.00    -0.004 C 
ATOM     18  C   UNL     1     -35.275  23.361   6.090  0.00  0.00    -0.000 C 
ATOM     19  C   UNL     1     -35.130  21.346   4.764  0.00  0.00    -0.000 C 
ATOM     20  C   UNL     1     -34.851  22.041   5.942  0.00  0.00    -0.000 C 
ENDBRANCH  14  15
ENDBRANCH   1  14
TORSDOF 8
ENDMDL
MODEL 8
REMARK VINA RESULT:      -5.0      3.130      4.986
REMARK  Name = 193462
REMARK  8 active torsions:
REMARK  status: ('A' for Active; 'I' for Inactive)
REMARK    1  A    between atoms: C_1  and  P_2
REMARK    2  A    between atoms: C_1  and  P_8
REMARK    3  A    between atoms: C_1  and  C_14
REMARK    4  A    between atoms: P_2  and  O_4
REMARK    5  A    between atoms: P_2  and  O_6
REMARK    6  A    between atoms: P_8  and  O_10
REMARK    7  A    between atoms: P_8  and  O_12
REMARK    8  A    between atoms: C_14  and  C_15
REMARK                            x       y       z     vdW  Elec       q    Type
REMARK                         _______ _______ _______ _____ _____    ______ ____
ROOT
ATOM      1  C   UNL     1     -36.086  21.161   1.869  0.00  0.00    +0.212 C 
ENDROOT
BRANCH   1   2
ATOM      2  P   UNL     1     -37.738  21.074   1.060  0.00  0.00    +0.348 P 
ATOM      3  O   UNL     1     -38.040  22.193   0.106  0.00  0.00    -0.258 OA
BRANCH   2   4
ATOM      4  O   UNL     1     -38.758  20.930   2.304  0.00  0.00    -0.323 OA
ATOM      5  H   UNL     1     -38.324  20.447   3.024  0.00  0.00    +0.220 HD
ENDBRANCH   2   4
BRANCH   2   6
ATOM      6  O   UNL     1     -37.751  19.602   0.394  0.00  0.00    -0.323 OA
ATOM      7  H   UNL     1     -38.600  19.171   0.579  0.00  0.00    +0.220 HD
ENDBRANCH   2   6
ENDBRANCH   1   2
BRANCH   1   8
ATOM      8  P   UNL     1     -35.827  22.219   3.364  0.00  0.00    +0.348 P 
ATOM      9  O   UNL     1     -34.806  23.304   3.190  0.00  0.00    -0.258 OA
BRANCH   8  10
ATOM     10  O   UNL     1     -35.495  21.151   4.529  0.00  0.00    -0.323 OA
ATOM     11  H   UNL     1     -35.448  20.260   4.149  0.00  0.00    +0.220 HD
ENDBRANCH   8  10
BRANCH   8  12
ATOM     12  O   UNL     1     -37.320  22.722   3.723  0.00  0.00    -0.323 OA
ATOM     13  H   UNL     1     -37.297  23.663   3.956  0.00  0.00    +0.220 HD
ENDBRANCH   8  12
ENDBRANCH   1   8
BRANCH   1  14
ATOM     14  C   UNL     1     -34.978  21.502   0.843  0.00  0.00    +0.051 C 
BRANCH  14  15
ATOM     15  C   UNL     1     -33.834  20.522   0.803  0.00  0.00    -0.021 C 
ATOM     16  C   UNL     1     -33.952  19.309   1.465  0.00  0.00    -0.004 C 
ATOM     17  C   UNL     1     -32.680  20.849   0.106  0.00  0.00    -0.004 C 
ATOM     18  C   UNL     1     -32.892  18.402   1.429  0.00  0.00    -0.000 C 
ATOM     19  C   UNL     1     -31.620  19.942   0.069  0.00  0.00    -0.000 C 
ATOM     20  C   UNL     1     -31.727  18.719   0.731  0.00  0.00    -0.000 C 
ENDBRANCH  14  15
ENDBRANCH   1  14
TORSDOF 8
ENDMDL
MODEL 9
REMARK VINA RESULT:      -5.0      1.103      1.814
REMARK  Name = 193462
REMARK  8 active torsions:
REMARK  status: ('A' for Active; 'I' for Inactive)
REMARK    1  A    between atoms: C_1  and  P_2
REMARK    2  A    between atoms: C_1  and  P_8
REMARK    3  A    between atoms: C_1  and  C_14
REMARK    4  A    between atoms: P_2  and  O_4
REMARK    5  A    between atoms: P_2  and  O_6
REMARK    6  A    between atoms: P_8  and  O_10
REMARK    7  A    between atoms: P_8  and  O_12
REMARK    8  A    between atoms: C_14  and  C_15
REMARK                            x       y       z     vdW  Elec       q    Type
REMARK                         _______ _______ _______ _____ _____    ______ ____
ROOT
ATOM      1  C   UNL     1     -36.206  24.152   3.386  0.00  0.00    +0.212 C 
ENDROOT
BRANCH   1   2
ATOM      2  P   UNL     1     -35.422  24.491   5.017  0.00  0.00    +0.348 P 
ATOM      3  O   UNL     1     -33.945  24.751   4.972  0.00  0.00    -0.258 OA
BRANCH   2   4
ATOM      4  O   UNL     1     -35.877  23.232   5.921  0.00  0.00    -0.323 OA
ATOM      5  H   UNL     1     -35.163  22.577   5.945  0.00  0.00    +0.220 HD
ENDBRANCH   2   4
BRANCH   2   6
ATOM      6  O   UNL     1     -36.301  25.711   5.607  0.00  0.00    -0.323 OA
ATOM      7  H   UNL     1     -36.462  26.363   4.907  0.00  0.00    +0.220 HD
ENDBRANCH   2   6
ENDBRANCH   1   2
BRANCH   1   8
ATOM      8  P   UNL     1     -37.693  25.108   2.841  0.00  0.00    +0.348 P 
ATOM      9  O   UNL     1     -38.222  24.720   1.492  0.00  0.00    -0.258 OA
BRANCH   8  10
ATOM     10  O   UNL     1     -37.222  26.647   2.972  0.00  0.00    -0.323 OA
ATOM     11  H   UNL     1     -37.772  27.100   3.629  0.00  0.00    +0.220 HD
ENDBRANCH   8  10
BRANCH   8  12
ATOM     12  O   UNL     1     -38.723  24.919   4.071  0.00  0.00    -0.323 OA
ATOM     13  H   UNL     1     -38.282  25.153   4.902  0.00  0.00    +0.220 HD
ENDBRANCH   8  12
ENDBRANCH   1   8
BRANCH   1  14
ATOM     14  C   UNL     1     -36.517  22.645   3.218  0.00  0.00    +0.051 C 
BRANCH  14  15
ATOM     15  C   UNL     1     -35.551  21.896   2.337  0.00  0.00    -0.021 C 
ATOM     16  C   UNL     1     -34.879  22.576   1.331  0.00  0.00    -0.004 C 
ATOM     17  C   UNL     1     -35.350  20.539   2.543  0.00  0.00    -0.004 C 
ATOM     18  C   UNL     1     -33.985  21.882   0.514  0.00  0.00    -0.000 C 
ATOM     19  C   UNL     1     -34.455  19.846   1.727  0.00  0.00    -0.000 C 
ATOM     20  C   UNL     1     -33.773  20.519   0.712  0.00  0.00    -0.000 C 
ENDBRANCH  14  15
ENDBRANCH   1  14
TORSDOF 8
ENDMDL
