MODEL 1
REMARK VINA RESULT:      -5.7      0.000      0.000
REMARK  Name = 192744
REMARK  5 active torsions:
REMARK  status: ('A' for Active; 'I' for Inactive)
REMARK    1  A    between atoms: C_2  and  C_8
REMARK    2  A    between atoms: C_4  and  C_18
REMARK    3  A    between atoms: C_10  and  C_14
REMARK    4  A    between atoms: C_14  and  O_15
REMARK    5  A    between atoms: C_18  and  O_19
REMARK                            x       y       z     vdW  Elec       q    Type
REMARK                         _______ _______ _______ _____ _____    ______ ____
ROOT
ATOM      1  N   UNL     1     -34.539  24.957   3.392  0.00  0.00    -0.242 NA
ATOM      2  C   UNL     1     -35.651  24.614   4.081  0.00  0.00    +0.099 C 
ATOM      3  C   UNL     1     -35.947  25.074   5.354  0.00  0.00    +0.021 C 
ATOM      4  C   UNL     1     -33.891  26.319   5.281  0.00  0.00    +0.095 C 
ATOM      5  C   UNL     1     -35.046  25.943   5.958  0.00  0.00    +0.010 C 
ATOM      6  C   UNL     1     -33.686  25.803   4.012  0.00  0.00    +0.105 C 
ENDROOT
BRANCH   2   8
ATOM      7  N   UNL     1     -37.826  24.121   3.317  0.00  0.00    -0.242 NA
ATOM      8  C   UNL     1     -36.540  23.710   3.391  0.00  0.00    +0.099 C 
ATOM      9  C   UNL     1     -36.075  22.519   2.858  0.00  0.00    +0.021 C 
ATOM     10  C   UNL     1     -38.318  22.086   2.109  0.00  0.00    +0.095 C 
ATOM     11  C   UNL     1     -36.986  21.697   2.206  0.00  0.00    +0.010 C 
ATOM     12  C   UNL     1     -38.684  23.295   2.676  0.00  0.00    +0.105 C 
BRANCH  10  14
ATOM     13  O   UNL     1     -39.191  20.809   0.283  0.00  0.00    -0.245 OA
ATOM     14  C   UNL     1     -39.295  21.248   1.434  0.00  0.00    +0.340 C 
BRANCH  14  15
ATOM     15  O   UNL     1     -40.379  20.978   2.215  0.00  0.00    -0.477 OA
ATOM     16  H   UNL     1     -40.268  20.813   3.130  0.00  0.00    +0.295 HD
ENDBRANCH  14  15
ENDBRANCH  10  14
ENDBRANCH   2   8
BRANCH   4  18
ATOM     17  O   UNL     1     -32.558  28.303   5.407  0.00  0.00    -0.245 OA
ATOM     18  C   UNL     1     -32.930  27.225   5.886  0.00  0.00    +0.340 C 
BRANCH  18  19
ATOM     19  O   UNL     1     -32.458  26.764   7.078  0.00  0.00    -0.477 OA
ATOM     20  H   UNL     1     -31.678  27.131   7.446  0.00  0.00    +0.295 HD
ENDBRANCH  18  19
ENDBRANCH   4  18
TORSDOF 5
ENDMDL
MODEL 2
REMARK VINA RESULT:      -5.7      2.184      3.342
REMARK  Name = 192744
REMARK  5 active torsions:
REMARK  status: ('A' for Active; 'I' for Inactive)
REMARK    1  A    between atoms: C_2  and  C_8
REMARK    2  A    between atoms: C_4  and  C_18
REMARK    3  A    between atoms: C_10  and  C_14
REMARK    4  A    between atoms: C_14  and  O_15
REMARK    5  A    between atoms: C_18  and  O_19
REMARK                            x       y       z     vdW  Elec       q    Type
REMARK                         _______ _______ _______ _____ _____    ______ ____
ROOT
ATOM      1  N   UNL     1     -33.327  26.265   6.318  0.00  0.00    -0.242 NA
ATOM      2  C   UNL     1     -33.537  26.215   4.984  0.00  0.00    +0.099 C 
ATOM      3  C   UNL     1     -33.101  27.183   4.093  0.00  0.00    +0.021 C 
ATOM      4  C   UNL     1     -32.166  28.357   5.972  0.00  0.00    +0.095 C 
ATOM      5  C   UNL     1     -32.403  28.271   4.604  0.00  0.00    +0.010 C 
ATOM      6  C   UNL     1     -32.644  27.338   6.778  0.00  0.00    +0.105 C 
ENDROOT
BRANCH   2   8
ATOM      7  N   UNL     1     -34.255  24.868   3.187  0.00  0.00    -0.242 NA
ATOM      8  C   UNL     1     -34.268  25.057   4.526  0.00  0.00    +0.099 C 
ATOM      9  C   UNL     1     -34.922  24.226   5.420  0.00  0.00    +0.021 C 
ATOM     10  C   UNL     1     -35.615  22.900   3.537  0.00  0.00    +0.095 C 
ATOM     11  C   UNL     1     -35.605  23.128   4.909  0.00  0.00    +0.010 C 
ATOM     12  C   UNL     1     -34.931  23.791   2.727  0.00  0.00    +0.105 C 
BRANCH  10  14
ATOM     13  O   UNL     1     -37.262  21.826   2.174  0.00  0.00    -0.245 OA
ATOM     14  C   UNL     1     -36.320  21.763   2.973  0.00  0.00    +0.340 C 
BRANCH  14  15
ATOM     15  O   UNL     1     -35.832  20.572   3.420  0.00  0.00    -0.477 OA
ATOM     16  H   UNL     1     -36.176  20.187   4.201  0.00  0.00    +0.295 HD
ENDBRANCH  14  15
ENDBRANCH  10  14
ENDBRANCH   2   8
BRANCH   4  18
ATOM     17  O   UNL     1     -30.823  30.336   5.888  0.00  0.00    -0.245 OA
ATOM     18  C   UNL     1     -31.440  29.482   6.536  0.00  0.00    +0.340 C 
BRANCH  18  19
ATOM     19  O   UNL     1     -31.502  29.514   7.896  0.00  0.00    -0.477 OA
ATOM     20  H   UNL     1     -30.819  29.125   8.406  0.00  0.00    +0.295 HD
ENDBRANCH  18  19
ENDBRANCH   4  18
TORSDOF 5
ENDMDL
MODEL 3
REMARK VINA RESULT:      -5.7      2.189      7.732
REMARK  Name = 192744
REMARK  5 active torsions:
REMARK  status: ('A' for Active; 'I' for Inactive)
REMARK    1  A    between atoms: C_2  and  C_8
REMARK    2  A    between atoms: C_4  and  C_18
REMARK    3  A    between atoms: C_10  and  C_14
REMARK    4  A    between atoms: C_14  and  O_15
REMARK    5  A    between atoms: C_18  and  O_19
REMARK                            x       y       z     vdW  Elec       q    Type
REMARK                         _______ _______ _______ _____ _____    ______ ____
ROOT
ATOM      1  N   UNL     1     -34.233  24.907   3.194  0.00  0.00    -0.242 NA
ATOM      2  C   UNL     1     -34.268  25.098   4.532  0.00  0.00    +0.099 C 
ATOM      3  C   UNL     1     -34.945  24.274   5.416  0.00  0.00    +0.021 C 
ATOM      4  C   UNL     1     -35.617  22.952   3.523  0.00  0.00    +0.095 C 
ATOM      5  C   UNL     1     -35.629  23.182   4.895  0.00  0.00    +0.010 C 
ATOM      6  C   UNL     1     -34.911  23.835   2.724  0.00  0.00    +0.105 C 
ENDROOT
BRANCH   2   8
ATOM      7  N   UNL     1     -33.321  26.285   6.336  0.00  0.00    -0.242 NA
ATOM      8  C   UNL     1     -33.535  26.251   5.001  0.00  0.00    +0.099 C 
ATOM      9  C   UNL     1     -33.101  27.228   4.121  0.00  0.00    +0.021 C 
ATOM     10  C   UNL     1     -32.160  28.380   6.010  0.00  0.00    +0.095 C 
ATOM     11  C   UNL     1     -32.400  28.310   4.641  0.00  0.00    +0.010 C 
ATOM     12  C   UNL     1     -32.636  27.353   6.806  0.00  0.00    +0.105 C 
BRANCH  10  14
ATOM     13  O   UNL     1     -30.805  30.352   5.945  0.00  0.00    -0.245 OA
ATOM     14  C   UNL     1     -31.431  29.498   6.584  0.00  0.00    +0.340 C 
BRANCH  14  15
ATOM     15  O   UNL     1     -31.502  29.523   7.944  0.00  0.00    -0.477 OA
ATOM     16  H   UNL     1     -32.003  30.186   8.376  0.00  0.00    +0.295 HD
ENDBRANCH  14  15
ENDBRANCH  10  14
ENDBRANCH   2   8
BRANCH   4  18
ATOM     17  O   UNL     1     -37.196  21.886   2.076  0.00  0.00    -0.245 OA
ATOM     18  C   UNL     1     -36.322  21.820   2.949  0.00  0.00    +0.340 C 
BRANCH  18  19
ATOM     19  O   UNL     1     -35.919  20.631   3.477  0.00  0.00    -0.477 OA
ATOM     20  H   UNL     1     -35.509  20.607   4.320  0.00  0.00    +0.295 HD
ENDBRANCH  18  19
ENDBRANCH   4  18
TORSDOF 5
ENDMDL
MODEL 4
REMARK VINA RESULT:      -5.6      1.089      1.544
REMARK  Name = 192744
REMARK  5 active torsions:
REMARK  status: ('A' for Active; 'I' for Inactive)
REMARK    1  A    between atoms: C_2  and  C_8
REMARK    2  A    between atoms: C_4  and  C_18
REMARK    3  A    between atoms: C_10  and  C_14
REMARK    4  A    between atoms: C_14  and  O_15
REMARK    5  A    between atoms: C_18  and  O_19
REMARK                            x       y       z     vdW  Elec       q    Type
REMARK                         _______ _______ _______ _____ _____    ______ ____
ROOT
ATOM      1  N   UNL     1     -35.283  26.061   3.450  0.00  0.00    -0.242 NA
ATOM      2  C   UNL     1     -35.914  25.139   4.212  0.00  0.00    +0.099 C 
ATOM      3  C   UNL     1     -35.565  24.843   5.519  0.00  0.00    +0.021 C 
ATOM      4  C   UNL     1     -33.827  26.495   5.331  0.00  0.00    +0.095 C 
ATOM      5  C   UNL     1     -34.501  25.538   6.083  0.00  0.00    +0.010 C 
ATOM      6  C   UNL     1     -34.253  26.717   4.032  0.00  0.00    +0.105 C 
ENDROOT
BRANCH   2   8
ATOM      7  N   UNL     1     -36.751  23.181   3.202  0.00  0.00    -0.242 NA
ATOM      8  C   UNL     1     -37.008  24.458   3.561  0.00  0.00    +0.099 C 
ATOM      9  C   UNL     1     -38.216  25.098   3.338  0.00  0.00    +0.021 C 
ATOM     10  C   UNL     1     -38.999  23.065   2.322  0.00  0.00    +0.095 C 
ATOM     11  C   UNL     1     -39.226  24.382   2.707  0.00  0.00    +0.010 C 
ATOM     12  C   UNL     1     -37.757  22.515   2.590  0.00  0.00    +0.105 C 
BRANCH  10  14
ATOM     13  O   UNL     1     -40.772  22.701   0.756  0.00  0.00    -0.245 OA
ATOM     14  C   UNL     1     -40.035  22.290   1.660  0.00  0.00    +0.340 C 
BRANCH  14  15
ATOM     15  O   UNL     1     -40.124  21.019   2.143  0.00  0.00    -0.477 OA
ATOM     16  H   UNL     1     -40.850  20.771   2.680  0.00  0.00    +0.295 HD
ENDBRANCH  14  15
ENDBRANCH  10  14
ENDBRANCH   2   8
BRANCH   4  18
ATOM     17  O   UNL     1     -31.853  27.845   5.240  0.00  0.00    -0.245 OA
ATOM     18  C   UNL     1     -32.711  27.237   5.891  0.00  0.00    +0.340 C 
BRANCH  18  19
ATOM     19  O   UNL     1     -32.693  27.203   7.253  0.00  0.00    -0.477 OA
ATOM     20  H   UNL     1     -31.882  27.294   7.714  0.00  0.00    +0.295 HD
ENDBRANCH  18  19
ENDBRANCH   4  18
TORSDOF 5
ENDMDL
MODEL 5
REMARK VINA RESULT:      -5.6      0.900      7.319
REMARK  Name = 192744
REMARK  5 active torsions:
REMARK  status: ('A' for Active; 'I' for Inactive)
REMARK    1  A    between atoms: C_2  and  C_8
REMARK    2  A    between atoms: C_4  and  C_18
REMARK    3  A    between atoms: C_10  and  C_14
REMARK    4  A    between atoms: C_14  and  O_15
REMARK    5  A    between atoms: C_18  and  O_19
REMARK                            x       y       z     vdW  Elec       q    Type
REMARK                         _______ _______ _______ _____ _____    ______ ____
ROOT
ATOM      1  N   UNL     1     -37.965  24.982   3.509  0.00  0.00    -0.242 NA
ATOM      2  C   UNL     1     -36.762  24.367   3.574  0.00  0.00    +0.099 C 
ATOM      3  C   UNL     1     -36.518  23.090   3.095  0.00  0.00    +0.021 C 
ATOM      4  C   UNL     1     -38.826  23.000   2.427  0.00  0.00    +0.095 C 
ATOM      5  C   UNL     1     -37.574  22.400   2.512  0.00  0.00    +0.010 C 
ATOM      6  C   UNL     1     -38.968  24.280   2.935  0.00  0.00    +0.105 C 
ENDROOT
BRANCH   2   8
ATOM      7  N   UNL     1     -35.041  25.962   3.352  0.00  0.00    -0.242 NA
ATOM      8  C   UNL     1     -35.714  25.143   4.192  0.00  0.00    +0.099 C 
ATOM      9  C   UNL     1     -35.445  25.031   5.546  0.00  0.00    +0.021 C 
ATOM     10  C   UNL     1     -33.707  26.664   5.242  0.00  0.00    +0.095 C 
ATOM     11  C   UNL     1     -34.421  25.809   6.074  0.00  0.00    +0.010 C 
ATOM     12  C   UNL     1     -34.053  26.704   3.901  0.00  0.00    +0.105 C 
BRANCH  10  14
ATOM     13  O   UNL     1     -32.101  28.437   5.171  0.00  0.00    -0.245 OA
ATOM     14  C   UNL     1     -32.632  27.490   5.763  0.00  0.00    +0.340 C 
BRANCH  14  15
ATOM     15  O   UNL     1     -32.245  27.114   7.014  0.00  0.00    -0.477 OA
ATOM     16  H   UNL     1     -31.345  27.179   7.267  0.00  0.00    +0.295 HD
ENDBRANCH  14  15
ENDBRANCH  10  14
ENDBRANCH   2   8
BRANCH   4  18
ATOM     17  O   UNL     1     -40.774  22.806   1.049  0.00  0.00    -0.245 OA
ATOM     18  C   UNL     1     -39.950  22.304   1.823  0.00  0.00    +0.340 C 
BRANCH  18  19
ATOM     19  O   UNL     1     -40.017  20.997   2.199  0.00  0.00    -0.477 OA
ATOM     20  H   UNL     1     -40.763  20.479   1.965  0.00  0.00    +0.295 HD
ENDBRANCH  18  19
ENDBRANCH   4  18
TORSDOF 5
ENDMDL
MODEL 6
REMARK VINA RESULT:      -5.6      2.676      7.398
REMARK  Name = 192744
REMARK  5 active torsions:
REMARK  status: ('A' for Active; 'I' for Inactive)
REMARK    1  A    between atoms: C_2  and  C_8
REMARK    2  A    between atoms: C_4  and  C_18
REMARK    3  A    between atoms: C_10  and  C_14
REMARK    4  A    between atoms: C_14  and  O_15
REMARK    5  A    between atoms: C_18  and  O_19
REMARK                            x       y       z     vdW  Elec       q    Type
REMARK                         _______ _______ _______ _____ _____    ______ ____
ROOT
ATOM      1  N   UNL     1     -37.181  21.209   1.844  0.00  0.00    -0.242 NA
ATOM      2  C   UNL     1     -35.932  21.388   2.330  0.00  0.00    +0.099 C 
ATOM      3  C   UNL     1     -34.858  20.566   2.030  0.00  0.00    +0.021 C 
ATOM      4  C   UNL     1     -36.351  19.275   0.656  0.00  0.00    +0.095 C 
ATOM      5  C   UNL     1     -35.079  19.491   1.177  0.00  0.00    +0.010 C 
ATOM      6  C   UNL     1     -37.358  20.154   1.017  0.00  0.00    +0.105 C 
ENDROOT
BRANCH   2   8
ATOM      7  N   UNL     1     -35.868  23.729   2.603  0.00  0.00    -0.242 NA
ATOM      8  C   UNL     1     -35.778  22.524   3.209  0.00  0.00    +0.099 C 
ATOM      9  C   UNL     1     -35.554  22.352   4.565  0.00  0.00    +0.021 C 
ATOM     10  C   UNL     1     -35.503  24.748   4.765  0.00  0.00    +0.095 C 
ATOM     11  C   UNL     1     -35.416  23.490   5.352  0.00  0.00    +0.010 C 
ATOM     12  C   UNL     1     -35.728  24.813   3.400  0.00  0.00    +0.105 C 
BRANCH  10  14
ATOM     13  O   UNL     1     -34.326  26.327   6.124  0.00  0.00    -0.245 OA
ATOM     14  C   UNL     1     -35.362  25.955   5.560  0.00  0.00    +0.340 C 
BRANCH  14  15
ATOM     15  O   UNL     1     -36.519  26.670   5.631  0.00  0.00    -0.477 OA
ATOM     16  H   UNL     1     -36.680  27.230   6.364  0.00  0.00    +0.295 HD
ENDBRANCH  14  15
ENDBRANCH  10  14
ENDBRANCH   2   8
BRANCH   4  18
ATOM     17  O   UNL     1     -36.189  18.052  -1.395  0.00  0.00    -0.245 OA
ATOM     18  C   UNL     1     -36.613  18.160  -0.238  0.00  0.00    +0.340 C 
BRANCH  18  19
ATOM     19  O   UNL     1     -37.399  17.206   0.334  0.00  0.00    -0.477 OA
ATOM     20  H   UNL     1     -38.177  16.917  -0.101  0.00  0.00    +0.295 HD
ENDBRANCH  18  19
ENDBRANCH   4  18
TORSDOF 5
ENDMDL
MODEL 7
REMARK VINA RESULT:      -5.4      2.349      7.969
REMARK  Name = 192744
REMARK  5 active torsions:
REMARK  status: ('A' for Active; 'I' for Inactive)
REMARK    1  A    between atoms: C_2  and  C_8
REMARK    2  A    between atoms: C_4  and  C_18
REMARK    3  A    between atoms: C_10  and  C_14
REMARK    4  A    between atoms: C_14  and  O_15
REMARK    5  A    between atoms: C_18  and  O_19
REMARK                            x       y       z     vdW  Elec       q    Type
REMARK                         _______ _______ _______ _____ _____    ______ ____
ROOT
ATOM      1  N   UNL     1     -35.093  26.255   3.465  0.00  0.00    -0.242 NA
ATOM      2  C   UNL     1     -34.412  25.970   4.597  0.00  0.00    +0.099 C 
ATOM      3  C   UNL     1     -34.634  24.844   5.373  0.00  0.00    +0.021 C 
ATOM      4  C   UNL     1     -36.338  24.210   3.800  0.00  0.00    +0.095 C 
ATOM      5  C   UNL     1     -35.616  23.951   4.960  0.00  0.00    +0.010 C 
ATOM      6  C   UNL     1     -36.041  25.364   3.095  0.00  0.00    +0.105 C 
ENDROOT
BRANCH   2   8
ATOM      7  N   UNL     1     -33.065  26.940   6.272  0.00  0.00    -0.242 NA
ATOM      8  C   UNL     1     -33.407  26.940   4.964  0.00  0.00    +0.099 C 
ATOM      9  C   UNL     1     -32.858  27.791   4.019  0.00  0.00    +0.021 C 
ATOM     10  C   UNL     1     -31.517  28.730   5.780  0.00  0.00    +0.095 C 
ATOM     11  C   UNL     1     -31.895  28.700   4.442  0.00  0.00    +0.010 C 
ATOM     12  C   UNL     1     -32.126  27.838   6.647  0.00  0.00    +0.105 C 
BRANCH  10  14
ATOM     13  O   UNL     1     -30.129  30.675   5.646  0.00  0.00    -0.245 OA
ATOM     14  C   UNL     1     -30.514  29.669   6.253  0.00  0.00    +0.340 C 
BRANCH  14  15
ATOM     15  O   UNL     1     -30.016  29.329   7.475  0.00  0.00    -0.477 OA
ATOM     16  H   UNL     1     -29.971  28.428   7.729  0.00  0.00    +0.295 HD
ENDBRANCH  14  15
ENDBRANCH  10  14
ENDBRANCH   2   8
BRANCH   4  18
ATOM     17  O   UNL     1     -38.536  23.610   3.067  0.00  0.00    -0.245 OA
ATOM     18  C   UNL     1     -37.372  23.297   3.343  0.00  0.00    +0.340 C 
BRANCH  18  19
ATOM     19  O   UNL     1     -36.926  22.014   3.240  0.00  0.00    -0.477 OA
ATOM     20  H   UNL     1     -37.447  21.309   3.570  0.00  0.00    +0.295 HD
ENDBRANCH  18  19
ENDBRANCH   4  18
TORSDOF 5
ENDMDL
MODEL 8
REMARK VINA RESULT:      -5.4      1.740      2.108
REMARK  Name = 192744
REMARK  5 active torsions:
REMARK  status: ('A' for Active; 'I' for Inactive)
REMARK    1  A    between atoms: C_2  and  C_8
REMARK    2  A    between atoms: C_4  and  C_18
REMARK    3  A    between atoms: C_10  and  C_14
REMARK    4  A    between atoms: C_14  and  O_15
REMARK    5  A    between atoms: C_18  and  O_19
REMARK                            x       y       z     vdW  Elec       q    Type
REMARK                         _______ _______ _______ _____ _____    ______ ____
ROOT
ATOM      1  N   UNL     1     -33.478  26.133   3.365  0.00  0.00    -0.242 NA
ATOM      2  C   UNL     1     -34.142  25.306   4.203  0.00  0.00    +0.099 C 
ATOM      3  C   UNL     1     -34.191  25.470   5.577  0.00  0.00    +0.021 C 
ATOM      4  C   UNL     1     -32.824  27.429   5.298  0.00  0.00    +0.095 C 
ATOM      5  C   UNL     1     -33.518  26.555   6.128  0.00  0.00    +0.010 C 
ATOM      6  C   UNL     1     -32.835  27.177   3.937  0.00  0.00    +0.105 C 
ENDROOT
BRANCH   2   8
ATOM      7  N   UNL     1     -35.619  23.476   4.371  0.00  0.00    -0.242 NA
ATOM      8  C   UNL     1     -34.817  24.203   3.560  0.00  0.00    +0.099 C 
ATOM      9  C   UNL     1     -34.632  23.939   2.213  0.00  0.00    +0.021 C 
ATOM     10  C   UNL     1     -36.149  22.090   2.462  0.00  0.00    +0.095 C 
ATOM     11  C   UNL     1     -35.314  22.862   1.660  0.00  0.00    +0.010 C 
ATOM     12  C   UNL     1     -36.266  22.436   3.798  0.00  0.00    +0.105 C 
BRANCH  10  14
ATOM     13  O   UNL     1     -37.595  20.985   0.908  0.00  0.00    -0.245 OA
ATOM     14  C   UNL     1     -36.875  20.958   1.914  0.00  0.00    +0.340 C 
BRANCH  14  15
ATOM     15  O   UNL     1     -36.685  19.818   2.634  0.00  0.00    -0.477 OA
ATOM     16  H   UNL     1     -37.403  19.238   2.794  0.00  0.00    +0.295 HD
ENDBRANCH  14  15
ENDBRANCH  10  14
ENDBRANCH   2   8
BRANCH   4  18
ATOM     17  O   UNL     1     -31.649  29.510   5.186  0.00  0.00    -0.245 OA
ATOM     18  C   UNL     1     -32.111  28.571   5.844  0.00  0.00    +0.340 C 
BRANCH  18  19
ATOM     19  O   UNL     1     -31.992  28.512   7.200  0.00  0.00    -0.477 OA
ATOM     20  H   UNL     1     -31.143  28.500   7.596  0.00  0.00    +0.295 HD
ENDBRANCH  18  19
ENDBRANCH   4  18
TORSDOF 5
ENDMDL
MODEL 9
REMARK VINA RESULT:      -5.3      2.867      3.540
REMARK  Name = 192744
REMARK  5 active torsions:
REMARK  status: ('A' for Active; 'I' for Inactive)
REMARK    1  A    between atoms: C_2  and  C_8
REMARK    2  A    between atoms: C_4  and  C_18
REMARK    3  A    between atoms: C_10  and  C_14
REMARK    4  A    between atoms: C_14  and  O_15
REMARK    5  A    between atoms: C_18  and  O_19
REMARK                            x       y       z     vdW  Elec       q    Type
REMARK                         _______ _______ _______ _____ _____    ______ ____
ROOT
ATOM      1  N   UNL     1     -35.218  23.641   2.526  0.00  0.00    -0.242 NA
ATOM      2  C   UNL     1     -35.523  22.472   3.133  0.00  0.00    +0.099 C 
ATOM      3  C   UNL     1     -35.758  22.342   4.492  0.00  0.00    +0.021 C 
ATOM      4  C   UNL     1     -35.368  24.707   4.690  0.00  0.00    +0.095 C 
ATOM      5  C   UNL     1     -35.678  23.485   5.279  0.00  0.00    +0.010 C 
ATOM      6  C   UNL     1     -35.149  24.731   3.323  0.00  0.00    +0.105 C 
ENDROOT
BRANCH   2   8
ATOM      7  N   UNL     1     -36.799  21.112   1.691  0.00  0.00    -0.242 NA
ATOM      8  C   UNL     1     -35.589  21.329   2.253  0.00  0.00    +0.099 C 
ATOM      9  C   UNL     1     -34.476  20.536   2.028  0.00  0.00    +0.021 C 
ATOM     10  C   UNL     1     -35.841  19.196   0.570  0.00  0.00    +0.095 C 
ATOM     11  C   UNL     1     -34.612  19.451   1.169  0.00  0.00    +0.010 C 
ATOM     12  C   UNL     1     -36.893  20.048   0.861  0.00  0.00    +0.105 C 
BRANCH  10  14
ATOM     13  O   UNL     1     -36.704  18.073  -1.359  0.00  0.00    -0.245 OA
ATOM     14  C   UNL     1     -36.015  18.071  -0.332  0.00  0.00    +0.340 C 
BRANCH  14  15
ATOM     15  O   UNL     1     -35.323  16.968   0.070  0.00  0.00    -0.477 OA
ATOM     16  H   UNL     1     -34.491  16.772  -0.311  0.00  0.00    +0.295 HD
ENDBRANCH  14  15
ENDBRANCH  10  14
ENDBRANCH   2   8
BRANCH   4  18
ATOM     17  O   UNL     1     -34.265  26.316   6.076  0.00  0.00    -0.245 OA
ATOM     18  C   UNL     1     -35.276  25.918   5.486  0.00  0.00    +0.340 C 
BRANCH  18  19
ATOM     19  O   UNL     1     -36.452  26.606   5.526  0.00  0.00    -0.477 OA
ATOM     20  H   UNL     1     -37.266  26.142   5.546  0.00  0.00    +0.295 HD
ENDBRANCH  18  19
ENDBRANCH   4  18
TORSDOF 5
ENDMDL
