MODEL 1
REMARK VINA RESULT:      -6.5      0.000      0.000
REMARK  Name = 21120844
REMARK  6 active torsions:
REMARK  status: ('A' for Active; 'I' for Inactive)
REMARK    1  A    between atoms: C_6  and  C_24
REMARK    2  A    between atoms: C_10  and  O_20
REMARK    3  A    between atoms: C_13  and  O_18
REMARK    4  A    between atoms: O_20  and  C_22
REMARK    5  A    between atoms: C_24  and  O_25
REMARK    6  A    between atoms: O_25  and  C_27
REMARK                            x       y       z     vdW  Elec       q    Type
REMARK                         _______ _______ _______ _____ _____    ______ ____
ROOT
ATOM      1  O   UNL     1     -32.936  26.799   0.846  0.00  0.00    -0.351 OA
ATOM      2  O   UNL     1     -33.092  25.440   4.223  0.00  0.00    -0.348 OA
ATOM      3  O   UNL     1     -36.431  21.855   3.344  0.00  0.00    -0.289 OA
ATOM      4  C   UNL     1     -34.936  26.508   2.328  0.00  0.00    +0.040 C 
ATOM      5  C   UNL     1     -33.491  26.175   2.014  0.00  0.00    +0.148 C 
ATOM      6  C   UNL     1     -35.448  25.360   3.323  0.00  0.00    +0.103 C 
ATOM      7  C   UNL     1     -32.751  26.457   3.275  0.00  0.00    +0.182 C 
ATOM      8  C   UNL     1     -34.740  27.866   3.109  0.00  0.00    +0.049 C 
ATOM      9  C   UNL     1     -32.956  25.364   0.860  0.00  0.00    +0.172 C 
ATOM     10  C   UNL     1     -33.290  27.846   3.644  0.00  0.00    +0.198 C 
ATOM     11  C   UNL     1     -34.486  25.322   4.565  0.00  0.00    +0.143 C 
ATOM     12  C   UNL     1     -35.811  26.748   1.094  0.00  0.00    +0.003 C 
ATOM     13  C   UNL     1     -35.428  23.943   2.670  0.00  0.00    +0.177 C 
ATOM     14  C   UNL     1     -34.600  24.079   5.404  0.00  0.00    +0.002 C 
ATOM     15  C   UNL     1     -35.758  22.834   3.664  0.00  0.00    +0.196 C 
ATOM     16  C   UNL     1     -35.192  22.934   5.038  0.00  0.00    +0.013 C 
ATOM     17  C   UNL     1     -35.316  21.744   5.936  0.00  0.00    +0.034 C 
ENDROOT
BRANCH  13  18
ATOM     18  O   UNL     1     -36.362  23.843   1.608  0.00  0.00    -0.377 OA
ATOM     19  H   UNL     1     -36.581  22.911   1.456  0.00  0.00    +0.211 HD
ENDBRANCH  13  18
BRANCH  10  20
ATOM     20  O   UNL     1     -33.205  28.113   5.029  0.00  0.00    -0.450 OA
BRANCH  20  22
ATOM     21  O   UNL     1     -31.132  27.875   6.018  0.00  0.00    -0.250 OA
ATOM     22  C   UNL     1     -31.993  28.561   5.485  0.00  0.00    +0.318 C 
ATOM     23  C   UNL     1     -31.859  30.034   5.241  0.00  0.00    +0.121 C 
ENDBRANCH  20  22
ENDBRANCH  10  20
BRANCH   6  24
ATOM     24  C   UNL     1     -36.898  25.659   3.800  0.00  0.00    +0.214 C 
BRANCH  24  25
ATOM     25  O   UNL     1     -37.665  25.953   2.658  0.00  0.00    -0.448 OA
BRANCH  25  27
ATOM     26  O   UNL     1     -39.840  26.734   2.704  0.00  0.00    -0.250 OA
ATOM     27  C   UNL     1     -39.027  25.822   2.788  0.00  0.00    +0.318 C 
ATOM     28  C   UNL     1     -39.392  24.393   3.049  0.00  0.00    +0.121 C 
ENDBRANCH  25  27
ENDBRANCH  24  25
ENDBRANCH   6  24
TORSDOF 6
ENDMDL
MODEL 2
REMARK VINA RESULT:      -6.4      2.334      5.533
REMARK  Name = 21120844
REMARK  6 active torsions:
REMARK  status: ('A' for Active; 'I' for Inactive)
REMARK    1  A    between atoms: C_6  and  C_24
REMARK    2  A    between atoms: C_10  and  O_20
REMARK    3  A    between atoms: C_13  and  O_18
REMARK    4  A    between atoms: O_20  and  C_22
REMARK    5  A    between atoms: C_24  and  O_25
REMARK    6  A    between atoms: O_25  and  C_27
REMARK                            x       y       z     vdW  Elec       q    Type
REMARK                         _______ _______ _______ _____ _____    ______ ____
ROOT
ATOM      1  O   UNL     1     -36.249  22.003   0.122  0.00  0.00    -0.351 OA
ATOM      2  O   UNL     1     -38.449  23.013   2.845  0.00  0.00    -0.348 OA
ATOM      3  O   UNL     1     -40.089  27.261   0.836  0.00  0.00    -0.289 OA
ATOM      4  C   UNL     1     -36.241  24.138   1.434  0.00  0.00    +0.040 C 
ATOM      5  C   UNL     1     -36.962  22.872   1.016  0.00  0.00    +0.148 C 
ATOM      6  C   UNL     1     -37.373  25.128   1.988  0.00  0.00    +0.103 C 
ATOM      7  C   UNL     1     -37.384  22.232   2.292  0.00  0.00    +0.182 C 
ATOM      8  C   UNL     1     -35.370  23.576   2.625  0.00  0.00    +0.049 C 
ATOM      9  C   UNL     1     -37.503  22.521  -0.348  0.00  0.00    +0.172 C 
ATOM     10  C   UNL     1     -36.087  22.295   3.111  0.00  0.00    +0.198 C 
ATOM     11  C   UNL     1     -38.151  24.391   3.138  0.00  0.00    +0.143 C 
ATOM     12  C   UNL     1     -35.321  24.726   0.360  0.00  0.00    +0.003 C 
ATOM     13  C   UNL     1     -38.414  25.525   0.897  0.00  0.00    +0.177 C 
ATOM     14  C   UNL     1     -39.462  25.026   3.510  0.00  0.00    +0.002 C 
ATOM     15  C   UNL     1     -39.579  26.333   1.461  0.00  0.00    +0.196 C 
ATOM     16  C   UNL     1     -40.132  25.931   2.785  0.00  0.00    +0.013 C 
ATOM     17  C   UNL     1     -41.412  26.563   3.230  0.00  0.00    +0.034 C 
ENDROOT
BRANCH  13  18
ATOM     18  O   UNL     1     -37.825  26.306  -0.130  0.00  0.00    -0.377 OA
ATOM     19  H   UNL     1     -38.484  26.918  -0.490  0.00  0.00    +0.211 HD
ENDBRANCH  13  18
BRANCH  10  20
ATOM     20  O   UNL     1     -36.322  22.285   4.504  0.00  0.00    -0.450 OA
BRANCH  20  22
ATOM     21  O   UNL     1     -34.824  20.576   4.916  0.00  0.00    -0.250 OA
ATOM     22  C   UNL     1     -35.421  21.586   5.264  0.00  0.00    +0.318 C 
ATOM     23  C   UNL     1     -35.261  22.233   6.607  0.00  0.00    +0.121 C 
ENDBRANCH  20  22
ENDBRANCH  10  20
BRANCH   6  24
ATOM     24  C   UNL     1     -36.732  26.430   2.549  0.00  0.00    +0.214 C 
BRANCH  24  25
ATOM     25  O   UNL     1     -36.504  26.228   3.922  0.00  0.00    -0.448 OA
BRANCH  25  27
ATOM     26  O   UNL     1     -34.654  27.613   3.969  0.00  0.00    -0.250 OA
ATOM     27  C   UNL     1     -35.297  26.670   4.411  0.00  0.00    +0.318 C 
ATOM     28  C   UNL     1     -34.867  25.831   5.576  0.00  0.00    +0.121 C 
ENDBRANCH  25  27
ENDBRANCH  24  25
ENDBRANCH   6  24
TORSDOF 6
ENDMDL
MODEL 3
REMARK VINA RESULT:      -6.4      2.016      5.828
REMARK  Name = 21120844
REMARK  6 active torsions:
REMARK  status: ('A' for Active; 'I' for Inactive)
REMARK    1  A    between atoms: C_6  and  C_24
REMARK    2  A    between atoms: C_10  and  O_20
REMARK    3  A    between atoms: C_13  and  O_18
REMARK    4  A    between atoms: O_20  and  C_22
REMARK    5  A    between atoms: C_24  and  O_25
REMARK    6  A    between atoms: O_25  and  C_27
REMARK                            x       y       z     vdW  Elec       q    Type
REMARK                         _______ _______ _______ _____ _____    ______ ____
ROOT
ATOM      1  O   UNL     1     -36.260  22.909   5.710  0.00  0.00    -0.351 OA
ATOM      2  O   UNL     1     -35.547  23.321   2.160  0.00  0.00    -0.348 OA
ATOM      3  O   UNL     1     -31.583  26.295   2.618  0.00  0.00    -0.289 OA
ATOM      4  C   UNL     1     -36.077  25.027   4.383  0.00  0.00    +0.040 C 
ATOM      5  C   UNL     1     -35.819  23.538   4.497  0.00  0.00    +0.148 C 
ATOM      6  C   UNL     1     -35.095  25.559   3.234  0.00  0.00    +0.103 C 
ATOM      7  C   UNL     1     -36.395  22.953   3.254  0.00  0.00    +0.182 C 
ATOM      8  C   UNL     1     -37.569  25.007   3.868  0.00  0.00    +0.049 C 
ATOM      9  C   UNL     1     -34.857  22.831   5.418  0.00  0.00    +0.172 C 
ATOM     10  C   UNL     1     -37.777  23.623   3.212  0.00  0.00    +0.198 C 
ATOM     11  C   UNL     1     -35.374  24.732   1.927  0.00  0.00    +0.143 C 
ATOM     12  C   UNL     1     -36.004  25.783   5.713  0.00  0.00    +0.003 C 
ATOM     13  C   UNL     1     -33.589  25.374   3.594  0.00  0.00    +0.177 C 
ATOM     14  C   UNL     1     -34.305  24.846   0.876  0.00  0.00    +0.002 C 
ATOM     15  C   UNL     1     -32.660  25.728   2.437  0.00  0.00    +0.196 C 
ATOM     16  C   UNL     1     -33.065  25.317   1.063  0.00  0.00    +0.013 C 
ATOM     17  C   UNL     1     -32.057  25.451  -0.034  0.00  0.00    +0.034 C 
ENDROOT
BRANCH  13  18
ATOM     18  O   UNL     1     -33.211  26.184   4.695  0.00  0.00    -0.377 OA
ATOM     19  H   UNL     1     -33.664  25.875   5.494  0.00  0.00    +0.211 HD
ENDBRANCH  13  18
BRANCH  10  20
ATOM     20  O   UNL     1     -38.304  23.701   1.904  0.00  0.00    -0.450 OA
BRANCH  20  22
ATOM     21  O   UNL     1     -40.095  22.242   1.928  0.00  0.00    -0.250 OA
ATOM     22  C   UNL     1     -39.624  23.359   1.762  0.00  0.00    +0.318 C 
ATOM     23  C   UNL     1     -40.431  24.559   1.368  0.00  0.00    +0.121 C 
ENDBRANCH  20  22
ENDBRANCH  10  20
BRANCH   6  24
ATOM     24  C   UNL     1     -35.350  27.068   2.955  0.00  0.00    +0.214 C 
BRANCH  24  25
ATOM     25  O   UNL     1     -36.366  27.151   1.985  0.00  0.00    -0.448 OA
BRANCH  25  27
ATOM     26  O   UNL     1     -37.336  28.959   0.922  0.00  0.00    -0.250 OA
ATOM     27  C   UNL     1     -36.359  28.271   1.189  0.00  0.00    +0.318 C 
ATOM     28  C   UNL     1     -34.975  28.544   0.683  0.00  0.00    +0.121 C 
ENDBRANCH  25  27
ENDBRANCH  24  25
ENDBRANCH   6  24
TORSDOF 6
ENDMDL
MODEL 4
REMARK VINA RESULT:      -6.0      1.799      2.275
REMARK  Name = 21120844
REMARK  6 active torsions:
REMARK  status: ('A' for Active; 'I' for Inactive)
REMARK    1  A    between atoms: C_6  and  C_24
REMARK    2  A    between atoms: C_10  and  O_20
REMARK    3  A    between atoms: C_13  and  O_18
REMARK    4  A    between atoms: O_20  and  C_22
REMARK    5  A    between atoms: C_24  and  O_25
REMARK    6  A    between atoms: O_25  and  C_27
REMARK                            x       y       z     vdW  Elec       q    Type
REMARK                         _______ _______ _______ _____ _____    ______ ____
ROOT
ATOM      1  O   UNL     1     -33.805  25.257  -0.393  0.00  0.00    -0.351 OA
ATOM      2  O   UNL     1     -34.197  25.406   3.226  0.00  0.00    -0.348 OA
ATOM      3  O   UNL     1     -35.553  20.671   3.944  0.00  0.00    -0.289 OA
ATOM      4  C   UNL     1     -35.815  24.687   0.990  0.00  0.00    +0.040 C 
ATOM      5  C   UNL     1     -34.326  24.957   0.911  0.00  0.00    +0.148 C 
ATOM      6  C   UNL     1     -36.051  23.919   2.377  0.00  0.00    +0.103 C 
ATOM      7  C   UNL     1     -34.071  26.009   1.933  0.00  0.00    +0.182 C 
ATOM      8  C   UNL     1     -36.357  26.167   1.081  0.00  0.00    +0.049 C 
ATOM      9  C   UNL     1     -33.262  24.104   0.266  0.00  0.00    +0.172 C 
ATOM     10  C   UNL     1     -35.183  27.020   1.617  0.00  0.00    +0.198 C 
ATOM     11  C   UNL     1     -35.470  24.809   3.536  0.00  0.00    +0.143 C 
ATOM     12  C   UNL     1     -36.399  24.002  -0.249  0.00  0.00    +0.003 C 
ATOM     13  C   UNL     1     -35.324  22.540   2.435  0.00  0.00    +0.177 C 
ATOM     14  C   UNL     1     -35.279  24.087   4.841  0.00  0.00    +0.002 C 
ATOM     15  C   UNL     1     -35.414  21.886   3.810  0.00  0.00    +0.196 C 
ATOM     16  C   UNL     1     -35.270  22.757   5.011  0.00  0.00    +0.013 C 
ATOM     17  C   UNL     1     -35.122  22.095   6.343  0.00  0.00    +0.034 C 
ENDROOT
BRANCH  13  18
ATOM     18  O   UNL     1     -35.868  21.623   1.501  0.00  0.00    -0.377 OA
ATOM     19  H   UNL     1     -35.709  20.717   1.807  0.00  0.00    +0.211 HD
ENDBRANCH  13  18
BRANCH  10  20
ATOM     20  O   UNL     1     -35.536  27.809   2.735  0.00  0.00    -0.450 OA
BRANCH  20  22
ATOM     21  O   UNL     1     -33.841  29.109   3.613  0.00  0.00    -0.250 OA
ATOM     22  C   UNL     1     -34.827  28.970   2.902  0.00  0.00    +0.318 C 
ATOM     23  C   UNL     1     -35.432  30.070   2.084  0.00  0.00    +0.121 C 
ENDBRANCH  20  22
ENDBRANCH  10  20
BRANCH   6  24
ATOM     24  C   UNL     1     -37.570  23.683   2.618  0.00  0.00    +0.214 C 
BRANCH  24  25
ATOM     25  O   UNL     1     -38.072  24.818   3.281  0.00  0.00    -0.448 OA
BRANCH  25  27
ATOM     26  O   UNL     1     -39.749  26.393   3.065  0.00  0.00    -0.250 OA
ATOM     27  C   UNL     1     -39.302  25.271   2.867  0.00  0.00    +0.318 C 
ATOM     28  C   UNL     1     -40.035  24.192   2.128  0.00  0.00    +0.121 C 
ENDBRANCH  25  27
ENDBRANCH  24  25
ENDBRANCH   6  24
TORSDOF 6
ENDMDL
MODEL 5
REMARK VINA RESULT:      -5.9      2.710      6.268
REMARK  Name = 21120844
REMARK  6 active torsions:
REMARK  status: ('A' for Active; 'I' for Inactive)
REMARK    1  A    between atoms: C_6  and  C_24
REMARK    2  A    between atoms: C_10  and  O_20
REMARK    3  A    between atoms: C_13  and  O_18
REMARK    4  A    between atoms: O_20  and  C_22
REMARK    5  A    between atoms: C_24  and  O_25
REMARK    6  A    between atoms: O_25  and  C_27
REMARK                            x       y       z     vdW  Elec       q    Type
REMARK                         _______ _______ _______ _____ _____    ______ ____
ROOT
ATOM      1  O   UNL     1     -40.772  24.430  -0.146  0.00  0.00    -0.351 OA
ATOM      2  O   UNL     1     -38.695  26.887   1.564  0.00  0.00    -0.348 OA
ATOM      3  O   UNL     1     -34.284  24.753   0.691  0.00  0.00    -0.289 OA
ATOM      4  C   UNL     1     -39.123  24.071   1.706  0.00  0.00    +0.040 C 
ATOM      5  C   UNL     1     -39.671  24.960   0.609  0.00  0.00    +0.148 C 
ATOM      6  C   UNL     1     -37.661  24.635   2.043  0.00  0.00    +0.103 C 
ATOM      7  C   UNL     1     -39.950  26.263   1.273  0.00  0.00    +0.182 C 
ATOM      8  C   UNL     1     -40.131  24.421   2.871  0.00  0.00    +0.049 C 
ATOM      9  C   UNL     1     -39.583  24.753  -0.883  0.00  0.00    +0.172 C 
ATOM     10  C   UNL     1     -40.716  25.810   2.526  0.00  0.00    +0.198 C 
ATOM     11  C   UNL     1     -37.796  26.155   2.420  0.00  0.00    +0.143 C 
ATOM     12  C   UNL     1     -39.195  22.572   1.400  0.00  0.00    +0.003 C 
ATOM     13  C   UNL     1     -36.683  24.536   0.833  0.00  0.00    +0.177 C 
ATOM     14  C   UNL     1     -36.501  26.919   2.404  0.00  0.00    +0.002 C 
ATOM     15  C   UNL     1     -35.345  25.220   1.101  0.00  0.00    +0.196 C 
ATOM     16  C   UNL     1     -35.357  26.517   1.835  0.00  0.00    +0.013 C 
ATOM     17  C   UNL     1     -34.084  27.300   1.893  0.00  0.00    +0.034 C 
ENDROOT
BRANCH  13  18
ATOM     18  O   UNL     1     -36.401  23.188   0.497  0.00  0.00    -0.377 OA
ATOM     19  H   UNL     1     -37.230  22.722   0.308  0.00  0.00    +0.211 HD
ENDBRANCH  13  18
BRANCH  10  20
ATOM     20  O   UNL     1     -40.614  26.735   3.589  0.00  0.00    -0.450 OA
BRANCH  20  22
ATOM     21  O   UNL     1     -41.796  28.514   4.471  0.00  0.00    -0.250 OA
ATOM     22  C   UNL     1     -41.752  27.438   3.889  0.00  0.00    +0.318 C 
ATOM     23  C   UNL     1     -42.962  26.701   3.401  0.00  0.00    +0.121 C 
ENDBRANCH  20  22
ENDBRANCH  10  20
BRANCH   6  24
ATOM     24  C   UNL     1     -37.040  23.859   3.240  0.00  0.00    +0.214 C 
BRANCH  24  25
ATOM     25  O   UNL     1     -37.104  24.701   4.366  0.00  0.00    -0.448 OA
BRANCH  25  27
ATOM     26  O   UNL     1     -35.849  23.447   5.847  0.00  0.00    -0.250 OA
ATOM     27  C   UNL     1     -36.134  24.515   5.322  0.00  0.00    +0.318 C 
ATOM     28  C   UNL     1     -35.460  25.815   5.642  0.00  0.00    +0.121 C 
ENDBRANCH  25  27
ENDBRANCH  24  25
ENDBRANCH   6  24
TORSDOF 6
ENDMDL
MODEL 6
REMARK VINA RESULT:      -5.8      2.980      5.777
REMARK  Name = 21120844
REMARK  6 active torsions:
REMARK  status: ('A' for Active; 'I' for Inactive)
REMARK    1  A    between atoms: C_6  and  C_24
REMARK    2  A    between atoms: C_10  and  O_20
REMARK    3  A    between atoms: C_13  and  O_18
REMARK    4  A    between atoms: O_20  and  C_22
REMARK    5  A    between atoms: C_24  and  O_25
REMARK    6  A    between atoms: O_25  and  C_27
REMARK                            x       y       z     vdW  Elec       q    Type
REMARK                         _______ _______ _______ _____ _____    ______ ____
ROOT
ATOM      1  O   UNL     1     -34.850  24.555  -0.976  0.00  0.00    -0.351 OA
ATOM      2  O   UNL     1     -37.919  23.155   0.401  0.00  0.00    -0.348 OA
ATOM      3  O   UNL     1     -40.249  27.453   1.336  0.00  0.00    -0.289 OA
ATOM      4  C   UNL     1     -35.909  24.989   1.253  0.00  0.00    +0.040 C 
ATOM      5  C   UNL     1     -36.026  24.452  -0.159  0.00  0.00    +0.148 C 
ATOM      6  C   UNL     1     -37.410  25.215   1.766  0.00  0.00    +0.103 C 
ATOM      7  C   UNL     1     -36.547  23.067  -0.000  0.00  0.00    +0.182 C 
ATOM      8  C   UNL     1     -35.264  23.738   1.969  0.00  0.00    +0.049 C 
ATOM      9  C   UNL     1     -36.023  25.232  -1.450  0.00  0.00    +0.172 C 
ATOM     10  C   UNL     1     -35.623  22.514   1.094  0.00  0.00    +0.198 C 
ATOM     11  C   UNL     1     -38.185  23.855   1.632  0.00  0.00    +0.143 C 
ATOM     12  C   UNL     1     -34.976  26.196   1.394  0.00  0.00    +0.003 C 
ATOM     13  C   UNL     1     -38.180  26.280   0.927  0.00  0.00    +0.177 C 
ATOM     14  C   UNL     1     -39.681  23.978   1.719  0.00  0.00    +0.002 C 
ATOM     15  C   UNL     1     -39.654  26.376   1.310  0.00  0.00    +0.196 C 
ATOM     16  C   UNL     1     -40.386  25.112   1.601  0.00  0.00    +0.013 C 
ATOM     17  C   UNL     1     -41.873  25.179   1.745  0.00  0.00    +0.034 C 
ENDROOT
BRANCH  13  18
ATOM     18  O   UNL     1     -37.623  27.574   1.085  0.00  0.00    -0.377 OA
ATOM     19  H   UNL     1     -37.542  28.000   0.217  0.00  0.00    +0.211 HD
ENDBRANCH  13  18
BRANCH  10  20
ATOM     20  O   UNL     1     -36.215  21.462   1.828  0.00  0.00    -0.450 OA
BRANCH  20  22
ATOM     21  O   UNL     1     -35.304  20.616   3.774  0.00  0.00    -0.250 OA
ATOM     22  C   UNL     1     -35.359  20.674   2.553  0.00  0.00    +0.318 C 
ATOM     23  C   UNL     1     -34.481  19.879   1.635  0.00  0.00    +0.121 C 
ENDBRANCH  20  22
ENDBRANCH  10  20
BRANCH   6  24
ATOM     24  C   UNL     1     -37.415  25.668   3.255  0.00  0.00    +0.214 C 
BRANCH  24  25
ATOM     25  O   UNL     1     -37.385  24.507   4.048  0.00  0.00    -0.448 OA
BRANCH  25  27
ATOM     26  O   UNL     1     -36.005  23.462   5.579  0.00  0.00    -0.250 OA
ATOM     27  C   UNL     1     -36.439  24.474   5.044  0.00  0.00    +0.318 C 
ATOM     28  C   UNL     1     -36.000  25.863   5.395  0.00  0.00    +0.121 C 
ENDBRANCH  25  27
ENDBRANCH  24  25
ENDBRANCH   6  24
TORSDOF 6
ENDMDL
MODEL 7
REMARK VINA RESULT:      -5.8      2.499      4.615
REMARK  Name = 21120844
REMARK  6 active torsions:
REMARK  status: ('A' for Active; 'I' for Inactive)
REMARK    1  A    between atoms: C_6  and  C_24
REMARK    2  A    between atoms: C_10  and  O_20
REMARK    3  A    between atoms: C_13  and  O_18
REMARK    4  A    between atoms: O_20  and  C_22
REMARK    5  A    between atoms: C_24  and  O_25
REMARK    6  A    between atoms: O_25  and  C_27
REMARK                            x       y       z     vdW  Elec       q    Type
REMARK                         _______ _______ _______ _____ _____    ______ ____
ROOT
ATOM      1  O   UNL     1     -39.518  25.311   0.319  0.00  0.00    -0.351 OA
ATOM      2  O   UNL     1     -35.978  24.454   0.236  0.00  0.00    -0.348 OA
ATOM      3  O   UNL     1     -36.408  19.705   1.661  0.00  0.00    -0.289 OA
ATOM      4  C   UNL     1     -38.087  24.380   2.154  0.00  0.00    +0.040 C 
ATOM      5  C   UNL     1     -38.289  24.662   0.679  0.00  0.00    +0.148 C 
ATOM      6  C   UNL     1     -36.945  23.259   2.237  0.00  0.00    +0.103 C 
ATOM      7  C   UNL     1     -37.061  25.391   0.256  0.00  0.00    +0.182 C 
ATOM      8  C   UNL     1     -37.523  25.778   2.625  0.00  0.00    +0.049 C 
ATOM      9  C   UNL     1     -39.279  24.020  -0.261  0.00  0.00    +0.172 C 
ATOM     10  C   UNL     1     -36.936  26.449   1.362  0.00  0.00    +0.198 C 
ATOM     11  C   UNL     1     -35.675  23.795   1.480  0.00  0.00    +0.143 C 
ATOM     12  C   UNL     1     -39.376  24.064   2.918  0.00  0.00    +0.003 C 
ATOM     13  C   UNL     1     -37.364  21.918   1.561  0.00  0.00    +0.177 C 
ATOM     14  C   UNL     1     -34.656  22.740   1.149  0.00  0.00    +0.002 C 
ATOM     15  C   UNL     1     -36.222  20.910   1.496  0.00  0.00    +0.196 C 
ATOM     16  C   UNL     1     -34.859  21.415   1.167  0.00  0.00    +0.013 C 
ATOM     17  C   UNL     1     -33.791  20.411   0.873  0.00  0.00    +0.034 C 
ENDROOT
BRANCH  13  18
ATOM     18  O   UNL     1     -38.432  21.294   2.254  0.00  0.00    -0.377 OA
ATOM     19  H   UNL     1     -38.160  21.106   3.165  0.00  0.00    +0.211 HD
ENDBRANCH  13  18
BRANCH  10  20
ATOM     20  O   UNL     1     -35.609  26.899   1.538  0.00  0.00    -0.450 OA
BRANCH  20  22
ATOM     21  O   UNL     1     -34.917  28.183   3.330  0.00  0.00    -0.250 OA
ATOM     22  C   UNL     1     -35.454  28.068   2.236  0.00  0.00    +0.318 C 
ATOM     23  C   UNL     1     -36.044  29.213   1.469  0.00  0.00    +0.121 C 
ENDBRANCH  20  22
ENDBRANCH  10  20
BRANCH   6  24
ATOM     24  C   UNL     1     -36.576  22.965   3.720  0.00  0.00    +0.214 C 
BRANCH  24  25
ATOM     25  O   UNL     1     -35.520  23.826   4.070  0.00  0.00    -0.448 OA
BRANCH  25  27
ATOM     26  O   UNL     1     -34.663  24.779   5.993  0.00  0.00    -0.250 OA
ATOM     27  C   UNL     1     -35.149  23.829   5.393  0.00  0.00    +0.318 C 
ATOM     28  C   UNL     1     -35.424  22.494   6.017  0.00  0.00    +0.121 C 
ENDBRANCH  25  27
ENDBRANCH  24  25
ENDBRANCH   6  24
TORSDOF 6
ENDMDL
MODEL 8
REMARK VINA RESULT:      -5.8      2.834      6.538
REMARK  Name = 21120844
REMARK  6 active torsions:
REMARK  status: ('A' for Active; 'I' for Inactive)
REMARK    1  A    between atoms: C_6  and  C_24
REMARK    2  A    between atoms: C_10  and  O_20
REMARK    3  A    between atoms: C_13  and  O_18
REMARK    4  A    between atoms: O_20  and  C_22
REMARK    5  A    between atoms: C_24  and  O_25
REMARK    6  A    between atoms: O_25  and  C_27
REMARK                            x       y       z     vdW  Elec       q    Type
REMARK                         _______ _______ _______ _____ _____    ______ ____
ROOT
ATOM      1  O   UNL     1     -40.349  25.312   1.952  0.00  0.00    -0.351 OA
ATOM      2  O   UNL     1     -38.269  22.510   3.001  0.00  0.00    -0.348 OA
ATOM      3  O   UNL     1     -35.233  25.033   6.032  0.00  0.00    -0.289 OA
ATOM      4  C   UNL     1     -37.861  25.059   1.789  0.00  0.00    +0.040 C 
ATOM      5  C   UNL     1     -39.178  24.601   2.382  0.00  0.00    +0.148 C 
ATOM      6  C   UNL     1     -36.718  24.485   2.754  0.00  0.00    +0.103 C 
ATOM      7  C   UNL     1     -39.221  23.134   2.132  0.00  0.00    +0.182 C 
ATOM      8  C   UNL     1     -37.883  24.262   0.426  0.00  0.00    +0.049 C 
ATOM      9  C   UNL     1     -40.061  25.337   3.358  0.00  0.00    +0.172 C 
ATOM     10  C   UNL     1     -38.835  23.064   0.647  0.00  0.00    +0.198 C 
ATOM     11  C   UNL     1     -36.898  22.927   2.856  0.00  0.00    +0.143 C 
ATOM     12  C   UNL     1     -37.787  26.562   1.502  0.00  0.00    +0.003 C 
ATOM     13  C   UNL     1     -36.802  25.064   4.200  0.00  0.00    +0.177 C 
ATOM     14  C   UNL     1     -36.151  22.286   3.994  0.00  0.00    +0.002 C 
ATOM     15  C   UNL     1     -35.820  24.397   5.158  0.00  0.00    +0.196 C 
ATOM     16  C   UNL     1     -35.625  22.924   5.048  0.00  0.00    +0.013 C 
ATOM     17  C   UNL     1     -34.851  22.237   6.127  0.00  0.00    +0.034 C 
ENDROOT
BRANCH  13  18
ATOM     18  O   UNL     1     -36.529  26.455   4.224  0.00  0.00    -0.377 OA
ATOM     19  H   UNL     1     -35.789  26.629   4.825  0.00  0.00    +0.211 HD
ENDBRANCH  13  18
BRANCH  10  20
ATOM     20  O   UNL     1     -38.259  21.824   0.292  0.00  0.00    -0.450 OA
BRANCH  20  22
ATOM     21  O   UNL     1     -40.142  20.503   0.075  0.00  0.00    -0.250 OA
ATOM     22  C   UNL     1     -39.082  20.938  -0.355  0.00  0.00    +0.318 C 
ATOM     23  C   UNL     1     -38.499  20.564  -1.684  0.00  0.00    +0.121 C 
ENDBRANCH  20  22
ENDBRANCH  10  20
BRANCH   6  24
ATOM     24  C   UNL     1     -35.307  24.806   2.180  0.00  0.00    +0.214 C 
BRANCH  24  25
ATOM     25  O   UNL     1     -34.789  23.612   1.646  0.00  0.00    -0.448 OA
BRANCH  25  27
ATOM     26  O   UNL     1     -33.589  22.796  -0.152  0.00  0.00    -0.250 OA
ATOM     27  C   UNL     1     -34.131  23.717   0.444  0.00  0.00    +0.318 C 
ATOM     28  C   UNL     1     -34.168  25.132  -0.050  0.00  0.00    +0.121 C 
ENDBRANCH  25  27
ENDBRANCH  24  25
ENDBRANCH   6  24
TORSDOF 6
ENDMDL
MODEL 9
REMARK VINA RESULT:      -5.7      1.877      5.559
REMARK  Name = 21120844
REMARK  6 active torsions:
REMARK  status: ('A' for Active; 'I' for Inactive)
REMARK    1  A    between atoms: C_6  and  C_24
REMARK    2  A    between atoms: C_10  and  O_20
REMARK    3  A    between atoms: C_13  and  O_18
REMARK    4  A    between atoms: O_20  and  C_22
REMARK    5  A    between atoms: C_24  and  O_25
REMARK    6  A    between atoms: O_25  and  C_27
REMARK                            x       y       z     vdW  Elec       q    Type
REMARK                         _______ _______ _______ _____ _____    ______ ____
ROOT
ATOM      1  O   UNL     1     -37.284  26.575  -0.812  0.00  0.00    -0.351 OA
ATOM      2  O   UNL     1     -37.427  26.426   2.826  0.00  0.00    -0.348 OA
ATOM      3  O   UNL     1     -32.552  25.872   3.662  0.00  0.00    -0.289 OA
ATOM      4  C   UNL     1     -36.433  24.782   0.719  0.00  0.00    +0.040 C 
ATOM      5  C   UNL     1     -36.928  26.202   0.528  0.00  0.00    +0.148 C 
ATOM      6  C   UNL     1     -35.660  24.767   2.122  0.00  0.00    +0.103 C 
ATOM      7  C   UNL     1     -38.022  26.363   1.525  0.00  0.00    +0.182 C 
ATOM      8  C   UNL     1     -37.814  24.026   0.842  0.00  0.00    +0.049 C 
ATOM      9  C   UNL     1     -36.238  27.335  -0.189  0.00  0.00    +0.172 C 
ATOM     10  C   UNL     1     -38.845  25.089   1.287  0.00  0.00    +0.198 C 
ATOM     11  C   UNL     1     -36.646  25.285   3.231  0.00  0.00    +0.143 C 
ATOM     12  C   UNL     1     -35.647  24.222  -0.471  0.00  0.00    +0.003 C 
ATOM     13  C   UNL     1     -34.410  25.700   2.132  0.00  0.00    +0.177 C 
ATOM     14  C   UNL     1     -35.982  25.680   4.522  0.00  0.00    +0.002 C 
ATOM     15  C   UNL     1     -33.772  25.812   3.513  0.00  0.00    +0.196 C 
ATOM     16  C   UNL     1     -34.673  25.906   4.696  0.00  0.00    +0.013 C 
ATOM     17  C   UNL     1     -34.062  26.250   6.017  0.00  0.00    +0.034 C 
ENDROOT
BRANCH  13  18
ATOM     18  O   UNL     1     -33.406  25.238   1.245  0.00  0.00    -0.377 OA
ATOM     19  H   UNL     1     -33.536  24.293   1.073  0.00  0.00    +0.211 HD
ENDBRANCH  13  18
BRANCH  10  20
ATOM     20  O   UNL     1     -39.588  24.700   2.424  0.00  0.00    -0.450 OA
BRANCH  20  22
ATOM     21  O   UNL     1     -41.025  26.070   3.604  0.00  0.00    -0.250 OA
ATOM     22  C   UNL     1     -40.765  25.370   2.635  0.00  0.00    +0.318 C 
ATOM     23  C   UNL     1     -41.712  25.125   1.499  0.00  0.00    +0.121 C 
ENDBRANCH  20  22
ENDBRANCH  10  20
BRANCH   6  24
ATOM     24  C   UNL     1     -35.197  23.325   2.475  0.00  0.00    +0.214 C 
BRANCH  24  25
ATOM     25  O   UNL     1     -36.042  22.849   3.495  0.00  0.00    -0.448 OA
BRANCH  25  27
ATOM     26  O   UNL     1     -35.391  20.659   3.843  0.00  0.00    -0.250 OA
ATOM     27  C   UNL     1     -35.562  21.803   4.245  0.00  0.00    +0.318 C 
ATOM     28  C   UNL     1     -35.271  22.253   5.645  0.00  0.00    +0.121 C 
ENDBRANCH  25  27
ENDBRANCH  24  25
ENDBRANCH   6  24
TORSDOF 6
ENDMDL
