MODEL 1
REMARK VINA RESULT:      -5.4      0.000      0.000
REMARK  Name = 53507
REMARK  7 active torsions:
REMARK  status: ('A' for Active; 'I' for Inactive)
REMARK    1  A    between atoms: N_3  and  C_15
REMARK    2  A    between atoms: C_10  and  N_14
REMARK    3  A    between atoms: C_15  and  N_16
REMARK    4  A    between atoms: N_16  and  C_18
REMARK    5  A    between atoms: N_16  and  C_22
REMARK    6  A    between atoms: C_18  and  C_19
REMARK    7  A    between atoms: C_22  and  C_23
REMARK                            x       y       z     vdW  Elec       q    Type
REMARK                         _______ _______ _______ _____ _____    ______ ____
ROOT
ATOM      1  S   UNL     1     -32.746  27.629   4.160  0.00  0.00    -0.027 S 
ATOM      2  O   UNL     1     -34.952  23.842   5.848  0.00  0.00    -0.252 OA
ATOM      3  N   UNL     1     -35.337  23.535   3.566  0.00  0.00    -0.283 N 
ATOM      4  N   UNL     1     -34.149  25.375   4.187  0.00  0.00    -0.221 N 
ATOM      5  N   UNL     1     -33.334  26.305   6.300  0.00  0.00    -0.220 NA
ATOM      6  C   UNL     1     -34.943  24.151   2.325  0.00  0.00    +0.114 C 
ATOM      7  C   UNL     1     -34.355  25.482   2.749  0.00  0.00    +0.123 C 
ATOM      8  C   UNL     1     -34.816  24.215   4.689  0.00  0.00    +0.311 C 
ATOM      9  C   UNL     1     -33.475  26.315   4.991  0.00  0.00    +0.172 C 
ATOM     10  C   UNL     1     -32.195  28.246   5.662  0.00  0.00    +0.194 C 
ATOM     11  C   UNL     1     -32.601  27.412   6.681  0.00  0.00    +0.132 C 
ENDROOT
BRANCH  10  14
ATOM     12  O   UNL     1     -30.342  29.494   5.106  0.00  0.00    -0.126 OA
ATOM     13  O   UNL     1     -31.897  30.421   6.353  0.00  0.00    -0.126 OA
ATOM     14  N   UNL     1     -31.451  29.430   5.709  0.00  0.00    +0.065 N 
ENDBRANCH  10  14
BRANCH   3  15
ATOM     15  C   UNL     1     -36.058  22.281   3.599  0.00  0.00    +0.022 C 
BRANCH  15  16
ATOM     16  N   UNL     1     -35.882  21.558   2.333  0.00  0.00    +0.399 N 
ATOM     17  H   UNL     1     -35.498  22.212   1.652  0.00  0.00    -0.077 HD
BRANCH  16  18
ATOM     18  C   UNL     1     -37.151  21.066   1.809  0.00  0.00    -0.075 C 
BRANCH  18  19
ATOM     19  C   UNL     1     -38.225  22.165   1.742  0.00  0.00    -0.021 C 
ATOM     20  C   UNL     1     -39.643  21.612   1.899  0.00  0.00    -0.002 C 
ATOM     21  C   UNL     1     -38.112  22.918   0.413  0.00  0.00    -0.002 C 
ENDBRANCH  18  19
ENDBRANCH  16  18
BRANCH  16  22
ATOM     22  C   UNL     1     -34.953  20.440   2.528  0.00  0.00    -0.075 C 
BRANCH  22  23
ATOM     23  C   UNL     1     -34.345  19.944   1.204  0.00  0.00    -0.021 C 
ATOM     24  C   UNL     1     -33.352  18.797   1.407  0.00  0.00    -0.002 C 
ATOM     25  C   UNL     1     -33.651  21.105   0.487  0.00  0.00    -0.002 C 
ENDBRANCH  22  23
ENDBRANCH  16  22
ENDBRANCH  15  16
ENDBRANCH   3  15
TORSDOF 7
ENDMDL
MODEL 2
REMARK VINA RESULT:      -5.4      9.119     11.683
REMARK  Name = 53507
REMARK  7 active torsions:
REMARK  status: ('A' for Active; 'I' for Inactive)
REMARK    1  A    between atoms: N_3  and  C_15
REMARK    2  A    between atoms: C_10  and  N_14
REMARK    3  A    between atoms: C_15  and  N_16
REMARK    4  A    between atoms: N_16  and  C_18
REMARK    5  A    between atoms: N_16  and  C_22
REMARK    6  A    between atoms: C_18  and  C_19
REMARK    7  A    between atoms: C_22  and  C_23
REMARK                            x       y       z     vdW  Elec       q    Type
REMARK                         _______ _______ _______ _____ _____    ______ ____
ROOT
ATOM      1  S   UNL     1     -41.937  25.501   1.503  0.00  0.00    -0.027 S 
ATOM      2  O   UNL     1     -42.195  28.900   4.734  0.00  0.00    -0.252 OA
ATOM      3  N   UNL     1     -44.204  29.277   3.609  0.00  0.00    -0.283 N 
ATOM      4  N   UNL     1     -42.893  27.572   2.863  0.00  0.00    -0.221 N 
ATOM      5  N   UNL     1     -40.760  26.577   3.538  0.00  0.00    -0.220 NA
ATOM      6  C   UNL     1     -44.975  28.655   2.563  0.00  0.00    +0.114 C 
ATOM      7  C   UNL     1     -44.006  27.675   1.930  0.00  0.00    +0.123 C 
ATOM      8  C   UNL     1     -42.985  28.604   3.847  0.00  0.00    +0.311 C 
ATOM      9  C   UNL     1     -41.827  26.655   2.770  0.00  0.00    +0.172 C 
ATOM     10  C   UNL     1     -40.440  24.835   2.008  0.00  0.00    +0.194 C 
ATOM     11  C   UNL     1     -39.968  25.534   3.099  0.00  0.00    +0.132 C 
ENDROOT
BRANCH  10  14
ATOM     12  O   UNL     1     -38.929  23.929   0.527  0.00  0.00    -0.126 OA
ATOM     13  O   UNL     1     -40.353  22.586   1.528  0.00  0.00    -0.126 OA
ATOM     14  N   UNL     1     -39.888  23.743   1.330  0.00  0.00    +0.065 N 
ENDBRANCH  10  14
BRANCH   3  15
ATOM     15  C   UNL     1     -44.730  30.373   4.392  0.00  0.00    +0.022 C 
BRANCH  15  16
ATOM     16  N   UNL     1     -45.066  29.918   5.747  0.00  0.00    +0.399 N 
ATOM     17  H   UNL     1     -44.216  29.545   6.170  0.00  0.00    -0.077 HD
BRANCH  16  18
ATOM     18  C   UNL     1     -46.057  28.848   5.730  0.00  0.00    -0.075 C 
BRANCH  18  19
ATOM     19  C   UNL     1     -45.514  27.534   6.316  0.00  0.00    -0.021 C 
ATOM     20  C   UNL     1     -45.728  26.341   5.382  0.00  0.00    -0.002 C 
ATOM     21  C   UNL     1     -46.181  27.256   7.667  0.00  0.00    -0.002 C 
ENDBRANCH  18  19
ENDBRANCH  16  18
BRANCH  16  22
ATOM     22  C   UNL     1     -45.561  31.048   6.540  0.00  0.00    -0.075 C 
BRANCH  22  23
ATOM     23  C   UNL     1     -44.914  31.116   7.934  0.00  0.00    -0.021 C 
ATOM     24  C   UNL     1     -43.677  30.222   8.051  0.00  0.00    -0.002 C 
ATOM     25  C   UNL     1     -45.938  30.719   9.000  0.00  0.00    -0.002 C 
ENDBRANCH  22  23
ENDBRANCH  16  22
ENDBRANCH  15  16
ENDBRANCH   3  15
TORSDOF 7
ENDMDL
MODEL 3
REMARK VINA RESULT:      -5.3      4.708      8.529
REMARK  Name = 53507
REMARK  7 active torsions:
REMARK  status: ('A' for Active; 'I' for Inactive)
REMARK    1  A    between atoms: N_3  and  C_15
REMARK    2  A    between atoms: C_10  and  N_14
REMARK    3  A    between atoms: C_15  and  N_16
REMARK    4  A    between atoms: N_16  and  C_18
REMARK    5  A    between atoms: N_16  and  C_22
REMARK    6  A    between atoms: C_18  and  C_19
REMARK    7  A    between atoms: C_22  and  C_23
REMARK                            x       y       z     vdW  Elec       q    Type
REMARK                         _______ _______ _______ _____ _____    ______ ____
ROOT
ATOM      1  S   UNL     1     -34.490  17.664  -0.328  0.00  0.00    -0.027 S 
ATOM      2  O   UNL     1     -34.946  21.112   2.828  0.00  0.00    -0.252 OA
ATOM      3  N   UNL     1     -36.986  21.327   1.716  0.00  0.00    -0.283 N 
ATOM      4  N   UNL     1     -35.571  19.697   0.995  0.00  0.00    -0.221 N 
ATOM      5  N   UNL     1     -33.369  18.862   1.669  0.00  0.00    -0.220 NA
ATOM      6  C   UNL     1     -37.723  20.630   0.693  0.00  0.00    +0.114 C 
ATOM      7  C   UNL     1     -36.697  19.703   0.072  0.00  0.00    +0.123 C 
ATOM      8  C   UNL     1     -35.723  20.742   1.957  0.00  0.00    +0.311 C 
ATOM      9  C   UNL     1     -34.447  18.852   0.911  0.00  0.00    +0.172 C 
ATOM     10  C   UNL     1     -32.947  17.111   0.175  0.00  0.00    +0.194 C 
ATOM     11  C   UNL     1     -32.513  17.865   1.245  0.00  0.00    +0.132 C 
ENDROOT
BRANCH  10  14
ATOM     12  O   UNL     1     -32.396  15.966  -1.744  0.00  0.00    -0.126 OA
ATOM     13  O   UNL     1     -31.709  15.170   0.187  0.00  0.00    -0.126 OA
ATOM     14  N   UNL     1     -32.329  16.044  -0.485  0.00  0.00    +0.065 N 
ENDBRANCH  10  14
BRANCH   3  15
ATOM     15  C   UNL     1     -37.578  22.403   2.481  0.00  0.00    +0.022 C 
BRANCH  15  16
ATOM     16  N   UNL     1     -36.578  23.440   2.761  0.00  0.00    +0.399 N 
ATOM     17  H   UNL     1     -35.655  23.022   2.648  0.00  0.00    -0.077 HD
BRANCH  16  18
ATOM     18  C   UNL     1     -36.675  23.933   4.130  0.00  0.00    -0.075 C 
BRANCH  18  19
ATOM     19  C   UNL     1     -35.342  23.825   4.890  0.00  0.00    -0.021 C 
ATOM     20  C   UNL     1     -35.371  22.748   5.977  0.00  0.00    -0.002 C 
ATOM     21  C   UNL     1     -34.993  25.179   5.516  0.00  0.00    -0.002 C 
ENDBRANCH  18  19
ENDBRANCH  16  18
BRANCH  16  22
ATOM     22  C   UNL     1     -36.739  24.551   1.816  0.00  0.00    -0.075 C 
BRANCH  22  23
ATOM     23  C   UNL     1     -37.309  25.813   2.485  0.00  0.00    -0.021 C 
ATOM     24  C   UNL     1     -38.755  26.096   2.069  0.00  0.00    -0.002 C 
ATOM     25  C   UNL     1     -36.430  27.020   2.146  0.00  0.00    -0.002 C 
ENDBRANCH  22  23
ENDBRANCH  16  22
ENDBRANCH  15  16
ENDBRANCH   3  15
TORSDOF 7
ENDMDL
MODEL 4
REMARK VINA RESULT:      -5.3      2.168      2.857
REMARK  Name = 53507
REMARK  7 active torsions:
REMARK  status: ('A' for Active; 'I' for Inactive)
REMARK    1  A    between atoms: N_3  and  C_15
REMARK    2  A    between atoms: C_10  and  N_14
REMARK    3  A    between atoms: C_15  and  N_16
REMARK    4  A    between atoms: N_16  and  C_18
REMARK    5  A    between atoms: N_16  and  C_22
REMARK    6  A    between atoms: C_18  and  C_19
REMARK    7  A    between atoms: C_22  and  C_23
REMARK                            x       y       z     vdW  Elec       q    Type
REMARK                         _______ _______ _______ _____ _____    ______ ____
ROOT
ATOM      1  S   UNL     1     -31.185  28.444   3.820  0.00  0.00    -0.027 S 
ATOM      2  O   UNL     1     -35.295  26.631   5.191  0.00  0.00    -0.252 OA
ATOM      3  N   UNL     1     -35.484  26.330   2.885  0.00  0.00    -0.283 N 
ATOM      4  N   UNL     1     -33.579  27.306   3.658  0.00  0.00    -0.221 N 
ATOM      5  N   UNL     1     -32.672  27.881   5.858  0.00  0.00    -0.220 NA
ATOM      6  C   UNL     1     -34.661  26.501   1.715  0.00  0.00    +0.114 C 
ATOM      7  C   UNL     1     -33.504  27.349   2.204  0.00  0.00    +0.123 C 
ATOM      8  C   UNL     1     -34.828  26.745   4.065  0.00  0.00    +0.311 C 
ATOM      9  C   UNL     1     -32.612  27.821   4.544  0.00  0.00    +0.172 C 
ATOM     10  C   UNL     1     -30.587  28.830   5.380  0.00  0.00    +0.194 C 
ATOM     11  C   UNL     1     -31.511  28.460   6.334  0.00  0.00    +0.132 C 
ENDROOT
BRANCH  10  14
ATOM     12  O   UNL     1     -28.932  29.765   6.679  0.00  0.00    -0.126 OA
ATOM     13  O   UNL     1     -28.613  29.631   4.508  0.00  0.00    -0.126 OA
ATOM     14  N   UNL     1     -29.332  29.431   5.527  0.00  0.00    +0.065 N 
ENDBRANCH  10  14
BRANCH   3  15
ATOM     15  C   UNL     1     -36.769  25.668   2.821  0.00  0.00    +0.022 C 
BRANCH  15  16
ATOM     16  N   UNL     1     -36.590  24.223   2.633  0.00  0.00    +0.399 N 
ATOM     17  H   UNL     1     -35.657  24.072   2.250  0.00  0.00    -0.077 HD
BRANCH  16  18
ATOM     18  C   UNL     1     -37.552  23.676   1.684  0.00  0.00    -0.075 C 
BRANCH  18  19
ATOM     19  C   UNL     1     -38.772  23.048   2.380  0.00  0.00    -0.021 C 
ATOM     20  C   UNL     1     -39.063  21.628   1.888  0.00  0.00    -0.002 C 
ATOM     21  C   UNL     1     -40.004  23.931   2.159  0.00  0.00    -0.002 C 
ENDBRANCH  18  19
ENDBRANCH  16  18
BRANCH  16  22
ATOM     22  C   UNL     1     -36.714  23.537   3.924  0.00  0.00    -0.075 C 
BRANCH  22  23
ATOM     23  C   UNL     1     -35.461  22.716   4.276  0.00  0.00    -0.021 C 
ATOM     24  C   UNL     1     -35.475  21.323   3.641  0.00  0.00    -0.002 C 
ATOM     25  C   UNL     1     -35.338  22.587   5.796  0.00  0.00    -0.002 C 
ENDBRANCH  22  23
ENDBRANCH  16  22
ENDBRANCH  15  16
ENDBRANCH   3  15
TORSDOF 7
ENDMDL
MODEL 5
REMARK VINA RESULT:      -5.2      5.331      7.493
REMARK  Name = 53507
REMARK  7 active torsions:
REMARK  status: ('A' for Active; 'I' for Inactive)
REMARK    1  A    between atoms: N_3  and  C_15
REMARK    2  A    between atoms: C_10  and  N_14
REMARK    3  A    between atoms: C_15  and  N_16
REMARK    4  A    between atoms: N_16  and  C_18
REMARK    5  A    between atoms: N_16  and  C_22
REMARK    6  A    between atoms: C_18  and  C_19
REMARK    7  A    between atoms: C_22  and  C_23
REMARK                            x       y       z     vdW  Elec       q    Type
REMARK                         _______ _______ _______ _____ _____    ______ ____
ROOT
ATOM      1  S   UNL     1     -41.704  27.122   1.236  0.00  0.00    -0.027 S 
ATOM      2  O   UNL     1     -38.802  24.490   3.827  0.00  0.00    -0.252 OA
ATOM      3  N   UNL     1     -38.074  23.890   1.693  0.00  0.00    -0.283 N 
ATOM      4  N   UNL     1     -39.779  25.392   1.831  0.00  0.00    -0.221 N 
ATOM      5  N   UNL     1     -40.996  26.501   3.644  0.00  0.00    -0.220 NA
ATOM      6  C   UNL     1     -38.330  24.278   0.329  0.00  0.00    +0.114 C 
ATOM      7  C   UNL     1     -39.603  25.097   0.416  0.00  0.00    +0.123 C 
ATOM      8  C   UNL     1     -38.886  24.594   2.610  0.00  0.00    +0.311 C 
ATOM      9  C   UNL     1     -40.744  26.264   2.373  0.00  0.00    +0.172 C 
ATOM     10  C   UNL     1     -42.531  27.875   2.536  0.00  0.00    +0.194 C 
ATOM     11  C   UNL     1     -42.020  27.423   3.733  0.00  0.00    +0.132 C 
ENDROOT
BRANCH  10  14
ATOM     12  O   UNL     1     -43.320  30.033   2.388  0.00  0.00    -0.126 OA
ATOM     13  O   UNL     1     -44.700  28.378   1.952  0.00  0.00    -0.126 OA
ATOM     14  N   UNL     1     -43.555  28.795   2.283  0.00  0.00    +0.065 N 
ENDBRANCH  10  14
BRANCH   3  15
ATOM     15  C   UNL     1     -36.997  22.988   2.038  0.00  0.00    +0.022 C 
BRANCH  15  16
ATOM     16  N   UNL     1     -35.904  23.722   2.685  0.00  0.00    +0.399 N 
ATOM     17  H   UNL     1     -36.296  24.573   3.088  0.00  0.00    -0.077 HD
BRANCH  16  18
ATOM     18  C   UNL     1     -34.875  24.117   1.731  0.00  0.00    -0.075 C 
BRANCH  18  19
ATOM     19  C   UNL     1     -34.472  25.594   1.879  0.00  0.00    -0.021 C 
ATOM     20  C   UNL     1     -33.282  25.787   2.821  0.00  0.00    -0.002 C 
ATOM     21  C   UNL     1     -35.667  26.407   2.386  0.00  0.00    -0.002 C 
ENDBRANCH  18  19
ENDBRANCH  16  18
BRANCH  16  22
ATOM     22  C   UNL     1     -35.314  22.897   3.745  0.00  0.00    -0.075 C 
BRANCH  22  23
ATOM     23  C   UNL     1     -35.864  23.249   5.139  0.00  0.00    -0.021 C 
ATOM     24  C   UNL     1     -35.524  24.681   5.560  0.00  0.00    -0.002 C 
ATOM     25  C   UNL     1     -35.315  22.264   6.174  0.00  0.00    -0.002 C 
ENDBRANCH  22  23
ENDBRANCH  16  22
ENDBRANCH  15  16
ENDBRANCH   3  15
TORSDOF 7
ENDMDL
MODEL 6
REMARK VINA RESULT:      -5.2      2.226      3.281
REMARK  Name = 53507
REMARK  7 active torsions:
REMARK  status: ('A' for Active; 'I' for Inactive)
REMARK    1  A    between atoms: N_3  and  C_15
REMARK    2  A    between atoms: C_10  and  N_14
REMARK    3  A    between atoms: C_15  and  N_16
REMARK    4  A    between atoms: N_16  and  C_18
REMARK    5  A    between atoms: N_16  and  C_22
REMARK    6  A    between atoms: C_18  and  C_19
REMARK    7  A    between atoms: C_22  and  C_23
REMARK                            x       y       z     vdW  Elec       q    Type
REMARK                         _______ _______ _______ _____ _____    ______ ____
ROOT
ATOM      1  S   UNL     1     -31.619  29.799   3.235  0.00  0.00    -0.027 S 
ATOM      2  O   UNL     1     -33.754  26.722   6.070  0.00  0.00    -0.252 OA
ATOM      3  N   UNL     1     -33.826  25.526   4.068  0.00  0.00    -0.283 N 
ATOM      4  N   UNL     1     -32.856  27.584   4.020  0.00  0.00    -0.221 N 
ATOM      5  N   UNL     1     -32.379  29.337   5.662  0.00  0.00    -0.220 NA
ATOM      6  C   UNL     1     -33.323  25.660   2.725  0.00  0.00    +0.114 C 
ATOM      7  C   UNL     1     -32.886  27.110   2.643  0.00  0.00    +0.123 C 
ATOM      8  C   UNL     1     -33.499  26.638   4.875  0.00  0.00    +0.311 C 
ATOM      9  C   UNL     1     -32.354  28.829   4.447  0.00  0.00    +0.172 C 
ATOM     10  C   UNL     1     -31.305  31.001   4.417  0.00  0.00    +0.194 C 
ATOM     11  C   UNL     1     -31.778  30.580   5.642  0.00  0.00    +0.132 C 
ENDROOT
BRANCH  10  14
ATOM     12  O   UNL     1     -31.302  33.099   3.469  0.00  0.00    -0.126 OA
ATOM     13  O   UNL     1     -29.432  32.338   4.340  0.00  0.00    -0.126 OA
ATOM     14  N   UNL     1     -30.656  32.189   4.062  0.00  0.00    +0.065 N 
ENDBRANCH  10  14
BRANCH   3  15
ATOM     15  C   UNL     1     -34.458  24.307   4.525  0.00  0.00    +0.022 C 
BRANCH  15  16
ATOM     16  N   UNL     1     -35.752  24.121   3.858  0.00  0.00    +0.399 N 
ATOM     17  H   UNL     1     -35.642  24.395   2.882  0.00  0.00    -0.077 HD
BRANCH  16  18
ATOM     18  C   UNL     1     -36.789  24.966   4.441  0.00  0.00    -0.075 C 
BRANCH  18  19
ATOM     19  C   UNL     1     -37.687  25.614   3.373  0.00  0.00    -0.021 C 
ATOM     20  C   UNL     1     -39.032  24.900   3.224  0.00  0.00    -0.002 C 
ATOM     21  C   UNL     1     -36.960  25.628   2.025  0.00  0.00    -0.002 C 
ENDBRANCH  18  19
ENDBRANCH  16  18
BRANCH  16  22
ATOM     22  C   UNL     1     -36.151  22.712   3.937  0.00  0.00    -0.075 C 
BRANCH  22  23
ATOM     23  C   UNL     1     -36.116  22.014   2.566  0.00  0.00    -0.021 C 
ATOM     24  C   UNL     1     -37.516  21.730   2.016  0.00  0.00    -0.002 C 
ATOM     25  C   UNL     1     -35.330  20.705   2.673  0.00  0.00    -0.002 C 
ENDBRANCH  22  23
ENDBRANCH  16  22
ENDBRANCH  15  16
ENDBRANCH   3  15
TORSDOF 7
ENDMDL
MODEL 7
REMARK VINA RESULT:      -5.2      2.907      5.236
REMARK  Name = 53507
REMARK  7 active torsions:
REMARK  status: ('A' for Active; 'I' for Inactive)
REMARK    1  A    between atoms: N_3  and  C_15
REMARK    2  A    between atoms: C_10  and  N_14
REMARK    3  A    between atoms: C_15  and  N_16
REMARK    4  A    between atoms: N_16  and  C_18
REMARK    5  A    between atoms: N_16  and  C_22
REMARK    6  A    between atoms: C_18  and  C_19
REMARK    7  A    between atoms: C_22  and  C_23
REMARK                            x       y       z     vdW  Elec       q    Type
REMARK                         _______ _______ _______ _____ _____    ______ ____
ROOT
ATOM      1  S   UNL     1     -34.943  24.459   3.126  0.00  0.00    -0.027 S 
ATOM      2  O   UNL     1     -36.120  19.953   2.516  0.00  0.00    -0.252 OA
ATOM      3  N   UNL     1     -35.724  20.558   0.298  0.00  0.00    -0.283 N 
ATOM      4  N   UNL     1     -35.451  22.168   1.883  0.00  0.00    -0.221 N 
ATOM      5  N   UNL     1     -35.624  22.272   4.324  0.00  0.00    -0.220 NA
ATOM      6  C   UNL     1     -35.231  21.702  -0.425  0.00  0.00    +0.114 C 
ATOM      7  C   UNL     1     -35.269  22.822   0.595  0.00  0.00    +0.123 C 
ATOM      8  C   UNL     1     -35.800  20.796   1.688  0.00  0.00    +0.311 C 
ATOM      9  C   UNL     1     -35.387  22.800   3.141  0.00  0.00    +0.172 C 
ATOM     10  C   UNL     1     -35.076  24.488   4.835  0.00  0.00    +0.194 C 
ATOM     11  C   UNL     1     -35.445  23.241   5.292  0.00  0.00    +0.132 C 
ENDROOT
BRANCH  10  14
ATOM     12  O   UNL     1     -35.787  26.370   5.955  0.00  0.00    -0.126 OA
ATOM     13  O   UNL     1     -33.625  26.015   5.765  0.00  0.00    -0.126 OA
ATOM     14  N   UNL     1     -34.820  25.668   5.544  0.00  0.00    +0.065 N 
ENDBRANCH  10  14
BRANCH   3  15
ATOM     15  C   UNL     1     -35.958  19.288  -0.355  0.00  0.00    +0.022 C 
BRANCH  15  16
ATOM     16  N   UNL     1     -35.064  18.260   0.191  0.00  0.00    +0.399 N 
ATOM     17  H   UNL     1     -35.038  18.377   1.204  0.00  0.00    -0.077 HD
BRANCH  16  18
ATOM     18  C   UNL     1     -33.701  18.405  -0.307  0.00  0.00    -0.075 C 
BRANCH  18  19
ATOM     19  C   UNL     1     -32.748  18.990   0.750  0.00  0.00    -0.021 C 
ATOM     20  C   UNL     1     -31.924  20.162   0.213  0.00  0.00    -0.002 C 
ATOM     21  C   UNL     1     -31.810  17.894   1.263  0.00  0.00    -0.002 C 
ENDBRANCH  18  19
ENDBRANCH  16  18
BRANCH  16  22
ATOM     22  C   UNL     1     -35.580  16.928  -0.142  0.00  0.00    -0.075 C 
BRANCH  22  23
ATOM     23  C   UNL     1     -36.876  16.990  -0.970  0.00  0.00    -0.021 C 
ATOM     24  C   UNL     1     -38.047  16.284  -0.281  0.00  0.00    -0.002 C 
ATOM     25  C   UNL     1     -36.638  16.368  -2.348  0.00  0.00    -0.002 C 
ENDBRANCH  22  23
ENDBRANCH  16  22
ENDBRANCH  15  16
ENDBRANCH   3  15
TORSDOF 7
ENDMDL
MODEL 8
REMARK VINA RESULT:      -5.2      2.688      4.783
REMARK  Name = 53507
REMARK  7 active torsions:
REMARK  status: ('A' for Active; 'I' for Inactive)
REMARK    1  A    between atoms: N_3  and  C_15
REMARK    2  A    between atoms: C_10  and  N_14
REMARK    3  A    between atoms: C_15  and  N_16
REMARK    4  A    between atoms: N_16  and  C_18
REMARK    5  A    between atoms: N_16  and  C_22
REMARK    6  A    between atoms: C_18  and  C_19
REMARK    7  A    between atoms: C_22  and  C_23
REMARK                            x       y       z     vdW  Elec       q    Type
REMARK                         _______ _______ _______ _____ _____    ______ ____
ROOT
ATOM      1  S   UNL     1     -34.827  24.969   2.769  0.00  0.00    -0.027 S 
ATOM      2  O   UNL     1     -35.463  20.326   3.088  0.00  0.00    -0.252 OA
ATOM      3  N   UNL     1     -35.517  20.570   0.768  0.00  0.00    -0.283 N 
ATOM      4  N   UNL     1     -35.213  22.453   2.009  0.00  0.00    -0.221 N 
ATOM      5  N   UNL     1     -35.001  22.966   4.394  0.00  0.00    -0.220 NA
ATOM      6  C   UNL     1     -35.308  21.615  -0.201  0.00  0.00    +0.114 C 
ATOM      7  C   UNL     1     -35.333  22.887   0.624  0.00  0.00    +0.123 C 
ATOM      8  C   UNL     1     -35.399  21.040   2.095  0.00  0.00    +0.311 C 
ATOM      9  C   UNL     1     -35.033  23.300   3.120  0.00  0.00    +0.172 C 
ATOM     10  C   UNL     1     -34.684  25.284   4.448  0.00  0.00    +0.194 C 
ATOM     11  C   UNL     1     -34.801  24.104   5.151  0.00  0.00    +0.132 C 
ENDROOT
BRANCH  10  14
ATOM     12  O   UNL     1     -33.856  26.779   5.990  0.00  0.00    -0.126 OA
ATOM     13  O   UNL     1     -34.920  27.563   4.233  0.00  0.00    -0.126 OA
ATOM     14  N   UNL     1     -34.480  26.590   4.907  0.00  0.00    +0.065 N 
ENDBRANCH  10  14
BRANCH   3  15
ATOM     15  C   UNL     1     -35.679  19.188   0.373  0.00  0.00    +0.022 C 
BRANCH  15  16
ATOM     16  N   UNL     1     -34.421  18.661  -0.168  0.00  0.00    +0.399 N 
ATOM     17  H   UNL     1     -33.953  19.419  -0.664  0.00  0.00    -0.077 HD
BRANCH  16  18
ATOM     18  C   UNL     1     -34.650  17.583  -1.124  0.00  0.00    -0.075 C 
BRANCH  18  19
ATOM     19  C   UNL     1     -34.162  16.221  -0.601  0.00  0.00    -0.021 C 
ATOM     20  C   UNL     1     -33.229  15.512  -1.586  0.00  0.00    -0.002 C 
ATOM     21  C   UNL     1     -35.365  15.323  -0.296  0.00  0.00    -0.002 C 
ENDBRANCH  18  19
ENDBRANCH  16  18
BRANCH  16  22
ATOM     22  C   UNL     1     -33.571  18.185   0.929  0.00  0.00    -0.075 C 
BRANCH  22  23
ATOM     23  C   UNL     1     -32.223  18.925   0.992  0.00  0.00    -0.021 C 
ATOM     24  C   UNL     1     -32.085  19.986  -0.103  0.00  0.00    -0.002 C 
ATOM     25  C   UNL     1     -31.076  17.919   0.881  0.00  0.00    -0.002 C 
ENDBRANCH  22  23
ENDBRANCH  16  22
ENDBRANCH  15  16
ENDBRANCH   3  15
TORSDOF 7
ENDMDL
MODEL 9
REMARK VINA RESULT:      -5.2      3.106      9.098
REMARK  Name = 53507
REMARK  7 active torsions:
REMARK  status: ('A' for Active; 'I' for Inactive)
REMARK    1  A    between atoms: N_3  and  C_15
REMARK    2  A    between atoms: C_10  and  N_14
REMARK    3  A    between atoms: C_15  and  N_16
REMARK    4  A    between atoms: N_16  and  C_18
REMARK    5  A    between atoms: N_16  and  C_22
REMARK    6  A    between atoms: C_18  and  C_19
REMARK    7  A    between atoms: C_22  and  C_23
REMARK                            x       y       z     vdW  Elec       q    Type
REMARK                         _______ _______ _______ _____ _____    ______ ____
ROOT
ATOM      1  S   UNL     1     -34.787  24.094   2.747  0.00  0.00    -0.027 S 
ATOM      2  O   UNL     1     -33.196  26.836   6.213  0.00  0.00    -0.252 OA
ATOM      3  N   UNL     1     -32.585  28.136   4.373  0.00  0.00    -0.283 N 
ATOM      4  N   UNL     1     -33.638  26.162   3.954  0.00  0.00    -0.221 N 
ATOM      5  N   UNL     1     -34.590  24.360   5.311  0.00  0.00    -0.220 NA
ATOM      6  C   UNL     1     -32.767  28.116   2.944  0.00  0.00    +0.114 C 
ATOM      7  C   UNL     1     -33.259  26.710   2.659  0.00  0.00    +0.123 C 
ATOM      8  C   UNL     1     -33.158  27.007   5.000  0.00  0.00    +0.311 C 
ATOM      9  C   UNL     1     -34.299  24.936   4.163  0.00  0.00    +0.172 C 
ATOM     10  C   UNL     1     -35.440  22.854   3.735  0.00  0.00    +0.194 C 
ATOM     11  C   UNL     1     -35.243  23.168   5.063  0.00  0.00    +0.132 C 
ENDROOT
BRANCH  10  14
ATOM     12  O   UNL     1     -35.501  20.607   3.234  0.00  0.00    -0.126 OA
ATOM     13  O   UNL     1     -37.163  21.879   2.561  0.00  0.00    -0.126 OA
ATOM     14  N   UNL     1     -36.057  21.740   3.155  0.00  0.00    +0.065 N 
ENDBRANCH  10  14
BRANCH   3  15
ATOM     15  C   UNL     1     -32.007  29.276   5.050  0.00  0.00    +0.022 C 
BRANCH  15  16
ATOM     16  N   UNL     1     -30.562  29.088   5.225  0.00  0.00    +0.399 N 
ATOM     17  H   UNL     1     -30.341  28.125   4.971  0.00  0.00    -0.077 HD
BRANCH  16  18
ATOM     18  C   UNL     1     -30.153  29.285   6.611  0.00  0.00    -0.075 C 
BRANCH  18  19
ATOM     19  C   UNL     1     -28.675  28.926   6.844  0.00  0.00    -0.021 C 
ATOM     20  C   UNL     1     -28.443  27.415   6.927  0.00  0.00    -0.002 C 
ATOM     21  C   UNL     1     -28.177  29.594   8.129  0.00  0.00    -0.002 C 
ENDBRANCH  18  19
ENDBRANCH  16  18
BRANCH  16  22
ATOM     22  C   UNL     1     -29.833  30.013   4.351  0.00  0.00    -0.075 C 
BRANCH  22  23
ATOM     23  C   UNL     1     -29.949  31.475   4.816  0.00  0.00    -0.021 C 
ATOM     24  C   UNL     1     -30.781  32.332   3.858  0.00  0.00    -0.002 C 
ATOM     25  C   UNL     1     -28.552  32.081   4.966  0.00  0.00    -0.002 C 
ENDBRANCH  22  23
ENDBRANCH  16  22
ENDBRANCH  15  16
ENDBRANCH   3  15
TORSDOF 7
ENDMDL
