MODEL 1
REMARK VINA RESULT:      -6.0      0.000      0.000
REMARK  Name = 21121490
REMARK  8 active torsions:
REMARK  status: ('A' for Active; 'I' for Inactive)
REMARK    1  A    between atoms: N_1  and  C1*_11
REMARK    2  A    between atoms: C_5  and  C_25
REMARK    3  A    between atoms: C2*_12  and  O2*_15
REMARK    4  A    between atoms: C3*_13  and  O3*_17
REMARK    5  A    between atoms: C4*_14  and  C5*_19
REMARK    6  A    between atoms: C5*_19  and  O5*_20
REMARK    7  A    between atoms: C_25  and  C_26
REMARK    8  A    between atoms: C_26  and  O_28
REMARK                            x       y       z     vdW  Elec       q    Type
REMARK                         _______ _______ _______ _____ _____    ______ ____
ROOT
ATOM      1  N   UNL     1     -35.810  25.876   3.565  0.00  0.00    -0.224 N 
ATOM      2  N   UNL     1     -37.703  24.833   4.108  0.00  0.00    -0.385 NA
ATOM      3  N   UNL     1     -36.596  27.229   1.708  0.00  0.00    -0.227 NA
ATOM      4  N   UNL     1     -38.973  26.865   1.291  0.00  0.00    -0.227 NA
ATOM      5  C   UNL     1     -36.426  24.976   4.393  0.00  0.00    +0.169 C 
ATOM      6  C   UNL     1     -36.756  26.335   2.695  0.00  0.00    +0.169 C 
ATOM      7  C   UNL     1     -37.924  25.676   3.048  0.00  0.00    +0.195 C 
ATOM      8  C   UNL     1     -39.061  25.970   2.304  0.00  0.00    +0.155 C 
ATOM      9  C   UNL     1     -37.763  27.431   1.059  0.00  0.00    +0.253 C 
ATOM     10  N   UNL     1     -40.288  25.349   2.593  0.00  0.00    -0.341 N 
ATOM     11  H   UNL     1     -41.087  25.564   2.059  0.00  0.00    +0.144 HD
ATOM     12  H   UNL     1     -40.350  24.698   3.328  0.00  0.00    +0.144 HD
ENDROOT
BRANCH   1  14
ATOM     13  O4* UNL     1     -34.280  27.570   4.216  0.00  0.00    -0.333 OA
ATOM     14  C1* UNL     1     -34.404  26.275   3.599  0.00  0.00    +0.229 C 
ATOM     15  C2* UNL     1     -33.761  26.397   2.226  0.00  0.00    +0.187 C 
ATOM     16  C3* UNL     1     -32.636  27.374   2.506  0.00  0.00    +0.171 C 
ATOM     17  C4* UNL     1     -33.281  28.333   3.503  0.00  0.00    +0.175 C 
BRANCH  15  18
ATOM     18  O2* UNL     1     -33.302  25.149   1.746  0.00  0.00    -0.378 OA
ATOM     19  H2* UNL     1     -33.057  25.232   0.811  0.00  0.00    +0.211 HD
ENDBRANCH  15  18
BRANCH  16  20
ATOM     20  O3* UNL     1     -31.561  26.693   3.151  0.00  0.00    -0.379 OA
ATOM     21  H3* UNL     1     -31.484  27.005   4.066  0.00  0.00    +0.211 HD
ENDBRANCH  16  20
BRANCH  17  22
ATOM     22  C5* UNL     1     -33.966  29.515   2.833  0.00  0.00    +0.169 C 
BRANCH  22  23
ATOM     23  O5* UNL     1     -35.324  29.541   3.238  0.00  0.00    -0.379 OA
ATOM     24  H5* UNL     1     -35.472  30.301   3.823  0.00  0.00    +0.211 HD
ENDBRANCH  22  23
ENDBRANCH  17  22
ENDBRANCH   1  14
BRANCH   5  25
ATOM     25  C   UNL     1     -35.697  24.274   5.470  0.00  0.00    +0.104 C 
BRANCH  25  26
ATOM     26  C   UNL     1     -35.442  22.781   5.155  0.00  0.00    +0.119 C 
ATOM     27  C   UNL     1     -35.340  21.929   6.414  0.00  0.00    +0.032 C 
BRANCH  26  28
ATOM     28  O   UNL     1     -36.511  22.274   4.357  0.00  0.00    -0.384 OA
ATOM     29  H   UNL     1     -36.149  21.751   3.626  0.00  0.00    +0.210 HD
ENDBRANCH  26  28
ENDBRANCH  25  26
ENDBRANCH   5  25
TORSDOF 8
ENDMDL
MODEL 2
REMARK VINA RESULT:      -5.9      2.983      4.568
REMARK  Name = 21121490
REMARK  8 active torsions:
REMARK  status: ('A' for Active; 'I' for Inactive)
REMARK    1  A    between atoms: N_1  and  C1*_11
REMARK    2  A    between atoms: C_5  and  C_25
REMARK    3  A    between atoms: C2*_12  and  O2*_15
REMARK    4  A    between atoms: C3*_13  and  O3*_17
REMARK    5  A    between atoms: C4*_14  and  C5*_19
REMARK    6  A    between atoms: C5*_19  and  O5*_20
REMARK    7  A    between atoms: C_25  and  C_26
REMARK    8  A    between atoms: C_26  and  O_28
REMARK                            x       y       z     vdW  Elec       q    Type
REMARK                         _______ _______ _______ _____ _____    ______ ____
ROOT
ATOM      1  N   UNL     1     -36.819  23.366   2.600  0.00  0.00    -0.224 N 
ATOM      2  N   UNL     1     -37.914  22.227   1.028  0.00  0.00    -0.385 NA
ATOM      3  N   UNL     1     -38.635  24.715   3.480  0.00  0.00    -0.227 NA
ATOM      4  N   UNL     1     -40.730  24.248   2.319  0.00  0.00    -0.227 NA
ATOM      5  C   UNL     1     -36.749  22.425   1.607  0.00  0.00    +0.169 C 
ATOM      6  C   UNL     1     -38.113  23.796   2.656  0.00  0.00    +0.169 C 
ATOM      7  C   UNL     1     -38.777  23.078   1.673  0.00  0.00    +0.195 C 
ATOM      8  C   UNL     1     -40.136  23.330   1.519  0.00  0.00    +0.155 C 
ATOM      9  C   UNL     1     -39.955  24.874   3.237  0.00  0.00    +0.253 C 
ATOM     10  N   UNL     1     -40.887  22.647   0.547  0.00  0.00    -0.341 N 
ATOM     11  H   UNL     1     -41.849  22.835   0.446  0.00  0.00    +0.144 HD
ATOM     12  H   UNL     1     -40.453  21.982  -0.034  0.00  0.00    +0.144 HD
ENDROOT
BRANCH   1  14
ATOM     13  O4* UNL     1     -35.064  22.700   4.051  0.00  0.00    -0.333 OA
ATOM     14  C1* UNL     1     -35.719  23.829   3.444  0.00  0.00    +0.229 C 
ATOM     15  C2* UNL     1     -36.154  24.732   4.589  0.00  0.00    +0.187 C 
ATOM     16  C3* UNL     1     -35.028  24.522   5.582  0.00  0.00    +0.171 C 
ATOM     17  C4* UNL     1     -34.720  23.037   5.415  0.00  0.00    +0.175 C 
BRANCH  15  18
ATOM     18  O2* UNL     1     -36.285  26.077   4.177  0.00  0.00    -0.378 OA
ATOM     19  H2* UNL     1     -36.796  26.116   3.354  0.00  0.00    +0.211 HD
ENDBRANCH  15  18
BRANCH  16  20
ATOM     20  O3* UNL     1     -33.887  25.277   5.176  0.00  0.00    -0.379 OA
ATOM     21  H3* UNL     1     -33.085  24.869   5.536  0.00  0.00    +0.211 HD
ENDBRANCH  16  20
BRANCH  17  22
ATOM     22  C5* UNL     1     -35.534  22.153   6.348  0.00  0.00    +0.169 C 
BRANCH  22  23
ATOM     23  O5* UNL     1     -35.522  20.828   5.844  0.00  0.00    -0.379 OA
ATOM     24  H5* UNL     1     -35.233  20.219   6.542  0.00  0.00    +0.211 HD
ENDBRANCH  22  23
ENDBRANCH  17  22
ENDBRANCH   1  14
BRANCH   5  25
ATOM     25  C   UNL     1     -35.486  21.739   1.264  0.00  0.00    +0.104 C 
BRANCH  25  26
ATOM     26  C   UNL     1     -35.499  20.233   1.618  0.00  0.00    +0.119 C 
ATOM     27  C   UNL     1     -34.099  19.634   1.672  0.00  0.00    +0.032 C 
BRANCH  26  28
ATOM     28  O   UNL     1     -36.115  20.049   2.892  0.00  0.00    -0.384 OA
ATOM     29  H   UNL     1     -35.454  19.738   3.529  0.00  0.00    +0.210 HD
ENDBRANCH  26  28
ENDBRANCH  25  26
ENDBRANCH   5  25
TORSDOF 8
ENDMDL
MODEL 3
REMARK VINA RESULT:      -5.7      3.473      5.775
REMARK  Name = 21121490
REMARK  8 active torsions:
REMARK  status: ('A' for Active; 'I' for Inactive)
REMARK    1  A    between atoms: N_1  and  C1*_11
REMARK    2  A    between atoms: C_5  and  C_25
REMARK    3  A    between atoms: C2*_12  and  O2*_15
REMARK    4  A    between atoms: C3*_13  and  O3*_17
REMARK    5  A    between atoms: C4*_14  and  C5*_19
REMARK    6  A    between atoms: C5*_19  and  O5*_20
REMARK    7  A    between atoms: C_25  and  C_26
REMARK    8  A    between atoms: C_26  and  O_28
REMARK                            x       y       z     vdW  Elec       q    Type
REMARK                         _______ _______ _______ _____ _____    ______ ____
ROOT
ATOM      1  N   UNL     1     -37.181  23.323   3.312  0.00  0.00    -0.224 N 
ATOM      2  N   UNL     1     -35.321  22.180   3.759  0.00  0.00    -0.385 NA
ATOM      3  N   UNL     1     -38.020  22.036   1.431  0.00  0.00    -0.227 NA
ATOM      4  N   UNL     1     -36.538  20.171   0.903  0.00  0.00    -0.227 NA
ATOM      5  C   UNL     1     -36.069  23.206   4.104  0.00  0.00    +0.169 C 
ATOM      6  C   UNL     1     -37.135  22.306   2.403  0.00  0.00    +0.169 C 
ATOM      7  C   UNL     1     -35.974  21.608   2.697  0.00  0.00    +0.195 C 
ATOM      8  C   UNL     1     -35.687  20.502   1.904  0.00  0.00    +0.155 C 
ATOM      9  C   UNL     1     -37.635  20.947   0.732  0.00  0.00    +0.253 C 
ATOM     10  N   UNL     1     -34.531  19.736   2.132  0.00  0.00    -0.341 N 
ATOM     11  H   UNL     1     -34.337  18.956   1.563  0.00  0.00    +0.144 HD
ATOM     12  H   UNL     1     -33.914  19.980   2.858  0.00  0.00    +0.144 HD
ENDROOT
BRANCH   1  14
ATOM     13  O4* UNL     1     -39.509  23.752   3.153  0.00  0.00    -0.333 OA
ATOM     14  C1* UNL     1     -38.223  24.344   3.413  0.00  0.00    +0.229 C 
ATOM     15  C2* UNL     1     -38.072  25.484   2.418  0.00  0.00    +0.187 C 
ATOM     16  C3* UNL     1     -39.502  25.976   2.306  0.00  0.00    +0.171 C 
ATOM     17  C4* UNL     1     -40.298  24.676   2.369  0.00  0.00    +0.175 C 
BRANCH  15  18
ATOM     18  O2* UNL     1     -37.181  26.477   2.885  0.00  0.00    -0.378 OA
ATOM     19  H2* UNL     1     -36.746  26.903   2.130  0.00  0.00    +0.211 HD
ENDBRANCH  15  18
BRANCH  16  20
ATOM     20  O3* UNL     1     -39.824  26.770   3.447  0.00  0.00    -0.379 OA
ATOM     21  H3* UNL     1     -39.782  27.709   3.209  0.00  0.00    +0.211 HD
ENDBRANCH  16  20
BRANCH  17  22
ATOM     22  C5* UNL     1     -40.540  24.060   1.000  0.00  0.00    +0.169 C 
BRANCH  22  23
ATOM     23  O5* UNL     1     -40.806  22.677   1.164  0.00  0.00    -0.379 OA
ATOM     24  H5* UNL     1     -40.054  22.254   1.608  0.00  0.00    +0.211 HD
ENDBRANCH  22  23
ENDBRANCH  17  22
ENDBRANCH   1  14
BRANCH   5  25
ATOM     25  C   UNL     1     -35.790  24.149   5.207  0.00  0.00    +0.104 C 
BRANCH  25  26
ATOM     26  C   UNL     1     -34.708  25.196   4.850  0.00  0.00    +0.119 C 
ATOM     27  C   UNL     1     -34.338  26.079   6.035  0.00  0.00    +0.032 C 
BRANCH  26  28
ATOM     28  O   UNL     1     -33.529  24.527   4.404  0.00  0.00    -0.384 OA
ATOM     29  H   UNL     1     -33.777  23.741   3.892  0.00  0.00    +0.210 HD
ENDBRANCH  26  28
ENDBRANCH  25  26
ENDBRANCH   5  25
TORSDOF 8
ENDMDL
MODEL 4
REMARK VINA RESULT:      -5.7      3.188      4.060
REMARK  Name = 21121490
REMARK  8 active torsions:
REMARK  status: ('A' for Active; 'I' for Inactive)
REMARK    1  A    between atoms: N_1  and  C1*_11
REMARK    2  A    between atoms: C_5  and  C_25
REMARK    3  A    between atoms: C2*_12  and  O2*_15
REMARK    4  A    between atoms: C3*_13  and  O3*_17
REMARK    5  A    between atoms: C4*_14  and  C5*_19
REMARK    6  A    between atoms: C5*_19  and  O5*_20
REMARK    7  A    between atoms: C_25  and  C_26
REMARK    8  A    between atoms: C_26  and  O_28
REMARK                            x       y       z     vdW  Elec       q    Type
REMARK                         _______ _______ _______ _____ _____    ______ ____
ROOT
ATOM      1  N   UNL     1     -36.266  22.537   2.869  0.00  0.00    -0.224 N 
ATOM      2  N   UNL     1     -37.383  20.828   1.975  0.00  0.00    -0.385 NA
ATOM      3  N   UNL     1     -38.069  24.150   3.080  0.00  0.00    -0.227 NA
ATOM      4  N   UNL     1     -40.179  23.232   2.267  0.00  0.00    -0.227 NA
ATOM      5  C   UNL     1     -36.210  21.253   2.395  0.00  0.00    +0.169 C 
ATOM      6  C   UNL     1     -37.559  22.956   2.742  0.00  0.00    +0.169 C 
ATOM      7  C   UNL     1     -38.236  21.882   2.186  0.00  0.00    +0.195 C 
ATOM      8  C   UNL     1     -39.596  22.050   1.950  0.00  0.00    +0.155 C 
ATOM      9  C   UNL     1     -39.390  24.194   2.805  0.00  0.00    +0.253 C 
ATOM     10  N   UNL     1     -40.361  21.013   1.389  0.00  0.00    -0.341 N 
ATOM     11  H   UNL     1     -41.323  21.144   1.225  0.00  0.00    +0.144 HD
ATOM     12  H   UNL     1     -39.935  20.157   1.158  0.00  0.00    +0.144 HD
ENDROOT
BRANCH   1  14
ATOM     13  O4* UNL     1     -35.348  23.524   4.822  0.00  0.00    -0.333 OA
ATOM     14  C1* UNL     1     -35.155  23.317   3.410  0.00  0.00    +0.229 C 
ATOM     15  C2* UNL     1     -35.012  24.701   2.794  0.00  0.00    +0.187 C 
ATOM     16  C3* UNL     1     -34.295  25.450   3.901  0.00  0.00    +0.171 C 
ATOM     17  C4* UNL     1     -34.940  24.871   5.156  0.00  0.00    +0.175 C 
BRANCH  15  18
ATOM     18  O2* UNL     1     -34.282  24.667   1.586  0.00  0.00    -0.378 OA
ATOM     19  H2* UNL     1     -33.460  25.173   1.689  0.00  0.00    +0.211 HD
ENDBRANCH  15  18
BRANCH  16  20
ATOM     20  O3* UNL     1     -32.911  25.102   3.891  0.00  0.00    -0.379 OA
ATOM     21  H3* UNL     1     -32.711  24.551   4.664  0.00  0.00    +0.211 HD
ENDBRANCH  16  20
BRANCH  17  22
ATOM     22  C5* UNL     1     -36.169  25.647   5.605  0.00  0.00    +0.169 C 
BRANCH  22  23
ATOM     23  O5* UNL     1     -36.110  26.950   5.050  0.00  0.00    -0.379 OA
ATOM     24  H5* UNL     1     -35.944  27.595   5.756  0.00  0.00    +0.211 HD
ENDBRANCH  22  23
ENDBRANCH  17  22
ENDBRANCH   1  14
BRANCH   5  25
ATOM     25  C   UNL     1     -34.953  20.476   2.379  0.00  0.00    +0.104 C 
BRANCH  25  26
ATOM     26  C   UNL     1     -34.731  19.710   1.053  0.00  0.00    +0.119 C 
ATOM     27  C   UNL     1     -33.398  18.972   1.023  0.00  0.00    +0.032 C 
BRANCH  26  28
ATOM     28  O   UNL     1     -35.776  18.755   0.876  0.00  0.00    -0.384 OA
ATOM     29  H   UNL     1     -36.354  19.039   0.150  0.00  0.00    +0.210 HD
ENDBRANCH  26  28
ENDBRANCH  25  26
ENDBRANCH   5  25
TORSDOF 8
ENDMDL
MODEL 5
REMARK VINA RESULT:      -5.7      2.880      4.833
REMARK  Name = 21121490
REMARK  8 active torsions:
REMARK  status: ('A' for Active; 'I' for Inactive)
REMARK    1  A    between atoms: N_1  and  C1*_11
REMARK    2  A    between atoms: C_5  and  C_25
REMARK    3  A    between atoms: C2*_12  and  O2*_15
REMARK    4  A    between atoms: C3*_13  and  O3*_17
REMARK    5  A    between atoms: C4*_14  and  C5*_19
REMARK    6  A    between atoms: C5*_19  and  O5*_20
REMARK    7  A    between atoms: C_25  and  C_26
REMARK    8  A    between atoms: C_26  and  O_28
REMARK                            x       y       z     vdW  Elec       q    Type
REMARK                         _______ _______ _______ _____ _____    ______ ____
ROOT
ATOM      1  N   UNL     1     -36.556  23.047   3.096  0.00  0.00    -0.224 N 
ATOM      2  N   UNL     1     -37.477  24.650   4.340  0.00  0.00    -0.385 NA
ATOM      3  N   UNL     1     -38.254  22.828   1.374  0.00  0.00    -0.227 NA
ATOM      4  N   UNL     1     -40.104  24.374   1.752  0.00  0.00    -0.227 NA
ATOM      5  C   UNL     1     -36.444  23.845   4.203  0.00  0.00    +0.169 C 
ATOM      6  C   UNL     1     -37.737  23.363   2.490  0.00  0.00    +0.169 C 
ATOM      7  C   UNL     1     -38.293  24.360   3.276  0.00  0.00    +0.195 C 
ATOM      8  C   UNL     1     -39.522  24.869   2.872  0.00  0.00    +0.155 C 
ATOM      9  C   UNL     1     -39.443  23.399   1.082  0.00  0.00    +0.253 C 
ATOM     10  N   UNL     1     -40.159  25.882   3.609  0.00  0.00    -0.341 N 
ATOM     11  H   UNL     1     -41.029  26.234   3.313  0.00  0.00    +0.144 HD
ATOM     12  H   UNL     1     -39.735  26.238   4.423  0.00  0.00    +0.144 HD
ENDROOT
BRANCH   1  14
ATOM     13  O4* UNL     1     -34.704  22.623   1.675  0.00  0.00    -0.333 OA
ATOM     14  C1* UNL     1     -35.596  22.042   2.643  0.00  0.00    +0.229 C 
ATOM     15  C2* UNL     1     -36.233  20.838   1.964  0.00  0.00    +0.187 C 
ATOM     16  C3* UNL     1     -35.095  20.349   1.090  0.00  0.00    +0.171 C 
ATOM     17  C4* UNL     1     -34.454  21.655   0.629  0.00  0.00    +0.175 C 
BRANCH  15  18
ATOM     18  O2* UNL     1     -36.665  19.872   2.900  0.00  0.00    -0.378 OA
ATOM     19  H2* UNL     1     -37.553  20.102   3.215  0.00  0.00    +0.211 HD
ENDBRANCH  15  18
BRANCH  16  20
ATOM     20  O3* UNL     1     -34.154  19.632   1.888  0.00  0.00    -0.379 OA
ATOM     21  H3* UNL     1     -34.628  19.022   2.475  0.00  0.00    +0.211 HD
ENDBRANCH  16  20
BRANCH  17  22
ATOM     22  C5* UNL     1     -35.050  22.184  -0.667  0.00  0.00    +0.169 C 
BRANCH  22  23
ATOM     23  O5* UNL     1     -35.667  23.434  -0.407  0.00  0.00    -0.379 OA
ATOM     24  H5* UNL     1     -35.014  24.144  -0.509  0.00  0.00    +0.211 HD
ENDBRANCH  22  23
ENDBRANCH  17  22
ENDBRANCH   1  14
BRANCH   5  25
ATOM     25  C   UNL     1     -35.278  23.773   5.107  0.00  0.00    +0.104 C 
BRANCH  25  26
ATOM     26  C   UNL     1     -34.455  25.083   5.140  0.00  0.00    +0.119 C 
ATOM     27  C   UNL     1     -33.921  25.470   3.767  0.00  0.00    +0.032 C 
BRANCH  26  28
ATOM     28  O   UNL     1     -35.275  26.148   5.619  0.00  0.00    -0.384 OA
ATOM     29  H   UNL     1     -34.904  26.494   6.445  0.00  0.00    +0.210 HD
ENDBRANCH  26  28
ENDBRANCH  25  26
ENDBRANCH   5  25
TORSDOF 8
ENDMDL
MODEL 6
REMARK VINA RESULT:      -5.5      2.568      5.308
REMARK  Name = 21121490
REMARK  8 active torsions:
REMARK  status: ('A' for Active; 'I' for Inactive)
REMARK    1  A    between atoms: N_1  and  C1*_11
REMARK    2  A    between atoms: C_5  and  C_25
REMARK    3  A    between atoms: C2*_12  and  O2*_15
REMARK    4  A    between atoms: C3*_13  and  O3*_17
REMARK    5  A    between atoms: C4*_14  and  C5*_19
REMARK    6  A    between atoms: C5*_19  and  O5*_20
REMARK    7  A    between atoms: C_25  and  C_26
REMARK    8  A    between atoms: C_26  and  O_28
REMARK                            x       y       z     vdW  Elec       q    Type
REMARK                         _______ _______ _______ _____ _____    ______ ____
ROOT
ATOM      1  N   UNL     1     -36.379  25.189   2.771  0.00  0.00    -0.224 N 
ATOM      2  N   UNL     1     -36.802  27.287   2.147  0.00  0.00    -0.385 NA
ATOM      3  N   UNL     1     -34.335  25.535   4.037  0.00  0.00    -0.227 NA
ATOM      4  N   UNL     1     -33.695  27.889   4.062  0.00  0.00    -0.227 NA
ATOM      5  C   UNL     1     -37.211  26.037   2.089  0.00  0.00    +0.169 C 
ATOM      6  C   UNL     1     -35.374  25.949   3.296  0.00  0.00    +0.169 C 
ATOM      7  C   UNL     1     -35.654  27.247   2.898  0.00  0.00    +0.195 C 
ATOM      8  C   UNL     1     -34.768  28.237   3.309  0.00  0.00    +0.155 C 
ATOM      9  C   UNL     1     -33.548  26.579   4.374  0.00  0.00    +0.253 C 
ATOM     10  N   UNL     1     -34.975  29.580   2.952  0.00  0.00    -0.341 N 
ATOM     11  H   UNL     1     -34.340  30.272   3.248  0.00  0.00    +0.144 HD
ATOM     12  H   UNL     1     -35.754  29.830   2.405  0.00  0.00    +0.144 HD
ENDROOT
BRANCH   1  14
ATOM     13  O4* UNL     1     -36.746  23.410   4.297  0.00  0.00    -0.333 OA
ATOM     14  C1* UNL     1     -36.531  23.742   2.913  0.00  0.00    +0.229 C 
ATOM     15  C2* UNL     1     -35.313  22.945   2.470  0.00  0.00    +0.187 C 
ATOM     16  C3* UNL     1     -35.476  21.673   3.279  0.00  0.00    +0.171 C 
ATOM     17  C4* UNL     1     -36.018  22.199   4.605  0.00  0.00    +0.175 C 
BRANCH  15  18
ATOM     18  O2* UNL     1     -35.311  22.717   1.076  0.00  0.00    -0.378 OA
ATOM     19  H2* UNL     1     -34.422  22.880   0.722  0.00  0.00    +0.211 HD
ENDBRANCH  15  18
BRANCH  16  20
ATOM     20  O3* UNL     1     -36.467  20.846   2.671  0.00  0.00    -0.379 OA
ATOM     21  H3* UNL     1     -36.206  20.646   1.759  0.00  0.00    +0.211 HD
ENDBRANCH  16  20
BRANCH  17  22
ATOM     22  C5* UNL     1     -34.921  22.538   5.603  0.00  0.00    +0.169 C 
BRANCH  22  23
ATOM     23  O5* UNL     1     -34.525  21.349   6.264  0.00  0.00    -0.379 OA
ATOM     24  H5* UNL     1     -35.161  21.142   6.966  0.00  0.00    +0.211 HD
ENDBRANCH  22  23
ENDBRANCH  17  22
ENDBRANCH   1  14
BRANCH   5  25
ATOM     25  C   UNL     1     -38.418  25.554   1.386  0.00  0.00    +0.104 C 
BRANCH  25  26
ATOM     26  C   UNL     1     -39.693  25.615   2.260  0.00  0.00    +0.119 C 
ATOM     27  C   UNL     1     -40.102  24.247   2.791  0.00  0.00    +0.032 C 
BRANCH  26  28
ATOM     28  O   UNL     1     -39.466  26.479   3.372  0.00  0.00    -0.384 OA
ATOM     29  H   UNL     1     -38.701  26.162   3.877  0.00  0.00    +0.210 HD
ENDBRANCH  26  28
ENDBRANCH  25  26
ENDBRANCH   5  25
TORSDOF 8
ENDMDL
MODEL 7
REMARK VINA RESULT:      -5.3      4.726      6.690
REMARK  Name = 21121490
REMARK  8 active torsions:
REMARK  status: ('A' for Active; 'I' for Inactive)
REMARK    1  A    between atoms: N_1  and  C1*_11
REMARK    2  A    between atoms: C_5  and  C_25
REMARK    3  A    between atoms: C2*_12  and  O2*_15
REMARK    4  A    between atoms: C3*_13  and  O3*_17
REMARK    5  A    between atoms: C4*_14  and  C5*_19
REMARK    6  A    between atoms: C5*_19  and  O5*_20
REMARK    7  A    between atoms: C_25  and  C_26
REMARK    8  A    between atoms: C_26  and  O_28
REMARK                            x       y       z     vdW  Elec       q    Type
REMARK                         _______ _______ _______ _____ _____    ______ ____
ROOT
ATOM      1  N   UNL     1     -36.632  21.235   1.492  0.00  0.00    -0.224 N 
ATOM      2  N   UNL     1     -34.950  20.266   2.588  0.00  0.00    -0.385 NA
ATOM      3  N   UNL     1     -36.467  20.075  -0.635  0.00  0.00    -0.227 NA
ATOM      4  N   UNL     1     -34.641  18.456  -0.622  0.00  0.00    -0.227 NA
ATOM      5  C   UNL     1     -35.916  21.158   2.657  0.00  0.00    +0.169 C 
ATOM      6  C   UNL     1     -36.085  20.335   0.624  0.00  0.00    +0.169 C 
ATOM      7  C   UNL     1     -35.043  19.744   1.322  0.00  0.00    +0.195 C 
ATOM      8  C   UNL     1     -34.309  18.770   0.654  0.00  0.00    +0.155 C 
ATOM      9  C   UNL     1     -35.684  19.118  -1.179  0.00  0.00    +0.253 C 
ATOM     10  N   UNL     1     -33.236  18.119   1.286  0.00  0.00    -0.341 N 
ATOM     11  H   UNL     1     -32.723  17.432   0.802  0.00  0.00    +0.144 HD
ATOM     12  H   UNL     1     -32.997  18.350   2.212  0.00  0.00    +0.144 HD
ENDROOT
BRANCH   1  14
ATOM     13  O4* UNL     1     -37.319  23.482   1.158  0.00  0.00    -0.333 OA
ATOM     14  C1* UNL     1     -37.767  22.115   1.220  0.00  0.00    +0.229 C 
ATOM     15  C2* UNL     1     -38.852  22.072   2.285  0.00  0.00    +0.187 C 
ATOM     16  C3* UNL     1     -39.501  23.431   2.108  0.00  0.00    +0.171 C 
ATOM     17  C4* UNL     1     -38.304  24.325   1.800  0.00  0.00    +0.175 C 
BRANCH  15  18
ATOM     18  O2* UNL     1     -39.750  21.000   2.081  0.00  0.00    -0.378 OA
ATOM     19  H2* UNL     1     -39.514  20.532   1.264  0.00  0.00    +0.211 HD
ENDBRANCH  15  18
BRANCH  16  20
ATOM     20  O3* UNL     1     -40.361  23.404   0.970  0.00  0.00    -0.379 OA
ATOM     21  H3* UNL     1     -40.851  22.567   0.955  0.00  0.00    +0.211 HD
ENDBRANCH  16  20
BRANCH  17  22
ATOM     22  C5* UNL     1     -37.678  24.931   3.047  0.00  0.00    +0.169 C 
BRANCH  22  23
ATOM     23  O5* UNL     1     -38.588  24.793   4.125  0.00  0.00    -0.379 OA
ATOM     24  H5* UNL     1     -38.782  25.667   4.498  0.00  0.00    +0.211 HD
ENDBRANCH  22  23
ENDBRANCH  17  22
ENDBRANCH   1  14
BRANCH   5  25
ATOM     25  C   UNL     1     -36.233  22.001   3.829  0.00  0.00    +0.104 C 
BRANCH  25  26
ATOM     26  C   UNL     1     -35.188  21.879   4.963  0.00  0.00    +0.119 C 
ATOM     27  C   UNL     1     -35.319  22.988   5.999  0.00  0.00    +0.032 C 
BRANCH  26  28
ATOM     28  O   UNL     1     -35.349  20.625   5.625  0.00  0.00    -0.384 OA
ATOM     29  H   UNL     1     -35.052  19.910   5.041  0.00  0.00    +0.210 HD
ENDBRANCH  26  28
ENDBRANCH  25  26
ENDBRANCH   5  25
TORSDOF 8
ENDMDL
MODEL 8
REMARK VINA RESULT:      -5.3      2.443      4.379
REMARK  Name = 21121490
REMARK  8 active torsions:
REMARK  status: ('A' for Active; 'I' for Inactive)
REMARK    1  A    between atoms: N_1  and  C1*_11
REMARK    2  A    between atoms: C_5  and  C_25
REMARK    3  A    between atoms: C2*_12  and  O2*_15
REMARK    4  A    between atoms: C3*_13  and  O3*_17
REMARK    5  A    between atoms: C4*_14  and  C5*_19
REMARK    6  A    between atoms: C5*_19  and  O5*_20
REMARK    7  A    between atoms: C_25  and  C_26
REMARK    8  A    between atoms: C_26  and  O_28
REMARK                            x       y       z     vdW  Elec       q    Type
REMARK                         _______ _______ _______ _____ _____    ______ ____
ROOT
ATOM      1  N   UNL     1     -37.272  24.259   2.557  0.00  0.00    -0.224 N 
ATOM      2  N   UNL     1     -38.379  24.656   0.664  0.00  0.00    -0.385 NA
ATOM      3  N   UNL     1     -35.277  25.585   2.159  0.00  0.00    -0.227 NA
ATOM      4  N   UNL     1     -35.370  26.698  -0.010  0.00  0.00    -0.227 NA
ATOM      5  C   UNL     1     -38.401  24.023   1.818  0.00  0.00    +0.169 C 
ATOM      6  C   UNL     1     -36.479  25.094   1.824  0.00  0.00    +0.169 C 
ATOM      7  C   UNL     1     -37.184  25.329   0.654  0.00  0.00    +0.195 C 
ATOM      8  C   UNL     1     -36.587  26.166  -0.283  0.00  0.00    +0.155 C 
ATOM      9  C   UNL     1     -34.800  26.379   1.177  0.00  0.00    +0.253 C 
ATOM     10  N   UNL     1     -37.230  26.460  -1.497  0.00  0.00    -0.341 N 
ATOM     11  H   UNL     1     -36.797  27.053  -2.153  0.00  0.00    +0.144 HD
ATOM     12  H   UNL     1     -38.113  26.072  -1.693  0.00  0.00    +0.144 HD
ENDROOT
BRANCH   1  14
ATOM     13  O4* UNL     1     -36.757  24.799   4.809  0.00  0.00    -0.333 OA
ATOM     14  C1* UNL     1     -36.965  23.719   3.880  0.00  0.00    +0.229 C 
ATOM     15  C2* UNL     1     -35.703  22.871   3.927  0.00  0.00    +0.187 C 
ATOM     16  C3* UNL     1     -35.306  23.002   5.384  0.00  0.00    +0.171 C 
ATOM     17  C4* UNL     1     -35.662  24.454   5.688  0.00  0.00    +0.175 C 
BRANCH  15  18
ATOM     18  O2* UNL     1     -35.951  21.535   3.539  0.00  0.00    -0.378 OA
ATOM     19  H2* UNL     1     -36.172  21.007   4.322  0.00  0.00    +0.211 HD
ENDBRANCH  15  18
BRANCH  16  20
ATOM     20  O3* UNL     1     -36.128  22.150   6.180  0.00  0.00    -0.379 OA
ATOM     21  H3* UNL     1     -36.733  21.656   5.606  0.00  0.00    +0.211 HD
ENDBRANCH  16  20
BRANCH  17  22
ATOM     22  C5* UNL     1     -34.513  25.415   5.424  0.00  0.00    +0.169 C 
BRANCH  22  23
ATOM     23  O5* UNL     1     -35.047  26.655   4.992  0.00  0.00    -0.379 OA
ATOM     24  H5* UNL     1     -35.766  26.494   4.360  0.00  0.00    +0.211 HD
ENDBRANCH  22  23
ENDBRANCH  17  22
ENDBRANCH   1  14
BRANCH   5  25
ATOM     25  C   UNL     1     -39.490  23.153   2.306  0.00  0.00    +0.104 C 
BRANCH  25  26
ATOM     26  C   UNL     1     -39.666  21.869   1.461  0.00  0.00    +0.119 C 
ATOM     27  C   UNL     1     -38.334  21.230   1.088  0.00  0.00    +0.032 C 
BRANCH  26  28
ATOM     28  O   UNL     1     -40.431  20.916   2.197  0.00  0.00    -0.384 OA
ATOM     29  H   UNL     1     -39.879  20.144   2.397  0.00  0.00    +0.210 HD
ENDBRANCH  26  28
ENDBRANCH  25  26
ENDBRANCH   5  25
TORSDOF 8
ENDMDL
MODEL 9
REMARK VINA RESULT:      -5.2      2.428      4.571
REMARK  Name = 21121490
REMARK  8 active torsions:
REMARK  status: ('A' for Active; 'I' for Inactive)
REMARK    1  A    between atoms: N_1  and  C1*_11
REMARK    2  A    between atoms: C_5  and  C_25
REMARK    3  A    between atoms: C2*_12  and  O2*_15
REMARK    4  A    between atoms: C3*_13  and  O3*_17
REMARK    5  A    between atoms: C4*_14  and  C5*_19
REMARK    6  A    between atoms: C5*_19  and  O5*_20
REMARK    7  A    between atoms: C_25  and  C_26
REMARK    8  A    between atoms: C_26  and  O_28
REMARK                            x       y       z     vdW  Elec       q    Type
REMARK                         _______ _______ _______ _____ _____    ______ ____
ROOT
ATOM      1  N   UNL     1     -35.055  25.814   3.895  0.00  0.00    -0.224 N 
ATOM      2  N   UNL     1     -34.327  25.774   6.001  0.00  0.00    -0.385 NA
ATOM      3  N   UNL     1     -33.733  27.659   3.031  0.00  0.00    -0.227 NA
ATOM      4  N   UNL     1     -32.279  28.590   4.756  0.00  0.00    -0.227 NA
ATOM      5  C   UNL     1     -35.139  25.219   5.126  0.00  0.00    +0.169 C 
ATOM      6  C   UNL     1     -34.132  26.814   3.994  0.00  0.00    +0.169 C 
ATOM      7  C   UNL     1     -33.691  26.773   5.308  0.00  0.00    +0.195 C 
ATOM      8  C   UNL     1     -32.728  27.705   5.679  0.00  0.00    +0.155 C 
ATOM      9  C   UNL     1     -32.801  28.513   3.508  0.00  0.00    +0.253 C 
ATOM     10  N   UNL     1     -32.225  27.735   6.990  0.00  0.00    -0.341 N 
ATOM     11  H   UNL     1     -31.543  28.401   7.241  0.00  0.00    +0.144 HD
ATOM     12  H   UNL     1     -32.554  27.093   7.659  0.00  0.00    +0.144 HD
ENDROOT
BRANCH   1  14
ATOM     13  O4* UNL     1     -34.911  24.978   1.679  0.00  0.00    -0.333 OA
ATOM     14  C1* UNL     1     -35.811  25.453   2.697  0.00  0.00    +0.229 C 
ATOM     15  C2* UNL     1     -36.578  26.611   2.076  0.00  0.00    +0.187 C 
ATOM     16  C3* UNL     1     -36.696  26.156   0.635  0.00  0.00    +0.171 C 
ATOM     17  C4* UNL     1     -35.348  25.482   0.397  0.00  0.00    +0.175 C 
BRANCH  15  18
ATOM     18  O2* UNL     1     -37.832  26.806   2.698  0.00  0.00    -0.378 OA
ATOM     19  H2* UNL     1     -37.698  27.150   3.595  0.00  0.00    +0.211 HD
ENDBRANCH  15  18
BRANCH  16  20
ATOM     20  O3* UNL     1     -37.726  25.175   0.527  0.00  0.00    -0.379 OA
ATOM     21  H3* UNL     1     -38.410  25.490  -0.084  0.00  0.00    +0.211 HD
ENDBRANCH  16  20
BRANCH  17  22
ATOM     22  C5* UNL     1     -34.289  26.440  -0.129  0.00  0.00    +0.169 C 
BRANCH  22  23
ATOM     23  O5* UNL     1     -33.069  26.183   0.544  0.00  0.00    -0.379 OA
ATOM     24  H5* UNL     1     -33.256  25.868   1.443  0.00  0.00    +0.211 HD
ENDBRANCH  22  23
ENDBRANCH  17  22
ENDBRANCH   1  14
BRANCH   5  25
ATOM     25  C   UNL     1     -36.050  24.086   5.389  0.00  0.00    +0.104 C 
BRANCH  25  26
ATOM     26  C   UNL     1     -35.467  22.724   4.944  0.00  0.00    +0.119 C 
ATOM     27  C   UNL     1     -35.042  21.858   6.123  0.00  0.00    +0.032 C 
BRANCH  26  28
ATOM     28  O   UNL     1     -36.449  22.009   4.194  0.00  0.00    -0.384 OA
ATOM     29  H   UNL     1     -36.669  21.184   4.653  0.00  0.00    +0.210 HD
ENDBRANCH  26  28
ENDBRANCH  25  26
ENDBRANCH   5  25
TORSDOF 8
ENDMDL
