MODEL 1
REMARK VINA RESULT:      -5.8      0.000      0.000
REMARK  Name = 56840986
REMARK  8 active torsions:
REMARK  status: ('A' for Active; 'I' for Inactive)
REMARK    1  A    between atoms: C_3  and  C_19
REMARK    2  A    between atoms: C_4  and  O_15
REMARK    3  A    between atoms: C_5  and  O_17
REMARK    4  A    between atoms: C_6  and  N_11
REMARK    5  A    between atoms: C_8  and  C_22
REMARK    6  A    between atoms: C_19  and  O_20
REMARK    7  A    between atoms: C_22  and  C_24
REMARK    8  A    between atoms: C_24  and  O_25
REMARK                            x       y       z     vdW  Elec       q    Type
REMARK                         _______ _______ _______ _____ _____    ______ ____
ROOT
ATOM      1  N   UNL     1     -36.089  24.051   4.032  0.00  0.00    -0.273 N 
ATOM      2  N   UNL     1     -35.765  22.204   5.215  0.00  0.00    -0.230 NA
ATOM      3  C   UNL     1     -36.462  24.907   2.911  0.00  0.00    +0.136 C 
ATOM      4  C   UNL     1     -36.512  24.096   1.597  0.00  0.00    +0.160 C 
ATOM      5  C   UNL     1     -37.186  22.721   1.749  0.00  0.00    +0.164 C 
ATOM      6  C   UNL     1     -36.513  21.871   2.838  0.00  0.00    +0.156 C 
ATOM      7  C   UNL     1     -36.131  22.676   4.038  0.00  0.00    +0.133 C 
ATOM      8  C   UNL     1     -35.634  24.466   5.250  0.00  0.00    +0.060 C 
ATOM      9  C   UNL     1     -35.453  23.308   5.967  0.00  0.00    +0.111 C 
ENDROOT
BRANCH   6  11
ATOM     10  O   UNL     1     -36.346  19.479   1.201  0.00  0.00    -0.275 OA
ATOM     11  N   UNL     1     -35.318  21.231   2.336  0.00  0.00    -0.298 N 
ATOM     12  C   UNL     1     -35.341  20.087   1.558  0.00  0.00    +0.223 C 
ATOM     13  C   UNL     1     -33.960  19.648   1.150  0.00  0.00    +0.095 C 
ATOM     14  H   UNL     1     -34.446  21.630   2.557  0.00  0.00    +0.150 HD
ENDBRANCH   6  11
BRANCH   4  15
ATOM     15  O   UNL     1     -37.149  24.845   0.569  0.00  0.00    -0.380 OA
ATOM     16  H   UNL     1     -37.858  25.386   0.954  0.00  0.00    +0.211 HD
ENDBRANCH   4  15
BRANCH   5  17
ATOM     17  O   UNL     1     -38.577  22.865   2.038  0.00  0.00    -0.380 OA
ATOM     18  H   UNL     1     -38.840  22.203   2.698  0.00  0.00    +0.211 HD
ENDBRANCH   5  17
BRANCH   3  19
ATOM     19  C   UNL     1     -37.736  25.701   3.219  0.00  0.00    +0.160 C 
BRANCH  19  20
ATOM     20  O   UNL     1     -38.580  24.890   4.013  0.00  0.00    -0.380 OA
ATOM     21  H   UNL     1     -39.106  24.312   3.439  0.00  0.00    +0.211 HD
ENDBRANCH  19  20
ENDBRANCH   3  19
BRANCH   8  22
ATOM     22  C   UNL     1     -35.373  25.859   5.648  0.00  0.00    +0.152 C 
BRANCH  22  24
ATOM     23  O   UNL     1     -33.353  26.914   6.505  0.00  0.00    -0.250 OA
ATOM     24  C   UNL     1     -33.899  26.243   5.640  0.00  0.00    +0.320 C 
BRANCH  24  25
ATOM     25  O   UNL     1     -33.240  25.756   4.555  0.00  0.00    -0.480 OA
ATOM     26  H   UNL     1     -33.645  25.780   3.711  0.00  0.00    +0.295 HD
ENDBRANCH  24  25
ENDBRANCH  22  24
ENDBRANCH   8  22
TORSDOF 8
ENDMDL
MODEL 2
REMARK VINA RESULT:      -5.8      2.432      4.884
REMARK  Name = 56840986
REMARK  8 active torsions:
REMARK  status: ('A' for Active; 'I' for Inactive)
REMARK    1  A    between atoms: C_3  and  C_19
REMARK    2  A    between atoms: C_4  and  O_15
REMARK    3  A    between atoms: C_5  and  O_17
REMARK    4  A    between atoms: C_6  and  N_11
REMARK    5  A    between atoms: C_8  and  C_22
REMARK    6  A    between atoms: C_19  and  O_20
REMARK    7  A    between atoms: C_22  and  C_24
REMARK    8  A    between atoms: C_24  and  O_25
REMARK                            x       y       z     vdW  Elec       q    Type
REMARK                         _______ _______ _______ _____ _____    ______ ____
ROOT
ATOM      1  N   UNL     1     -36.541  23.596   3.584  0.00  0.00    -0.273 N 
ATOM      2  N   UNL     1     -36.609  25.802   3.789  0.00  0.00    -0.230 NA
ATOM      3  C   UNL     1     -36.874  22.258   3.110  0.00  0.00    +0.136 C 
ATOM      4  C   UNL     1     -38.274  22.242   2.459  0.00  0.00    +0.160 C 
ATOM      5  C   UNL     1     -38.542  23.450   1.546  0.00  0.00    +0.164 C 
ATOM      6  C   UNL     1     -38.349  24.782   2.288  0.00  0.00    +0.156 C 
ATOM      7  C   UNL     1     -37.170  24.759   3.208  0.00  0.00    +0.133 C 
ATOM      8  C   UNL     1     -35.561  23.916   4.480  0.00  0.00    +0.060 C 
ATOM      9  C   UNL     1     -35.614  25.285   4.580  0.00  0.00    +0.111 C 
ENDROOT
BRANCH   6  11
ATOM     10  O   UNL     1     -40.234  26.940   1.821  0.00  0.00    -0.275 OA
ATOM     11  N   UNL     1     -39.516  25.115   3.073  0.00  0.00    -0.298 N 
ATOM     12  C   UNL     1     -40.359  26.169   2.768  0.00  0.00    +0.223 C 
ATOM     13  C   UNL     1     -41.509  26.276   3.734  0.00  0.00    +0.095 C 
ATOM     14  H   UNL     1     -39.721  24.564   3.863  0.00  0.00    +0.150 HD
ENDBRANCH   6  11
BRANCH   4  15
ATOM     15  O   UNL     1     -38.481  21.029   1.743  0.00  0.00    -0.380 OA
ATOM     16  H   UNL     1     -37.918  20.333   2.117  0.00  0.00    +0.211 HD
ENDBRANCH   4  15
BRANCH   5  17
ATOM     17  O   UNL     1     -37.701  23.414   0.392  0.00  0.00    -0.380 OA
ATOM     18  H   UNL     1     -38.178  22.997  -0.343  0.00  0.00    +0.211 HD
ENDBRANCH   5  17
BRANCH   3  19
ATOM     19  C   UNL     1     -35.756  21.687   2.230  0.00  0.00    +0.160 C 
BRANCH  19  20
ATOM     20  O   UNL     1     -35.520  20.351   2.628  0.00  0.00    -0.380 OA
ATOM     21  H   UNL     1     -34.677  20.300   3.107  0.00  0.00    +0.211 HD
ENDBRANCH  19  20
ENDBRANCH   3  19
BRANCH   8  22
ATOM     22  C   UNL     1     -34.690  22.964   5.187  0.00  0.00    +0.152 C 
BRANCH  22  24
ATOM     23  O   UNL     1     -36.264  22.126   6.846  0.00  0.00    -0.250 OA
ATOM     24  C   UNL     1     -35.442  21.894   5.969  0.00  0.00    +0.320 C 
BRANCH  24  25
ATOM     25  O   UNL     1     -35.101  20.634   5.589  0.00  0.00    -0.480 OA
ATOM     26  H   UNL     1     -34.946  19.975   6.236  0.00  0.00    +0.295 HD
ENDBRANCH  24  25
ENDBRANCH  22  24
ENDBRANCH   8  22
TORSDOF 8
ENDMDL
MODEL 3
REMARK VINA RESULT:      -5.6      3.374      5.436
REMARK  Name = 56840986
REMARK  8 active torsions:
REMARK  status: ('A' for Active; 'I' for Inactive)
REMARK    1  A    between atoms: C_3  and  C_19
REMARK    2  A    between atoms: C_4  and  O_15
REMARK    3  A    between atoms: C_5  and  O_17
REMARK    4  A    between atoms: C_6  and  N_11
REMARK    5  A    between atoms: C_8  and  C_22
REMARK    6  A    between atoms: C_19  and  O_20
REMARK    7  A    between atoms: C_22  and  C_24
REMARK    8  A    between atoms: C_24  and  O_25
REMARK                            x       y       z     vdW  Elec       q    Type
REMARK                         _______ _______ _______ _____ _____    ______ ____
ROOT
ATOM      1  N   UNL     1     -38.282  23.852   2.061  0.00  0.00    -0.273 N 
ATOM      2  N   UNL     1     -40.032  22.492   2.046  0.00  0.00    -0.230 NA
ATOM      3  C   UNL     1     -37.517  25.095   2.057  0.00  0.00    +0.136 C 
ATOM      4  C   UNL     1     -38.381  26.266   1.540  0.00  0.00    +0.160 C 
ATOM      5  C   UNL     1     -39.814  26.267   2.099  0.00  0.00    +0.164 C 
ATOM      6  C   UNL     1     -40.541  24.944   1.815  0.00  0.00    +0.156 C 
ATOM      7  C   UNL     1     -39.651  23.754   1.983  0.00  0.00    +0.133 C 
ATOM      8  C   UNL     1     -37.770  22.589   2.135  0.00  0.00    +0.060 C 
ATOM      9  C   UNL     1     -38.871  21.767   2.137  0.00  0.00    +0.111 C 
ENDROOT
BRANCH   6  11
ATOM     10  O   UNL     1     -43.276  24.417   0.995  0.00  0.00    -0.275 OA
ATOM     11  N   UNL     1     -41.065  24.917   0.468  0.00  0.00    -0.298 N 
ATOM     12  C   UNL     1     -42.392  24.655   0.176  0.00  0.00    +0.223 C 
ATOM     13  C   UNL     1     -42.673  24.713  -1.301  0.00  0.00    +0.095 C 
ATOM     14  H   UNL     1     -40.448  25.093  -0.278  0.00  0.00    +0.150 HD
ENDBRANCH   6  11
BRANCH   4  15
ATOM     15  O   UNL     1     -37.748  27.512   1.806  0.00  0.00    -0.380 OA
ATOM     16  H   UNL     1     -38.257  27.998   2.475  0.00  0.00    +0.211 HD
ENDBRANCH   4  15
BRANCH   5  17
ATOM     17  O   UNL     1     -39.812  26.525   3.504  0.00  0.00    -0.380 OA
ATOM     18  H   UNL     1     -38.918  26.776   3.786  0.00  0.00    +0.211 HD
ENDBRANCH   5  17
BRANCH   3  19
ATOM     19  C   UNL     1     -36.856  25.343   3.418  0.00  0.00    +0.160 C 
BRANCH  19  20
ATOM     20  O   UNL     1     -37.724  24.860   4.425  0.00  0.00    -0.380 OA
ATOM     21  H   UNL     1     -37.411  23.996   4.734  0.00  0.00    +0.211 HD
ENDBRANCH  19  20
ENDBRANCH   3  19
BRANCH   8  22
ATOM     22  C   UNL     1     -36.343  22.233   2.164  0.00  0.00    +0.152 C 
BRANCH  22  24
ATOM     23  O   UNL     1     -35.222  20.534   3.502  0.00  0.00    -0.250 OA
ATOM     24  C   UNL     1     -35.895  21.555   3.453  0.00  0.00    +0.320 C 
BRANCH  24  25
ATOM     25  O   UNL     1     -36.327  22.211   4.563  0.00  0.00    -0.480 OA
ATOM     26  H   UNL     1     -36.007  21.963   5.407  0.00  0.00    +0.295 HD
ENDBRANCH  24  25
ENDBRANCH  22  24
ENDBRANCH   8  22
TORSDOF 8
ENDMDL
MODEL 4
REMARK VINA RESULT:      -5.5      1.978      5.574
REMARK  Name = 56840986
REMARK  8 active torsions:
REMARK  status: ('A' for Active; 'I' for Inactive)
REMARK    1  A    between atoms: C_3  and  C_19
REMARK    2  A    between atoms: C_4  and  O_15
REMARK    3  A    between atoms: C_5  and  O_17
REMARK    4  A    between atoms: C_6  and  N_11
REMARK    5  A    between atoms: C_8  and  C_22
REMARK    6  A    between atoms: C_19  and  O_20
REMARK    7  A    between atoms: C_22  and  C_24
REMARK    8  A    between atoms: C_24  and  O_25
REMARK                            x       y       z     vdW  Elec       q    Type
REMARK                         _______ _______ _______ _____ _____    ______ ____
ROOT
ATOM      1  N   UNL     1     -36.057  23.427   3.452  0.00  0.00    -0.273 N 
ATOM      2  N   UNL     1     -38.055  23.704   2.533  0.00  0.00    -0.230 NA
ATOM      3  C   UNL     1     -34.825  23.747   4.165  0.00  0.00    +0.136 C 
ATOM      4  C   UNL     1     -34.585  25.273   4.184  0.00  0.00    +0.160 C 
ATOM      5  C   UNL     1     -35.855  26.091   4.473  0.00  0.00    +0.164 C 
ATOM      6  C   UNL     1     -36.981  25.772   3.477  0.00  0.00    +0.156 C 
ATOM      7  C   UNL     1     -37.063  24.315   3.153  0.00  0.00    +0.133 C 
ATOM      8  C   UNL     1     -36.411  22.204   2.960  0.00  0.00    +0.060 C 
ATOM      9  C   UNL     1     -37.655  22.398   2.409  0.00  0.00    +0.111 C 
ENDROOT
BRANCH   6  11
ATOM     10  O   UNL     1     -39.039  26.930   1.789  0.00  0.00    -0.275 OA
ATOM     11  N   UNL     1     -36.798  26.491   2.236  0.00  0.00    -0.298 N 
ATOM     12  C   UNL     1     -37.849  27.009   1.499  0.00  0.00    +0.223 C 
ATOM     13  C   UNL     1     -37.377  27.730   0.265  0.00  0.00    +0.095 C 
ATOM     14  H   UNL     1     -35.882  26.619   1.900  0.00  0.00    +0.150 HD
ENDBRANCH   6  11
BRANCH   4  15
ATOM     15  O   UNL     1     -33.561  25.608   5.113  0.00  0.00    -0.380 OA
ATOM     16  H   UNL     1     -33.232  26.502   4.924  0.00  0.00    +0.211 HD
ENDBRANCH   4  15
BRANCH   5  17
ATOM     17  O   UNL     1     -36.313  25.867   5.808  0.00  0.00    -0.380 OA
ATOM     18  H   UNL     1     -35.559  25.902   6.418  0.00  0.00    +0.211 HD
ENDBRANCH   5  17
BRANCH   3  19
ATOM     19  C   UNL     1     -34.794  23.080   5.545  0.00  0.00    +0.160 C 
BRANCH  19  20
ATOM     20  O   UNL     1     -36.126  22.947   6.001  0.00  0.00    -0.380 OA
ATOM     21  H   UNL     1     -36.142  22.382   6.789  0.00  0.00    +0.211 HD
ENDBRANCH  19  20
ENDBRANCH   3  19
BRANCH   8  22
ATOM     22  C   UNL     1     -35.590  20.983   3.000  0.00  0.00    +0.152 C 
BRANCH  22  24
ATOM     23  O   UNL     1     -34.867  20.248   0.795  0.00  0.00    -0.250 OA
ATOM     24  C   UNL     1     -35.652  20.148   1.728  0.00  0.00    +0.320 C 
BRANCH  24  25
ATOM     25  O   UNL     1     -36.688  19.267   1.733  0.00  0.00    -0.480 OA
ATOM     26  H   UNL     1     -37.569  19.581   1.772  0.00  0.00    +0.295 HD
ENDBRANCH  24  25
ENDBRANCH  22  24
ENDBRANCH   8  22
TORSDOF 8
ENDMDL
MODEL 5
REMARK VINA RESULT:      -5.3      2.800      5.229
REMARK  Name = 56840986
REMARK  8 active torsions:
REMARK  status: ('A' for Active; 'I' for Inactive)
REMARK    1  A    between atoms: C_3  and  C_19
REMARK    2  A    between atoms: C_4  and  O_15
REMARK    3  A    between atoms: C_5  and  O_17
REMARK    4  A    between atoms: C_6  and  N_11
REMARK    5  A    between atoms: C_8  and  C_22
REMARK    6  A    between atoms: C_19  and  O_20
REMARK    7  A    between atoms: C_22  and  C_24
REMARK    8  A    between atoms: C_24  and  O_25
REMARK                            x       y       z     vdW  Elec       q    Type
REMARK                         _______ _______ _______ _____ _____    ______ ____
ROOT
ATOM      1  N   UNL     1     -35.779  24.517   3.099  0.00  0.00    -0.273 N 
ATOM      2  N   UNL     1     -37.943  24.626   2.628  0.00  0.00    -0.230 NA
ATOM      3  C   UNL     1     -34.396  24.947   3.275  0.00  0.00    +0.136 C 
ATOM      4  C   UNL     1     -34.127  26.253   2.496  0.00  0.00    +0.160 C 
ATOM      5  C   UNL     1     -35.257  27.288   2.623  0.00  0.00    +0.164 C 
ATOM      6  C   UNL     1     -36.613  26.714   2.184  0.00  0.00    +0.156 C 
ATOM      7  C   UNL     1     -36.809  25.301   2.636  0.00  0.00    +0.133 C 
ATOM      8  C   UNL     1     -36.278  23.272   3.355  0.00  0.00    +0.060 C 
ATOM      9  C   UNL     1     -37.618  23.368   3.069  0.00  0.00    +0.111 C 
ENDROOT
BRANCH   6  11
ATOM     10  O   UNL     1     -37.952  28.724   0.574  0.00  0.00    -0.275 OA
ATOM     11  N   UNL     1     -36.749  26.739   0.745  0.00  0.00    -0.298 N 
ATOM     12  C   UNL     1     -37.409  27.747   0.065  0.00  0.00    +0.223 C 
ATOM     13  C   UNL     1     -37.380  27.541  -1.426  0.00  0.00    +0.095 C 
ATOM     14  H   UNL     1     -36.351  26.005   0.224  0.00  0.00    +0.150 HD
ENDBRANCH   6  11
BRANCH   4  15
ATOM     15  O   UNL     1     -32.887  26.827   2.893  0.00  0.00    -0.380 OA
ATOM     16  H   UNL     1     -32.288  26.863   2.130  0.00  0.00    +0.211 HD
ENDBRANCH   4  15
BRANCH   5  17
ATOM     17  O   UNL     1     -35.351  27.779   3.961  0.00  0.00    -0.380 OA
ATOM     18  H   UNL     1     -36.284  27.924   4.188  0.00  0.00    +0.211 HD
ENDBRANCH   5  17
BRANCH   3  19
ATOM     19  C   UNL     1     -34.017  25.000   4.759  0.00  0.00    +0.160 C 
BRANCH  19  20
ATOM     20  O   UNL     1     -35.141  25.453   5.486  0.00  0.00    -0.380 OA
ATOM     21  H   UNL     1     -35.004  25.286   6.431  0.00  0.00    +0.211 HD
ENDBRANCH  19  20
ENDBRANCH   3  19
BRANCH   8  22
ATOM     22  C   UNL     1     -35.502  22.104   3.801  0.00  0.00    +0.152 C 
BRANCH  22  24
ATOM     23  O   UNL     1     -36.038  22.618   6.120  0.00  0.00    -0.250 OA
ATOM     24  C   UNL     1     -35.593  21.830   5.297  0.00  0.00    +0.320 C 
BRANCH  24  25
ATOM     25  O   UNL     1     -35.120  20.599   5.630  0.00  0.00    -0.480 OA
ATOM     26  H   UNL     1     -35.193  20.293   6.512  0.00  0.00    +0.295 HD
ENDBRANCH  24  25
ENDBRANCH  22  24
ENDBRANCH   8  22
TORSDOF 8
ENDMDL
MODEL 6
REMARK VINA RESULT:      -5.3      2.076      5.471
REMARK  Name = 56840986
REMARK  8 active torsions:
REMARK  status: ('A' for Active; 'I' for Inactive)
REMARK    1  A    between atoms: C_3  and  C_19
REMARK    2  A    between atoms: C_4  and  O_15
REMARK    3  A    between atoms: C_5  and  O_17
REMARK    4  A    between atoms: C_6  and  N_11
REMARK    5  A    between atoms: C_8  and  C_22
REMARK    6  A    between atoms: C_19  and  O_20
REMARK    7  A    between atoms: C_22  and  C_24
REMARK    8  A    between atoms: C_24  and  O_25
REMARK                            x       y       z     vdW  Elec       q    Type
REMARK                         _______ _______ _______ _____ _____    ______ ____
ROOT
ATOM      1  N   UNL     1     -36.695  23.631   2.025  0.00  0.00    -0.273 N 
ATOM      2  N   UNL     1     -34.637  24.346   1.615  0.00  0.00    -0.230 NA
ATOM      3  C   UNL     1     -38.065  23.626   2.526  0.00  0.00    +0.136 C 
ATOM      4  C   UNL     1     -38.238  24.665   3.654  0.00  0.00    +0.160 C 
ATOM      5  C   UNL     1     -37.549  26.009   3.363  0.00  0.00    +0.164 C 
ATOM      6  C   UNL     1     -36.051  25.834   3.068  0.00  0.00    +0.156 C 
ATOM      7  C   UNL     1     -35.771  24.628   2.228  0.00  0.00    +0.133 C 
ATOM      8  C   UNL     1     -36.102  22.651   1.282  0.00  0.00    +0.060 C 
ATOM      9  C   UNL     1     -34.836  23.121   1.031  0.00  0.00    +0.111 C 
ENDROOT
BRANCH   6  11
ATOM     10  O   UNL     1     -34.118  27.712   4.145  0.00  0.00    -0.275 OA
ATOM     11  N   UNL     1     -35.291  25.708   4.290  0.00  0.00    -0.298 N 
ATOM     12  C   UNL     1     -34.388  26.663   4.723  0.00  0.00    +0.223 C 
ATOM     13  C   UNL     1     -33.753  26.293   6.037  0.00  0.00    +0.095 C 
ATOM     14  H   UNL     1     -35.422  24.904   4.843  0.00  0.00    +0.150 HD
ENDBRANCH   6  11
BRANCH   4  15
ATOM     15  O   UNL     1     -39.616  24.870   3.941  0.00  0.00    -0.380 OA
ATOM     16  H   UNL     1     -40.139  24.733   3.134  0.00  0.00    +0.211 HD
ENDBRANCH   4  15
BRANCH   5  17
ATOM     17  O   UNL     1     -38.182  26.680   2.271  0.00  0.00    -0.380 OA
ATOM     18  H   UNL     1     -37.825  27.579   2.194  0.00  0.00    +0.211 HD
ENDBRANCH   5  17
BRANCH   3  19
ATOM     19  C   UNL     1     -39.075  23.756   1.379  0.00  0.00    +0.160 C 
BRANCH  19  20
ATOM     20  O   UNL     1     -40.243  23.045   1.738  0.00  0.00    -0.380 OA
ATOM     21  H   UNL     1     -40.012  22.332   2.353  0.00  0.00    +0.211 HD
ENDBRANCH  19  20
ENDBRANCH   3  19
BRANCH   8  22
ATOM     22  C   UNL     1     -36.713  21.369   0.894  0.00  0.00    +0.152 C 
BRANCH  22  24
ATOM     23  O   UNL     1     -35.783  20.329   2.889  0.00  0.00    -0.250 OA
ATOM     24  C   UNL     1     -36.382  20.213   1.829  0.00  0.00    +0.320 C 
BRANCH  24  25
ATOM     25  O   UNL     1     -36.828  19.018   1.358  0.00  0.00    -0.480 OA
ATOM     26  H   UNL     1     -36.216  18.352   1.115  0.00  0.00    +0.295 HD
ENDBRANCH  24  25
ENDBRANCH  22  24
ENDBRANCH   8  22
TORSDOF 8
ENDMDL
MODEL 7
REMARK VINA RESULT:      -5.3      2.296      5.678
REMARK  Name = 56840986
REMARK  8 active torsions:
REMARK  status: ('A' for Active; 'I' for Inactive)
REMARK    1  A    between atoms: C_3  and  C_19
REMARK    2  A    between atoms: C_4  and  O_15
REMARK    3  A    between atoms: C_5  and  O_17
REMARK    4  A    between atoms: C_6  and  N_11
REMARK    5  A    between atoms: C_8  and  C_22
REMARK    6  A    between atoms: C_19  and  O_20
REMARK    7  A    between atoms: C_22  and  C_24
REMARK    8  A    between atoms: C_24  and  O_25
REMARK                            x       y       z     vdW  Elec       q    Type
REMARK                         _______ _______ _______ _____ _____    ______ ____
ROOT
ATOM      1  N   UNL     1     -38.084  23.404   1.543  0.00  0.00    -0.273 N 
ATOM      2  N   UNL     1     -35.958  22.776   1.562  0.00  0.00    -0.230 NA
ATOM      3  C   UNL     1     -39.308  24.094   1.935  0.00  0.00    +0.136 C 
ATOM      4  C   UNL     1     -39.205  24.607   3.388  0.00  0.00    +0.160 C 
ATOM      5  C   UNL     1     -37.844  25.244   3.719  0.00  0.00    +0.164 C 
ATOM      6  C   UNL     1     -36.679  24.282   3.443  0.00  0.00    +0.156 C 
ATOM      7  C   UNL     1     -36.873  23.493   2.187  0.00  0.00    +0.133 C 
ATOM      8  C   UNL     1     -37.938  22.556   0.483  0.00  0.00    +0.060 C 
ATOM      9  C   UNL     1     -36.614  22.192   0.509  0.00  0.00    +0.111 C 
ENDROOT
BRANCH   6  11
ATOM     10  O   UNL     1     -34.295  23.854   5.044  0.00  0.00    -0.275 OA
ATOM     11  N   UNL     1     -36.507  23.345   4.531  0.00  0.00    -0.298 N 
ATOM     12  C   UNL     1     -35.326  23.214   5.238  0.00  0.00    +0.223 C 
ATOM     13  C   UNL     1     -35.428  22.186   6.333  0.00  0.00    +0.095 C 
ATOM     14  H   UNL     1     -37.269  22.773   4.781  0.00  0.00    +0.150 HD
ENDBRANCH   6  11
BRANCH   4  15
ATOM     15  O   UNL     1     -40.258  25.520   3.674  0.00  0.00    -0.380 OA
ATOM     16  H   UNL     1     -41.053  25.262   3.181  0.00  0.00    +0.211 HD
ENDBRANCH   4  15
BRANCH   5  17
ATOM     17  O   UNL     1     -37.656  26.455   2.985  0.00  0.00    -0.380 OA
ATOM     18  H   UNL     1     -36.727  26.525   2.711  0.00  0.00    +0.211 HD
ENDBRANCH   5  17
BRANCH   3  19
ATOM     19  C   UNL     1     -39.695  25.164   0.907  0.00  0.00    +0.160 C 
BRANCH  19  20
ATOM     20  O   UNL     1     -41.107  25.215   0.834  0.00  0.00    -0.380 OA
ATOM     21  H   UNL     1     -41.404  26.130   0.952  0.00  0.00    +0.211 HD
ENDBRANCH  19  20
ENDBRANCH   3  19
BRANCH   8  22
ATOM     22  C   UNL     1     -39.005  22.125  -0.435  0.00  0.00    +0.152 C 
BRANCH  22  24
ATOM     23  O   UNL     1     -40.967  21.006   0.475  0.00  0.00    -0.250 OA
ATOM     24  C   UNL     1     -39.816  20.937   0.066  0.00  0.00    +0.320 C 
BRANCH  24  25
ATOM     25  O   UNL     1     -39.118  19.771   0.014  0.00  0.00    -0.480 OA
ATOM     26  H   UNL     1     -39.500  18.982   0.341  0.00  0.00    +0.295 HD
ENDBRANCH  24  25
ENDBRANCH  22  24
ENDBRANCH   8  22
TORSDOF 8
ENDMDL
MODEL 8
REMARK VINA RESULT:      -5.3      2.013      3.039
REMARK  Name = 56840986
REMARK  8 active torsions:
REMARK  status: ('A' for Active; 'I' for Inactive)
REMARK    1  A    between atoms: C_3  and  C_19
REMARK    2  A    between atoms: C_4  and  O_15
REMARK    3  A    between atoms: C_5  and  O_17
REMARK    4  A    between atoms: C_6  and  N_11
REMARK    5  A    between atoms: C_8  and  C_22
REMARK    6  A    between atoms: C_19  and  O_20
REMARK    7  A    between atoms: C_22  and  C_24
REMARK    8  A    between atoms: C_24  and  O_25
REMARK                            x       y       z     vdW  Elec       q    Type
REMARK                         _______ _______ _______ _____ _____    ______ ____
ROOT
ATOM      1  N   UNL     1     -36.484  22.061   2.480  0.00  0.00    -0.273 N 
ATOM      2  N   UNL     1     -35.176  21.010   3.929  0.00  0.00    -0.230 NA
ATOM      3  C   UNL     1     -37.223  22.328   1.250  0.00  0.00    +0.136 C 
ATOM      4  C   UNL     1     -36.665  21.483   0.084  0.00  0.00    +0.160 C 
ATOM      5  C   UNL     1     -36.355  20.028   0.472  0.00  0.00    +0.164 C 
ATOM      6  C   UNL     1     -35.383  19.946   1.659  0.00  0.00    +0.156 C 
ATOM      7  C   UNL     1     -35.669  20.977   2.705  0.00  0.00    +0.133 C 
ATOM      8  C   UNL     1     -36.474  22.838   3.602  0.00  0.00    +0.060 C 
ATOM      9  C   UNL     1     -35.669  22.162   4.487  0.00  0.00    +0.111 C 
ENDROOT
BRANCH   6  11
ATOM     10  O   UNL     1     -33.438  17.876   1.063  0.00  0.00    -0.275 OA
ATOM     11  N   UNL     1     -34.015  20.124   1.226  0.00  0.00    -0.298 N 
ATOM     12  C   UNL     1     -33.160  19.068   0.965  0.00  0.00    +0.223 C 
ATOM     13  C   UNL     1     -31.804  19.533   0.506  0.00  0.00    +0.095 C 
ATOM     14  H   UNL     1     -33.676  21.041   1.111  0.00  0.00    +0.150 HD
ENDBRANCH   6  11
BRANCH   4  15
ATOM     15  O   UNL     1     -37.552  21.518  -1.028  0.00  0.00    -0.380 OA
ATOM     16  H   UNL     1     -38.395  21.917  -0.759  0.00  0.00    +0.211 HD
ENDBRANCH   4  15
BRANCH   5  17
ATOM     17  O   UNL     1     -37.554  19.316   0.780  0.00  0.00    -0.380 OA
ATOM     18  H   UNL     1     -37.656  19.255   1.744  0.00  0.00    +0.211 HD
ENDBRANCH   5  17
BRANCH   3  19
ATOM     19  C   UNL     1     -38.734  22.193   1.471  0.00  0.00    +0.160 C 
BRANCH  19  20
ATOM     20  O   UNL     1     -38.959  21.078   2.311  0.00  0.00    -0.380 OA
ATOM     21  H   UNL     1     -39.667  21.285   2.940  0.00  0.00    +0.211 HD
ENDBRANCH  19  20
ENDBRANCH   3  19
BRANCH   8  22
ATOM     22  C   UNL     1     -37.158  24.131   3.766  0.00  0.00    +0.152 C 
BRANCH  22  24
ATOM     23  O   UNL     1     -35.141  25.476   3.537  0.00  0.00    -0.250 OA
ATOM     24  C   UNL     1     -36.225  25.295   4.076  0.00  0.00    +0.320 C 
BRANCH  24  25
ATOM     25  O   UNL     1     -36.727  26.126   5.027  0.00  0.00    -0.480 OA
ATOM     26  H   UNL     1     -36.149  26.661   5.533  0.00  0.00    +0.295 HD
ENDBRANCH  24  25
ENDBRANCH  22  24
ENDBRANCH   8  22
TORSDOF 8
ENDMDL
MODEL 9
REMARK VINA RESULT:      -5.2      3.100      4.595
REMARK  Name = 56840986
REMARK  8 active torsions:
REMARK  status: ('A' for Active; 'I' for Inactive)
REMARK    1  A    between atoms: C_3  and  C_19
REMARK    2  A    between atoms: C_4  and  O_15
REMARK    3  A    between atoms: C_5  and  O_17
REMARK    4  A    between atoms: C_6  and  N_11
REMARK    5  A    between atoms: C_8  and  C_22
REMARK    6  A    between atoms: C_19  and  O_20
REMARK    7  A    between atoms: C_22  and  C_24
REMARK    8  A    between atoms: C_24  and  O_25
REMARK                            x       y       z     vdW  Elec       q    Type
REMARK                         _______ _______ _______ _____ _____    ______ ____
ROOT
ATOM      1  N   UNL     1     -33.329  27.103   4.490  0.00  0.00    -0.273 N 
ATOM      2  N   UNL     1     -33.476  26.771   6.677  0.00  0.00    -0.230 NA
ATOM      3  C   UNL     1     -33.651  27.014   3.070  0.00  0.00    +0.136 C 
ATOM      4  C   UNL     1     -34.548  25.788   2.789  0.00  0.00    +0.160 C 
ATOM      5  C   UNL     1     -35.666  25.595   3.827  0.00  0.00    +0.164 C 
ATOM      6  C   UNL     1     -35.111  25.493   5.256  0.00  0.00    +0.156 C 
ATOM      7  C   UNL     1     -33.990  26.451   5.504  0.00  0.00    +0.133 C 
ATOM      8  C   UNL     1     -32.321  27.838   5.046  0.00  0.00    +0.060 C 
ATOM      9  C   UNL     1     -32.441  27.626   6.398  0.00  0.00    +0.111 C 
ENDROOT
BRANCH   6  11
ATOM     10  O   UNL     1     -36.548  22.989   4.950  0.00  0.00    -0.275 OA
ATOM     11  N   UNL     1     -34.623  24.161   5.532  0.00  0.00    -0.298 N 
ATOM     12  C   UNL     1     -35.388  23.022   5.353  0.00  0.00    +0.223 C 
ATOM     13  C   UNL     1     -34.628  21.767   5.690  0.00  0.00    +0.095 C 
ATOM     14  H   UNL     1     -33.701  24.059   5.862  0.00  0.00    +0.150 HD
ENDBRANCH   6  11
BRANCH   4  15
ATOM     15  O   UNL     1     -35.098  25.859   1.479  0.00  0.00    -0.380 OA
ATOM     16  H   UNL     1     -34.917  25.031   1.007  0.00  0.00    +0.211 HD
ENDBRANCH   4  15
BRANCH   5  17
ATOM     17  O   UNL     1     -36.619  26.657   3.753  0.00  0.00    -0.380 OA
ATOM     18  H   UNL     1     -37.307  26.522   4.425  0.00  0.00    +0.211 HD
ENDBRANCH   5  17
BRANCH   3  19
ATOM     19  C   UNL     1     -34.204  28.343   2.542  0.00  0.00    +0.160 C 
BRANCH  19  20
ATOM     20  O   UNL     1     -35.027  28.907   3.544  0.00  0.00    -0.380 OA
ATOM     21  H   UNL     1     -35.279  29.807   3.286  0.00  0.00    +0.211 HD
ENDBRANCH  19  20
ENDBRANCH   3  19
BRANCH   8  22
ATOM     22  C   UNL     1     -31.325  28.635   4.313  0.00  0.00    +0.152 C 
BRANCH  22  24
ATOM     23  O   UNL     1     -30.726  30.982   4.062  0.00  0.00    -0.250 OA
ATOM     24  C   UNL     1     -31.551  30.140   4.389  0.00  0.00    +0.320 C 
BRANCH  24  25
ATOM     25  O   UNL     1     -32.784  30.457   4.867  0.00  0.00    -0.480 OA
ATOM     26  H   UNL     1     -33.179  31.274   4.638  0.00  0.00    +0.295 HD
ENDBRANCH  24  25
ENDBRANCH  22  24
ENDBRANCH   8  22
TORSDOF 8
ENDMDL
