MODEL 1
REMARK VINA RESULT:      -6.6      0.000      0.000
REMARK  Name = 5321873
REMARK  5 active torsions:
REMARK  status: ('A' for Active; 'I' for Inactive)
REMARK    1  A    between atoms: C_3  and  C_13
REMARK    2  A    between atoms: C_8  and  O_23
REMARK    3  A    between atoms: C_11  and  O_25
REMARK    4  A    between atoms: C_16  and  O_19
REMARK    5  A    between atoms: C_17  and  O_21
REMARK                            x       y       z     vdW  Elec       q    Type
REMARK                         _______ _______ _______ _____ _____    ______ ____
ROOT
ATOM      1  O   UNL     1     -33.445  26.003   5.039  0.00  0.00    -0.474 OA
ATOM      2  O   UNL     1     -33.341  28.370   1.687  0.00  0.00    -0.291 OA
ATOM      3  C   UNL     1     -34.415  25.843   3.993  0.00  0.00    +0.196 C 
ATOM      4  C   UNL     1     -33.832  26.221   2.634  0.00  0.00    +0.117 C 
ATOM      5  C   UNL     1     -32.879  28.132   3.991  0.00  0.00    +0.102 C 
ATOM      6  C   UNL     1     -32.924  27.270   5.091  0.00  0.00    +0.147 C 
ATOM      7  C   UNL     1     -33.370  27.655   2.681  0.00  0.00    +0.183 C 
ATOM      8  C   UNL     1     -32.337  29.413   4.120  0.00  0.00    +0.138 C 
ATOM      9  C   UNL     1     -31.827  29.824   5.351  0.00  0.00    +0.046 C 
ATOM     10  C   UNL     1     -32.394  27.680   6.315  0.00  0.00    +0.073 C 
ATOM     11  C   UNL     1     -31.850  28.958   6.445  0.00  0.00    +0.136 C 
ATOM     12  C   UNL     1     -31.244  31.194   5.502  0.00  0.00    +0.037 C 
ENDROOT
BRANCH   3  13
ATOM     13  C   UNL     1     -34.862  24.396   4.025  0.00  0.00    +0.024 C 
ATOM     14  C   UNL     1     -35.235  23.809   5.234  0.00  0.00    +0.036 C 
ATOM     15  C   UNL     1     -34.902  23.652   2.847  0.00  0.00    +0.036 C 
ATOM     16  C   UNL     1     -35.315  22.320   2.876  0.00  0.00    +0.136 C 
ATOM     17  C   UNL     1     -35.648  22.477   5.264  0.00  0.00    +0.136 C 
ATOM     18  C   UNL     1     -35.688  21.732   4.085  0.00  0.00    +0.073 C 
BRANCH  16  19
ATOM     19  O   UNL     1     -35.353  21.594   1.726  0.00  0.00    -0.505 OA
ATOM     20  H   UNL     1     -36.079  21.027   1.553  0.00  0.00    +0.292 HD
ENDBRANCH  16  19
BRANCH  17  21
ATOM     21  O   UNL     1     -36.012  21.904   6.444  0.00  0.00    -0.505 OA
ATOM     22  H   UNL     1     -36.748  22.236   6.918  0.00  0.00    +0.292 HD
ENDBRANCH  17  21
ENDBRANCH   3  13
BRANCH   8  23
ATOM     23  O   UNL     1     -32.283  30.281   3.069  0.00  0.00    -0.506 OA
ATOM     24  H   UNL     1     -32.950  30.931   2.962  0.00  0.00    +0.292 HD
ENDBRANCH   8  23
BRANCH  11  25
ATOM     25  O   UNL     1     -31.346  29.345   7.651  0.00  0.00    -0.506 OA
ATOM     26  H   UNL     1     -31.775  30.016   8.145  0.00  0.00    +0.292 HD
ENDBRANCH  11  25
TORSDOF 5
ENDMDL
MODEL 2
REMARK VINA RESULT:      -6.6      0.026      1.770
REMARK  Name = 5321873
REMARK  5 active torsions:
REMARK  status: ('A' for Active; 'I' for Inactive)
REMARK    1  A    between atoms: C_3  and  C_13
REMARK    2  A    between atoms: C_8  and  O_23
REMARK    3  A    between atoms: C_11  and  O_25
REMARK    4  A    between atoms: C_16  and  O_19
REMARK    5  A    between atoms: C_17  and  O_21
REMARK                            x       y       z     vdW  Elec       q    Type
REMARK                         _______ _______ _______ _____ _____    ______ ____
ROOT
ATOM      1  O   UNL     1     -33.437  26.016   5.029  0.00  0.00    -0.474 OA
ATOM      2  O   UNL     1     -33.299  28.370   1.669  0.00  0.00    -0.291 OA
ATOM      3  C   UNL     1     -34.399  25.855   3.976  0.00  0.00    +0.196 C 
ATOM      4  C   UNL     1     -33.805  26.226   2.620  0.00  0.00    +0.117 C 
ATOM      5  C   UNL     1     -32.856  28.139   3.978  0.00  0.00    +0.102 C 
ATOM      6  C   UNL     1     -32.912  27.282   5.081  0.00  0.00    +0.147 C 
ATOM      7  C   UNL     1     -33.338  27.659   2.666  0.00  0.00    +0.183 C 
ATOM      8  C   UNL     1     -32.311  29.419   4.106  0.00  0.00    +0.138 C 
ATOM      9  C   UNL     1     -31.809  29.833   5.339  0.00  0.00    +0.046 C 
ATOM     10  C   UNL     1     -32.390  27.695   6.307  0.00  0.00    +0.073 C 
ATOM     11  C   UNL     1     -31.844  28.971   6.436  0.00  0.00    +0.136 C 
ATOM     12  C   UNL     1     -31.223  31.201   5.490  0.00  0.00    +0.037 C 
ENDROOT
BRANCH   3  13
ATOM     13  C   UNL     1     -34.851  24.409   4.010  0.00  0.00    +0.024 C 
ATOM     14  C   UNL     1     -34.899  23.667   2.831  0.00  0.00    +0.036 C 
ATOM     15  C   UNL     1     -35.219  23.823   5.220  0.00  0.00    +0.036 C 
ATOM     16  C   UNL     1     -35.635  22.491   5.252  0.00  0.00    +0.136 C 
ATOM     17  C   UNL     1     -35.314  22.335   2.862  0.00  0.00    +0.136 C 
ATOM     18  C   UNL     1     -35.682  21.748   4.073  0.00  0.00    +0.073 C 
BRANCH  16  19
ATOM     19  O   UNL     1     -35.994  21.919   6.433  0.00  0.00    -0.505 OA
ATOM     20  H   UNL     1     -36.892  21.704   6.596  0.00  0.00    +0.292 HD
ENDBRANCH  16  19
BRANCH  17  21
ATOM     21  O   UNL     1     -35.361  21.610   1.712  0.00  0.00    -0.505 OA
ATOM     22  H   UNL     1     -34.702  21.728   1.056  0.00  0.00    +0.292 HD
ENDBRANCH  17  21
ENDBRANCH   3  13
BRANCH   8  23
ATOM     23  O   UNL     1     -32.246  30.283   3.052  0.00  0.00    -0.506 OA
ATOM     24  H   UNL     1     -32.875  30.973   2.972  0.00  0.00    +0.292 HD
ENDBRANCH   8  23
BRANCH  11  25
ATOM     25  O   UNL     1     -31.348  29.361   7.645  0.00  0.00    -0.506 OA
ATOM     26  H   UNL     1     -30.788  28.787   8.129  0.00  0.00    +0.292 HD
ENDBRANCH  11  25
TORSDOF 5
ENDMDL
MODEL 3
REMARK VINA RESULT:      -6.3      5.687      7.752
REMARK  Name = 5321873
REMARK  5 active torsions:
REMARK  status: ('A' for Active; 'I' for Inactive)
REMARK    1  A    between atoms: C_3  and  C_13
REMARK    2  A    between atoms: C_8  and  O_23
REMARK    3  A    between atoms: C_11  and  O_25
REMARK    4  A    between atoms: C_16  and  O_19
REMARK    5  A    between atoms: C_17  and  O_21
REMARK                            x       y       z     vdW  Elec       q    Type
REMARK                         _______ _______ _______ _____ _____    ______ ____
ROOT
ATOM      1  O   UNL     1     -37.155  20.939   1.387  0.00  0.00    -0.474 OA
ATOM      2  O   UNL     1     -35.757  23.267   4.464  0.00  0.00    -0.291 OA
ATOM      3  C   UNL     1     -35.747  21.073   1.628  0.00  0.00    +0.196 C 
ATOM      4  C   UNL     1     -35.458  21.311   3.108  0.00  0.00    +0.117 C 
ATOM      5  C   UNL     1     -37.445  22.858   2.864  0.00  0.00    +0.102 C 
ATOM      6  C   UNL     1     -37.877  22.015   1.836  0.00  0.00    +0.147 C 
ATOM      7  C   UNL     1     -36.170  22.563   3.551  0.00  0.00    +0.183 C 
ATOM      8  C   UNL     1     -38.232  23.940   3.267  0.00  0.00    +0.138 C 
ATOM      9  C   UNL     1     -39.460  24.167   2.646  0.00  0.00    +0.046 C 
ATOM     10  C   UNL     1     -39.115  22.236   1.231  0.00  0.00    +0.073 C 
ATOM     11  C   UNL     1     -39.903  23.314   1.634  0.00  0.00    +0.136 C 
ATOM     12  C   UNL     1     -40.311  25.322   3.066  0.00  0.00    +0.037 C 
ENDROOT
BRANCH   3  13
ATOM     13  C   UNL     1     -35.091  19.802   1.129  0.00  0.00    +0.024 C 
ATOM     14  C   UNL     1     -33.861  19.402   1.649  0.00  0.00    +0.036 C 
ATOM     15  C   UNL     1     -35.718  19.032   0.150  0.00  0.00    +0.036 C 
ATOM     16  C   UNL     1     -35.115  17.861  -0.310  0.00  0.00    +0.136 C 
ATOM     17  C   UNL     1     -33.257  18.231   1.190  0.00  0.00    +0.136 C 
ATOM     18  C   UNL     1     -33.885  17.461   0.210  0.00  0.00    +0.073 C 
BRANCH  16  19
ATOM     19  O   UNL     1     -35.727  17.110  -1.265  0.00  0.00    -0.505 OA
ATOM     20  H   UNL     1     -36.407  16.511  -1.027  0.00  0.00    +0.292 HD
ENDBRANCH  16  19
BRANCH  17  21
ATOM     21  O   UNL     1     -32.056  17.840   1.697  0.00  0.00    -0.505 OA
ATOM     22  H   UNL     1     -31.933  16.956   1.980  0.00  0.00    +0.292 HD
ENDBRANCH  17  21
ENDBRANCH   3  13
BRANCH   8  23
ATOM     23  O   UNL     1     -37.839  24.785   4.262  0.00  0.00    -0.506 OA
ATOM     24  H   UNL     1     -38.480  25.215   4.794  0.00  0.00    +0.292 HD
ENDBRANCH   8  23
BRANCH  11  25
ATOM     25  O   UNL     1     -41.104  23.521   1.025  0.00  0.00    -0.506 OA
ATOM     26  H   UNL     1     -41.815  22.929   1.177  0.00  0.00    +0.292 HD
ENDBRANCH  11  25
TORSDOF 5
ENDMDL
MODEL 4
REMARK VINA RESULT:      -6.3      1.069      6.973
REMARK  Name = 5321873
REMARK  5 active torsions:
REMARK  status: ('A' for Active; 'I' for Inactive)
REMARK    1  A    between atoms: C_3  and  C_13
REMARK    2  A    between atoms: C_8  and  O_23
REMARK    3  A    between atoms: C_11  and  O_25
REMARK    4  A    between atoms: C_16  and  O_19
REMARK    5  A    between atoms: C_17  and  O_21
REMARK                            x       y       z     vdW  Elec       q    Type
REMARK                         _______ _______ _______ _____ _____    ______ ____
ROOT
ATOM      1  O   UNL     1     -33.920  26.275   4.958  0.00  0.00    -0.474 OA
ATOM      2  O   UNL     1     -33.871  25.492   0.930  0.00  0.00    -0.291 OA
ATOM      3  C   UNL     1     -32.923  26.858   4.106  0.00  0.00    +0.196 C 
ATOM      4  C   UNL     1     -33.456  27.067   2.691  0.00  0.00    +0.117 C 
ATOM      5  C   UNL     1     -34.407  24.760   3.110  0.00  0.00    +0.102 C 
ATOM      6  C   UNL     1     -34.414  25.094   4.468  0.00  0.00    +0.147 C 
ATOM      7  C   UNL     1     -33.888  25.736   2.130  0.00  0.00    +0.183 C 
ATOM      8  C   UNL     1     -34.924  23.535   2.683  0.00  0.00    +0.138 C 
ATOM      9  C   UNL     1     -35.462  22.650   3.618  0.00  0.00    +0.046 C 
ATOM     10  C   UNL     1     -34.972  24.214   5.396  0.00  0.00    +0.073 C 
ATOM     11  C   UNL     1     -35.490  22.991   4.971  0.00  0.00    +0.136 C 
ATOM     12  C   UNL     1     -36.018  21.335   3.173  0.00  0.00    +0.037 C 
ENDROOT
BRANCH   3  13
ATOM     13  C   UNL     1     -32.508  28.168   4.745  0.00  0.00    +0.024 C 
ATOM     14  C   UNL     1     -32.477  29.335   3.983  0.00  0.00    +0.036 C 
ATOM     15  C   UNL     1     -32.160  28.206   6.094  0.00  0.00    +0.036 C 
ATOM     16  C   UNL     1     -31.779  29.413   6.683  0.00  0.00    +0.136 C 
ATOM     17  C   UNL     1     -32.097  30.542   4.571  0.00  0.00    +0.136 C 
ATOM     18  C   UNL     1     -31.748  30.580   5.921  0.00  0.00    +0.073 C 
BRANCH  16  19
ATOM     19  O   UNL     1     -31.439  29.449   8.000  0.00  0.00    -0.505 OA
ATOM     20  H   UNL     1     -30.715  29.973   8.283  0.00  0.00    +0.292 HD
ENDBRANCH  16  19
BRANCH  17  21
ATOM     21  O   UNL     1     -32.066  31.682   3.827  0.00  0.00    -0.505 OA
ATOM     22  H   UNL     1     -32.383  31.675   2.946  0.00  0.00    +0.292 HD
ENDBRANCH  17  21
ENDBRANCH   3  13
BRANCH   8  23
ATOM     23  O   UNL     1     -34.927  23.174   1.368  0.00  0.00    -0.506 OA
ATOM     24  H   UNL     1     -35.612  22.628   1.032  0.00  0.00    +0.292 HD
ENDBRANCH   8  23
BRANCH  11  25
ATOM     25  O   UNL     1     -36.021  22.140   5.893  0.00  0.00    -0.506 OA
ATOM     26  H   UNL     1     -35.667  21.278   5.995  0.00  0.00    +0.292 HD
ENDBRANCH  11  25
TORSDOF 5
ENDMDL
MODEL 5
REMARK VINA RESULT:      -6.3      1.069      6.788
REMARK  Name = 5321873
REMARK  5 active torsions:
REMARK  status: ('A' for Active; 'I' for Inactive)
REMARK    1  A    between atoms: C_3  and  C_13
REMARK    2  A    between atoms: C_8  and  O_23
REMARK    3  A    between atoms: C_11  and  O_25
REMARK    4  A    between atoms: C_16  and  O_19
REMARK    5  A    between atoms: C_17  and  O_21
REMARK                            x       y       z     vdW  Elec       q    Type
REMARK                         _______ _______ _______ _____ _____    ______ ____
ROOT
ATOM      1  O   UNL     1     -33.921  26.274   4.958  0.00  0.00    -0.474 OA
ATOM      2  O   UNL     1     -33.871  25.488   0.930  0.00  0.00    -0.291 OA
ATOM      3  C   UNL     1     -32.924  26.857   4.106  0.00  0.00    +0.196 C 
ATOM      4  C   UNL     1     -33.458  27.064   2.691  0.00  0.00    +0.117 C 
ATOM      5  C   UNL     1     -34.407  24.757   3.112  0.00  0.00    +0.102 C 
ATOM      6  C   UNL     1     -34.414  25.093   4.469  0.00  0.00    +0.147 C 
ATOM      7  C   UNL     1     -33.888  25.733   2.130  0.00  0.00    +0.183 C 
ATOM      8  C   UNL     1     -34.923  23.531   2.685  0.00  0.00    +0.138 C 
ATOM      9  C   UNL     1     -35.460  22.647   3.620  0.00  0.00    +0.046 C 
ATOM     10  C   UNL     1     -34.972  24.213   5.398  0.00  0.00    +0.073 C 
ATOM     11  C   UNL     1     -35.489  22.989   4.973  0.00  0.00    +0.136 C 
ATOM     12  C   UNL     1     -36.016  21.331   3.177  0.00  0.00    +0.037 C 
ENDROOT
BRANCH   3  13
ATOM     13  C   UNL     1     -32.511  28.168   4.744  0.00  0.00    +0.024 C 
ATOM     14  C   UNL     1     -32.160  28.206   6.092  0.00  0.00    +0.036 C 
ATOM     15  C   UNL     1     -32.482  29.336   3.982  0.00  0.00    +0.036 C 
ATOM     16  C   UNL     1     -32.100  30.542   4.569  0.00  0.00    +0.136 C 
ATOM     17  C   UNL     1     -31.779  29.412   6.680  0.00  0.00    +0.136 C 
ATOM     18  C   UNL     1     -31.749  30.581   5.918  0.00  0.00    +0.073 C 
BRANCH  16  19
ATOM     19  O   UNL     1     -32.072  31.681   3.825  0.00  0.00    -0.505 OA
ATOM     20  H   UNL     1     -31.251  32.046   3.558  0.00  0.00    +0.292 HD
ENDBRANCH  16  19
BRANCH  17  21
ATOM     21  O   UNL     1     -31.436  29.450   7.997  0.00  0.00    -0.505 OA
ATOM     22  H   UNL     1     -31.978  29.028   8.634  0.00  0.00    +0.292 HD
ENDBRANCH  17  21
ENDBRANCH   3  13
BRANCH   8  23
ATOM     23  O   UNL     1     -34.926  23.169   1.370  0.00  0.00    -0.506 OA
ATOM     24  H   UNL     1     -35.738  23.037   0.921  0.00  0.00    +0.292 HD
ENDBRANCH   8  23
BRANCH  11  25
ATOM     25  O   UNL     1     -36.020  22.138   5.896  0.00  0.00    -0.506 OA
ATOM     26  H   UNL     1     -36.274  22.459   6.739  0.00  0.00    +0.292 HD
ENDBRANCH  11  25
TORSDOF 5
ENDMDL
MODEL 6
REMARK VINA RESULT:      -6.2      5.749      7.977
REMARK  Name = 5321873
REMARK  5 active torsions:
REMARK  status: ('A' for Active; 'I' for Inactive)
REMARK    1  A    between atoms: C_3  and  C_13
REMARK    2  A    between atoms: C_8  and  O_23
REMARK    3  A    between atoms: C_11  and  O_25
REMARK    4  A    between atoms: C_16  and  O_19
REMARK    5  A    between atoms: C_17  and  O_21
REMARK                            x       y       z     vdW  Elec       q    Type
REMARK                         _______ _______ _______ _____ _____    ______ ____
ROOT
ATOM      1  O   UNL     1     -37.073  20.720   1.358  0.00  0.00    -0.474 OA
ATOM      2  O   UNL     1     -35.672  23.165   4.343  0.00  0.00    -0.291 OA
ATOM      3  C   UNL     1     -35.663  20.893   1.569  0.00  0.00    +0.196 C 
ATOM      4  C   UNL     1     -35.353  21.179   3.035  0.00  0.00    +0.117 C 
ATOM      5  C   UNL     1     -37.380  22.673   2.787  0.00  0.00    +0.102 C 
ATOM      6  C   UNL     1     -37.811  21.791   1.791  0.00  0.00    +0.147 C 
ATOM      7  C   UNL     1     -36.085  22.426   3.457  0.00  0.00    +0.183 C 
ATOM      8  C   UNL     1     -38.184  23.747   3.175  0.00  0.00    +0.138 C 
ATOM      9  C   UNL     1     -39.428  23.929   2.571  0.00  0.00    +0.046 C 
ATOM     10  C   UNL     1     -39.065  21.968   1.204  0.00  0.00    +0.073 C 
ATOM     11  C   UNL     1     -39.869  23.039   1.592  0.00  0.00    +0.136 C 
ATOM     12  C   UNL     1     -40.298  25.076   2.976  0.00  0.00    +0.037 C 
ENDROOT
BRANCH   3  13
ATOM     13  C   UNL     1     -34.988  19.623   1.092  0.00  0.00    +0.024 C 
ATOM     14  C   UNL     1     -35.610  18.820   0.138  0.00  0.00    +0.036 C 
ATOM     15  C   UNL     1     -33.744  19.260   1.607  0.00  0.00    +0.036 C 
ATOM     16  C   UNL     1     -33.122  18.091   1.167  0.00  0.00    +0.136 C 
ATOM     17  C   UNL     1     -34.988  17.651  -0.302  0.00  0.00    +0.136 C 
ATOM     18  C   UNL     1     -33.744  17.287   0.213  0.00  0.00    +0.073 C 
BRANCH  16  19
ATOM     19  O   UNL     1     -31.908  17.736   1.670  0.00  0.00    -0.505 OA
ATOM     20  H   UNL     1     -31.397  17.078   1.241  0.00  0.00    +0.292 HD
ENDBRANCH  16  19
BRANCH  17  21
ATOM     21  O   UNL     1     -35.595  16.866  -1.234  0.00  0.00    -0.505 OA
ATOM     22  H   UNL     1     -35.644  17.150  -2.125  0.00  0.00    +0.292 HD
ENDBRANCH  17  21
ENDBRANCH   3  13
BRANCH   8  23
ATOM     23  O   UNL     1     -37.792  24.629   4.139  0.00  0.00    -0.506 OA
ATOM     24  H   UNL     1     -38.246  25.442   4.244  0.00  0.00    +0.292 HD
ENDBRANCH   8  23
BRANCH  11  25
ATOM     25  O   UNL     1     -41.087  23.201   1.000  0.00  0.00    -0.506 OA
ATOM     26  H   UNL     1     -41.659  22.466   0.897  0.00  0.00    +0.292 HD
ENDBRANCH  11  25
TORSDOF 5
ENDMDL
MODEL 7
REMARK VINA RESULT:      -6.1      5.195      7.478
REMARK  Name = 5321873
REMARK  5 active torsions:
REMARK  status: ('A' for Active; 'I' for Inactive)
REMARK    1  A    between atoms: C_3  and  C_13
REMARK    2  A    between atoms: C_8  and  O_23
REMARK    3  A    between atoms: C_11  and  O_25
REMARK    4  A    between atoms: C_16  and  O_19
REMARK    5  A    between atoms: C_17  and  O_21
REMARK                            x       y       z     vdW  Elec       q    Type
REMARK                         _______ _______ _______ _____ _____    ______ ____
ROOT
ATOM      1  O   UNL     1     -35.357  22.346   1.800  0.00  0.00    -0.474 OA
ATOM      2  O   UNL     1     -38.964  20.762   0.647  0.00  0.00    -0.291 OA
ATOM      3  C   UNL     1     -35.499  20.940   1.551  0.00  0.00    +0.196 C 
ATOM      4  C   UNL     1     -36.571  20.668   0.500  0.00  0.00    +0.117 C 
ATOM      5  C   UNL     1     -37.795  22.440   1.829  0.00  0.00    +0.102 C 
ATOM      6  C   UNL     1     -36.535  22.942   2.172  0.00  0.00    +0.147 C 
ATOM      7  C   UNL     1     -37.883  21.232   0.982  0.00  0.00    +0.183 C 
ATOM      8  C   UNL     1     -38.954  23.098   2.246  0.00  0.00    +0.138 C 
ATOM      9  C   UNL     1     -38.849  24.268   2.997  0.00  0.00    +0.046 C 
ATOM     10  C   UNL     1     -36.437  24.124   2.906  0.00  0.00    +0.073 C 
ATOM     11  C   UNL     1     -37.593  24.783   3.322  0.00  0.00    +0.136 C 
ATOM     12  C   UNL     1     -40.083  24.982   3.452  0.00  0.00    +0.037 C 
ENDROOT
BRANCH   3  13
ATOM     13  C   UNL     1     -34.141  20.433   1.108  0.00  0.00    +0.024 C 
ATOM     14  C   UNL     1     -33.347  21.212   0.268  0.00  0.00    +0.036 C 
ATOM     15  C   UNL     1     -33.687  19.188   1.541  0.00  0.00    +0.036 C 
ATOM     16  C   UNL     1     -32.436  18.721   1.134  0.00  0.00    +0.136 C 
ATOM     17  C   UNL     1     -32.097  20.746  -0.140  0.00  0.00    +0.136 C 
ATOM     18  C   UNL     1     -31.642  19.500   0.293  0.00  0.00    +0.073 C 
BRANCH  16  19
ATOM     19  O   UNL     1     -31.993  17.506   1.556  0.00  0.00    -0.505 OA
ATOM     20  H   UNL     1     -31.076  17.357   1.675  0.00  0.00    +0.292 HD
ENDBRANCH  16  19
BRANCH  17  21
ATOM     21  O   UNL     1     -31.322  21.507  -0.960  0.00  0.00    -0.505 OA
ATOM     22  H   UNL     1     -30.806  22.203  -0.604  0.00  0.00    +0.292 HD
ENDBRANCH  17  21
ENDBRANCH   3  13
BRANCH   8  23
ATOM     23  O   UNL     1     -40.198  22.632   1.935  0.00  0.00    -0.506 OA
ATOM     24  H   UNL     1     -40.695  22.159   2.573  0.00  0.00    +0.292 HD
ENDBRANCH   8  23
BRANCH  11  25
ATOM     25  O   UNL     1     -37.477  25.931   4.048  0.00  0.00    -0.506 OA
ATOM     26  H   UNL     1     -36.652  26.167   4.423  0.00  0.00    +0.292 HD
ENDBRANCH  11  25
TORSDOF 5
ENDMDL
MODEL 8
REMARK VINA RESULT:      -5.9      4.086      9.280
REMARK  Name = 5321873
REMARK  5 active torsions:
REMARK  status: ('A' for Active; 'I' for Inactive)
REMARK    1  A    between atoms: C_3  and  C_13
REMARK    2  A    between atoms: C_8  and  O_23
REMARK    3  A    between atoms: C_11  and  O_25
REMARK    4  A    between atoms: C_16  and  O_19
REMARK    5  A    between atoms: C_17  and  O_21
REMARK                            x       y       z     vdW  Elec       q    Type
REMARK                         _______ _______ _______ _____ _____    ______ ____
ROOT
ATOM      1  O   UNL     1     -34.297  20.123   2.296  0.00  0.00    -0.474 OA
ATOM      2  O   UNL     1     -37.207  19.353  -0.494  0.00  0.00    -0.291 OA
ATOM      3  C   UNL     1     -35.192  21.157   1.860  0.00  0.00    +0.196 C 
ATOM      4  C   UNL     1     -36.547  20.583   1.457  0.00  0.00    +0.117 C 
ATOM      5  C   UNL     1     -35.070  18.841   0.370  0.00  0.00    +0.102 C 
ATOM      6  C   UNL     1     -34.126  19.137   1.359  0.00  0.00    +0.147 C 
ATOM      7  C   UNL     1     -36.346  19.585   0.346  0.00  0.00    +0.183 C 
ATOM      8  C   UNL     1     -34.826  17.824  -0.556  0.00  0.00    +0.138 C 
ATOM      9  C   UNL     1     -33.639  17.094  -0.481  0.00  0.00    +0.046 C 
ATOM     10  C   UNL     1     -32.950  18.391   1.440  0.00  0.00    +0.073 C 
ATOM     11  C   UNL     1     -32.706  17.374   0.517  0.00  0.00    +0.136 C 
ATOM     12  C   UNL     1     -33.365  16.004  -1.468  0.00  0.00    +0.037 C 
ENDROOT
BRANCH   3  13
ATOM     13  C   UNL     1     -35.320  22.141   3.005  0.00  0.00    +0.024 C 
ATOM     14  C   UNL     1     -35.215  23.509   2.762  0.00  0.00    +0.036 C 
ATOM     15  C   UNL     1     -35.542  21.677   4.301  0.00  0.00    +0.036 C 
ATOM     16  C   UNL     1     -35.660  22.582   5.356  0.00  0.00    +0.136 C 
ATOM     17  C   UNL     1     -35.334  24.416   3.816  0.00  0.00    +0.136 C 
ATOM     18  C   UNL     1     -35.556  23.952   5.113  0.00  0.00    +0.073 C 
BRANCH  16  19
ATOM     19  O   UNL     1     -35.877  22.129   6.620  0.00  0.00    -0.505 OA
ATOM     20  H   UNL     1     -35.416  21.376   6.934  0.00  0.00    +0.292 HD
ENDBRANCH  16  19
BRANCH  17  21
ATOM     21  O   UNL     1     -35.232  25.752   3.580  0.00  0.00    -0.505 OA
ATOM     22  H   UNL     1     -35.713  26.359   4.107  0.00  0.00    +0.292 HD
ENDBRANCH  17  21
ENDBRANCH   3  13
BRANCH   8  23
ATOM     23  O   UNL     1     -35.721  17.513  -1.536  0.00  0.00    -0.506 OA
ATOM     24  H   UNL     1     -36.542  17.963  -1.583  0.00  0.00    +0.292 HD
ENDBRANCH   8  23
BRANCH  11  25
ATOM     25  O   UNL     1     -31.546  16.662   0.607  0.00  0.00    -0.506 OA
ATOM     26  H   UNL     1     -31.320  16.233   1.408  0.00  0.00    +0.292 HD
ENDBRANCH  11  25
TORSDOF 5
ENDMDL
MODEL 9
REMARK VINA RESULT:      -5.9      3.977      9.205
REMARK  Name = 5321873
REMARK  5 active torsions:
REMARK  status: ('A' for Active; 'I' for Inactive)
REMARK    1  A    between atoms: C_3  and  C_13
REMARK    2  A    between atoms: C_8  and  O_23
REMARK    3  A    between atoms: C_11  and  O_25
REMARK    4  A    between atoms: C_16  and  O_19
REMARK    5  A    between atoms: C_17  and  O_21
REMARK                            x       y       z     vdW  Elec       q    Type
REMARK                         _______ _______ _______ _____ _____    ______ ____
ROOT
ATOM      1  O   UNL     1     -37.275  22.034   1.788  0.00  0.00    -0.474 OA
ATOM      2  O   UNL     1     -34.115  19.415   1.728  0.00  0.00    -0.291 OA
ATOM      3  C   UNL     1     -36.356  21.963   2.888  0.00  0.00    +0.196 C 
ATOM      4  C   UNL     1     -34.963  21.550   2.421  0.00  0.00    +0.117 C 
ATOM      5  C   UNL     1     -36.316  19.921   1.037  0.00  0.00    +0.102 C 
ATOM      6  C   UNL     1     -37.349  20.863   1.080  0.00  0.00    +0.147 C 
ATOM      7  C   UNL     1     -35.051  20.205   1.746  0.00  0.00    +0.183 C 
ATOM      8  C   UNL     1     -36.463  18.745   0.297  0.00  0.00    +0.138 C 
ATOM      9  C   UNL     1     -37.643  18.521  -0.412  0.00  0.00    +0.046 C 
ATOM     10  C   UNL     1     -38.519  20.642   0.352  0.00  0.00    +0.073 C 
ATOM     11  C   UNL     1     -38.667  19.469  -0.389  0.00  0.00    +0.136 C 
ATOM     12  C   UNL     1     -37.814  17.266  -1.208  0.00  0.00    +0.037 C 
ENDROOT
BRANCH   3  13
ATOM     13  C   UNL     1     -36.343  23.330   3.541  0.00  0.00    +0.024 C 
ATOM     14  C   UNL     1     -37.361  24.242   3.265  0.00  0.00    +0.036 C 
ATOM     15  C   UNL     1     -35.315  23.675   4.417  0.00  0.00    +0.036 C 
ATOM     16  C   UNL     1     -35.304  24.934   5.019  0.00  0.00    +0.136 C 
ATOM     17  C   UNL     1     -37.351  25.501   3.866  0.00  0.00    +0.136 C 
ATOM     18  C   UNL     1     -36.322  25.847   4.744  0.00  0.00    +0.073 C 
BRANCH  16  19
ATOM     19  O   UNL     1     -34.301  25.270   5.874  0.00  0.00    -0.505 OA
ATOM     20  H   UNL     1     -33.924  26.127   5.840  0.00  0.00    +0.292 HD
ENDBRANCH  16  19
BRANCH  17  21
ATOM     21  O   UNL     1     -38.344  26.392   3.598  0.00  0.00    -0.505 OA
ATOM     22  H   UNL     1     -38.188  27.103   3.009  0.00  0.00    +0.292 HD
ENDBRANCH  17  21
ENDBRANCH   3  13
BRANCH   8  23
ATOM     23  O   UNL     1     -35.479  17.803   0.238  0.00  0.00    -0.506 OA
ATOM     24  H   UNL     1     -35.327  17.332  -0.557  0.00  0.00    +0.292 HD
ENDBRANCH   8  23
BRANCH  11  25
ATOM     25  O   UNL     1     -39.821  19.266  -1.085  0.00  0.00    -0.506 OA
ATOM     26  H   UNL     1     -40.192  18.408  -1.138  0.00  0.00    +0.292 HD
ENDBRANCH  11  25
TORSDOF 5
ENDMDL
