MODEL 1
REMARK VINA RESULT:      -5.6      0.000      0.000
REMARK  Name = 191507
REMARK  10 active torsions:
REMARK  status: ('A' for Active; 'I' for Inactive)
REMARK    1  A    between atoms: C_2  and  C_10
REMARK    2  A    between atoms: C_3  and  C_19
REMARK    3  A    between atoms: C_4  and  O_8
REMARK    4  A    between atoms: C_10  and  N_11
REMARK    5  A    between atoms: N_11  and  C_14
REMARK    6  A    between atoms: C_14  and  C_18
REMARK    7  A    between atoms: C_19  and  O_20
REMARK    8  A    between atoms: O_20  and  P_21
REMARK    9  A    between atoms: P_21  and  O_23
REMARK   10  A    between atoms: P_21  and  O_25
REMARK                            x       y       z     vdW  Elec       q    Type
REMARK                         _______ _______ _______ _____ _____    ______ ____
ROOT
ATOM      1  N   UNL     1     -34.519  28.215   3.362  0.00  0.00    -0.245 NA
ATOM      2  C   UNL     1     -35.227  25.522   3.114  0.00  0.00    -0.009 C 
ATOM      3  C   UNL     1     -35.985  26.505   2.486  0.00  0.00    +0.024 C 
ATOM      4  C   UNL     1     -34.115  25.886   3.866  0.00  0.00    +0.141 C 
ATOM      5  C   UNL     1     -33.806  27.233   3.959  0.00  0.00    +0.092 C 
ATOM      6  C   UNL     1     -35.592  27.824   2.641  0.00  0.00    +0.096 C 
ATOM      7  C   UNL     1     -32.623  27.677   4.754  0.00  0.00    +0.055 C 
ENDROOT
BRANCH   4   8
ATOM      8  O   UNL     1     -33.355  24.947   4.489  0.00  0.00    -0.505 OA
ATOM      9  H   UNL     1     -33.731  24.407   5.156  0.00  0.00    +0.292 HD
ENDBRANCH   4   8
BRANCH   2  10
ATOM     10  C   UNL     1     -35.602  24.082   2.984  0.00  0.00    -0.051 C 
BRANCH  10  11
ATOM     11  N   UNL     1     -36.325  23.589   4.156  0.00  0.00    +0.392 N 
ATOM     12  H   UNL     1     -37.318  23.514   3.930  0.00  0.00    -0.084 HD
ATOM     13  H   UNL     1     -36.186  24.243   4.926  0.00  0.00    -0.084 HD
BRANCH  11  14
ATOM     14  C   UNL     1     -35.828  22.283   4.556  0.00  0.00    +0.024 C 
BRANCH  14  18
ATOM     15  F   UNL     1     -34.157  21.651   6.088  0.00  0.00    -0.172 F 
ATOM     16  F   UNL     1     -35.120  23.580   6.407  0.00  0.00    -0.172 F 
ATOM     17  F   UNL     1     -36.206  21.729   6.829  0.00  0.00    -0.172 F 
ATOM     18  C   UNL     1     -35.330  22.315   5.984  0.00  0.00    +0.379 C 
ENDBRANCH  14  18
ENDBRANCH  11  14
ENDBRANCH  10  11
ENDBRANCH   2  10
BRANCH   3  19
ATOM     19  C   UNL     1     -37.186  26.174   1.670  0.00  0.00    +0.181 C 
BRANCH  19  20
ATOM     20  O   UNL     1     -38.345  26.718   2.289  0.00  0.00    -0.268 OA
BRANCH  20  21
ATOM     21  P   UNL     1     -39.498  25.699   2.788  0.00  0.00    +0.473 P 
ATOM     22  O   UNL     1     -39.013  24.548   3.619  0.00  0.00    -0.227 OA
BRANCH  21  23
ATOM     23  O   UNL     1     -40.268  25.293   1.425  0.00  0.00    -0.303 OA
ATOM     24  H   UNL     1     -40.157  25.997   0.768  0.00  0.00    +0.222 HD
ENDBRANCH  21  23
BRANCH  21  25
ATOM     25  O   UNL     1     -40.545  26.683   3.528  0.00  0.00    -0.303 OA
ATOM     26  H   UNL     1     -40.209  26.911   4.409  0.00  0.00    +0.222 HD
ENDBRANCH  21  25
ENDBRANCH  20  21
ENDBRANCH  19  20
ENDBRANCH   3  19
TORSDOF 10
ENDMDL
MODEL 2
REMARK VINA RESULT:      -5.5      2.862      5.065
REMARK  Name = 191507
REMARK  10 active torsions:
REMARK  status: ('A' for Active; 'I' for Inactive)
REMARK    1  A    between atoms: C_2  and  C_10
REMARK    2  A    between atoms: C_3  and  C_19
REMARK    3  A    between atoms: C_4  and  O_8
REMARK    4  A    between atoms: C_10  and  N_11
REMARK    5  A    between atoms: N_11  and  C_14
REMARK    6  A    between atoms: C_14  and  C_18
REMARK    7  A    between atoms: C_19  and  O_20
REMARK    8  A    between atoms: O_20  and  P_21
REMARK    9  A    between atoms: P_21  and  O_23
REMARK   10  A    between atoms: P_21  and  O_25
REMARK                            x       y       z     vdW  Elec       q    Type
REMARK                         _______ _______ _______ _____ _____    ______ ____
ROOT
ATOM      1  N   UNL     1     -35.053  27.710   2.120  0.00  0.00    -0.245 NA
ATOM      2  C   UNL     1     -35.883  26.045   4.206  0.00  0.00    -0.009 C 
ATOM      3  C   UNL     1     -34.643  26.671   4.263  0.00  0.00    +0.024 C 
ATOM      4  C   UNL     1     -36.708  26.250   3.106  0.00  0.00    +0.141 C 
ATOM      5  C   UNL     1     -36.251  27.084   2.098  0.00  0.00    +0.092 C 
ATOM      6  C   UNL     1     -34.278  27.486   3.204  0.00  0.00    +0.096 C 
ATOM      7  C   UNL     1     -37.098  27.338   0.895  0.00  0.00    +0.055 C 
ENDROOT
BRANCH   4   8
ATOM      8  O   UNL     1     -37.926  25.652   3.023  0.00  0.00    -0.505 OA
ATOM      9  H   UNL     1     -38.625  26.074   2.564  0.00  0.00    +0.292 HD
ENDBRANCH   4   8
BRANCH   2  10
ATOM     10  C   UNL     1     -36.330  25.153   5.319  0.00  0.00    -0.051 C 
BRANCH  10  11
ATOM     11  N   UNL     1     -36.473  23.761   4.891  0.00  0.00    +0.392 N 
ATOM     12  H   UNL     1     -36.918  23.738   3.974  0.00  0.00    -0.084 HD
ATOM     13  H   UNL     1     -37.045  23.266   5.576  0.00  0.00    -0.084 HD
BRANCH  11  14
ATOM     14  C   UNL     1     -35.175  23.112   4.809  0.00  0.00    +0.024 C 
BRANCH  14  18
ATOM     15  F   UNL     1     -33.962  21.711   6.260  0.00  0.00    -0.172 F 
ATOM     16  F   UNL     1     -36.110  21.869   6.596  0.00  0.00    -0.172 F 
ATOM     17  F   UNL     1     -35.348  20.750   4.879  0.00  0.00    -0.172 F 
ATOM     18  C   UNL     1     -35.156  21.848   5.641  0.00  0.00    +0.379 C 
ENDBRANCH  14  18
ENDBRANCH  11  14
ENDBRANCH  10  11
ENDBRANCH   2  10
BRANCH   3  19
ATOM     19  C   UNL     1     -33.717  26.486   5.416  0.00  0.00    +0.181 C 
BRANCH  19  20
ATOM     20  O   UNL     1     -32.507  27.193   5.171  0.00  0.00    -0.268 OA
BRANCH  20  21
ATOM     21  P   UNL     1     -31.935  28.160   6.334  0.00  0.00    +0.473 P 
ATOM     22  O   UNL     1     -32.196  29.623   6.130  0.00  0.00    -0.227 OA
BRANCH  21  23
ATOM     23  O   UNL     1     -30.377  27.744   6.449  0.00  0.00    -0.303 OA
ATOM     24  H   UNL     1     -29.837  28.542   6.561  0.00  0.00    +0.222 HD
ENDBRANCH  21  23
BRANCH  21  25
ATOM     25  O   UNL     1     -32.588  27.530   7.672  0.00  0.00    -0.303 OA
ATOM     26  H   UNL     1     -32.427  26.573   7.692  0.00  0.00    +0.222 HD
ENDBRANCH  21  25
ENDBRANCH  20  21
ENDBRANCH  19  20
ENDBRANCH   3  19
TORSDOF 10
ENDMDL
MODEL 3
REMARK VINA RESULT:      -5.5      2.553      4.397
REMARK  Name = 191507
REMARK  10 active torsions:
REMARK  status: ('A' for Active; 'I' for Inactive)
REMARK    1  A    between atoms: C_2  and  C_10
REMARK    2  A    between atoms: C_3  and  C_19
REMARK    3  A    between atoms: C_4  and  O_8
REMARK    4  A    between atoms: C_10  and  N_11
REMARK    5  A    between atoms: N_11  and  C_14
REMARK    6  A    between atoms: C_14  and  C_18
REMARK    7  A    between atoms: C_19  and  O_20
REMARK    8  A    between atoms: O_20  and  P_21
REMARK    9  A    between atoms: P_21  and  O_23
REMARK   10  A    between atoms: P_21  and  O_25
REMARK                            x       y       z     vdW  Elec       q    Type
REMARK                         _______ _______ _______ _____ _____    ______ ____
ROOT
ATOM      1  N   UNL     1     -38.986  26.643   1.771  0.00  0.00    -0.245 NA
ATOM      2  C   UNL     1     -37.640  24.262   2.349  0.00  0.00    -0.009 C 
ATOM      3  C   UNL     1     -36.923  25.428   2.106  0.00  0.00    +0.024 C 
ATOM      4  C   UNL     1     -39.030  24.285   2.303  0.00  0.00    +0.141 C 
ATOM      5  C   UNL     1     -39.649  25.489   2.012  0.00  0.00    +0.092 C 
ATOM      6  C   UNL     1     -37.637  26.581   1.824  0.00  0.00    +0.096 C 
ATOM      7  C   UNL     1     -41.139  25.570   1.950  0.00  0.00    +0.055 C 
ENDROOT
BRANCH   4   8
ATOM      8  O   UNL     1     -39.756  23.161   2.538  0.00  0.00    -0.505 OA
ATOM      9  H   UNL     1     -39.417  22.323   2.290  0.00  0.00    +0.292 HD
ENDBRANCH   4   8
BRANCH   2  10
ATOM     10  C   UNL     1     -36.924  22.987   2.657  0.00  0.00    -0.051 C 
BRANCH  10  11
ATOM     11  N   UNL     1     -36.849  22.726   4.095  0.00  0.00    +0.392 N 
ATOM     12  H   UNL     1     -37.656  22.168   4.376  0.00  0.00    -0.084 HD
ATOM     13  H   UNL     1     -36.846  23.619   4.589  0.00  0.00    -0.084 HD
BRANCH  11  14
ATOM     14  C   UNL     1     -35.631  22.004   4.425  0.00  0.00    +0.024 C 
BRANCH  14  18
ATOM     15  F   UNL     1     -34.094  21.592   6.159  0.00  0.00    -0.172 F 
ATOM     16  F   UNL     1     -35.060  23.546   6.130  0.00  0.00    -0.172 F 
ATOM     17  F   UNL     1     -36.195  21.770   6.714  0.00  0.00    -0.172 F 
ATOM     18  C   UNL     1     -35.248  22.235   5.870  0.00  0.00    +0.379 C 
ENDBRANCH  14  18
ENDBRANCH  11  14
ENDBRANCH  10  11
ENDBRANCH   2  10
BRANCH   3  19
ATOM     19  C   UNL     1     -35.434  25.462   2.140  0.00  0.00    +0.181 C 
BRANCH  19  20
ATOM     20  O   UNL     1     -34.986  25.287   3.478  0.00  0.00    -0.268 OA
BRANCH  20  21
ATOM     21  P   UNL     1     -34.842  26.596   4.416  0.00  0.00    +0.473 P 
ATOM     22  O   UNL     1     -34.674  27.891   3.678  0.00  0.00    -0.227 OA
BRANCH  21  23
ATOM     23  O   UNL     1     -33.639  26.215   5.428  0.00  0.00    -0.303 OA
ATOM     24  H   UNL     1     -32.811  26.133   4.929  0.00  0.00    +0.222 HD
ENDBRANCH  21  23
BRANCH  21  25
ATOM     25  O   UNL     1     -36.158  26.508   5.352  0.00  0.00    -0.303 OA
ATOM     26  H   UNL     1     -36.582  27.380   5.397  0.00  0.00    +0.222 HD
ENDBRANCH  21  25
ENDBRANCH  20  21
ENDBRANCH  19  20
ENDBRANCH   3  19
TORSDOF 10
ENDMDL
MODEL 4
REMARK VINA RESULT:      -5.4      3.892      5.359
REMARK  Name = 191507
REMARK  10 active torsions:
REMARK  status: ('A' for Active; 'I' for Inactive)
REMARK    1  A    between atoms: C_2  and  C_10
REMARK    2  A    between atoms: C_3  and  C_19
REMARK    3  A    between atoms: C_4  and  O_8
REMARK    4  A    between atoms: C_10  and  N_11
REMARK    5  A    between atoms: N_11  and  C_14
REMARK    6  A    between atoms: C_14  and  C_18
REMARK    7  A    between atoms: C_19  and  O_20
REMARK    8  A    between atoms: O_20  and  P_21
REMARK    9  A    between atoms: P_21  and  O_23
REMARK   10  A    between atoms: P_21  and  O_25
REMARK                            x       y       z     vdW  Elec       q    Type
REMARK                         _______ _______ _______ _____ _____    ______ ____
ROOT
ATOM      1  N   UNL     1     -40.640  23.992   1.937  0.00  0.00    -0.245 NA
ATOM      2  C   UNL     1     -38.012  23.927   2.887  0.00  0.00    -0.009 C 
ATOM      3  C   UNL     1     -38.526  22.845   2.181  0.00  0.00    +0.024 C 
ATOM      4  C   UNL     1     -38.811  25.041   3.120  0.00  0.00    +0.141 C 
ATOM      5  C   UNL     1     -40.106  25.024   2.629  0.00  0.00    +0.092 C 
ATOM      6  C   UNL     1     -39.834  22.927   1.732  0.00  0.00    +0.096 C 
ATOM      7  C   UNL     1     -41.006  26.194   2.851  0.00  0.00    +0.055 C 
ENDROOT
BRANCH   4   8
ATOM      8  O   UNL     1     -38.334  26.113   3.806  0.00  0.00    -0.505 OA
ATOM      9  H   UNL     1     -38.636  26.284   4.677  0.00  0.00    +0.292 HD
ENDBRANCH   4   8
BRANCH   2  10
ATOM     10  C   UNL     1     -36.607  23.895   3.397  0.00  0.00    -0.051 C 
BRANCH  10  11
ATOM     11  N   UNL     1     -36.549  23.823   4.857  0.00  0.00    +0.392 N 
ATOM     12  H   UNL     1     -37.225  23.133   5.186  0.00  0.00    -0.084 HD
ATOM     13  H   UNL     1     -36.767  24.743   5.239  0.00  0.00    -0.084 HD
BRANCH  11  14
ATOM     14  C   UNL     1     -35.219  23.436   5.301  0.00  0.00    +0.024 C 
BRANCH  14  18
ATOM     15  F   UNL     1     -36.142  21.766   6.678  0.00  0.00    -0.172 F 
ATOM     16  F   UNL     1     -35.460  21.158   4.699  0.00  0.00    -0.172 F 
ATOM     17  F   UNL     1     -34.007  21.641   6.260  0.00  0.00    -0.172 F 
ATOM     18  C   UNL     1     -35.201  21.986   5.733  0.00  0.00    +0.379 C 
ENDBRANCH  14  18
ENDBRANCH  11  14
ENDBRANCH  10  11
ENDBRANCH   2  10
BRANCH   3  19
ATOM     19  C   UNL     1     -37.717  21.625   1.904  0.00  0.00    +0.181 C 
BRANCH  19  20
ATOM     20  O   UNL     1     -38.200  20.992   0.725  0.00  0.00    -0.268 OA
BRANCH  20  21
ATOM     21  P   UNL     1     -37.364  19.744   0.128  0.00  0.00    +0.473 P 
ATOM     22  O   UNL     1     -36.407  20.089  -0.976  0.00  0.00    -0.227 OA
BRANCH  21  23
ATOM     23  O   UNL     1     -38.505  18.665  -0.258  0.00  0.00    -0.303 OA
ATOM     24  H   UNL     1     -38.813  18.219   0.546  0.00  0.00    +0.222 HD
ENDBRANCH  21  23
BRANCH  21  25
ATOM     25  O   UNL     1     -36.682  19.109   1.449  0.00  0.00    -0.303 OA
ATOM     26  H   UNL     1     -36.030  19.731   1.808  0.00  0.00    +0.222 HD
ENDBRANCH  21  25
ENDBRANCH  20  21
ENDBRANCH  19  20
ENDBRANCH   3  19
TORSDOF 10
ENDMDL
MODEL 5
REMARK VINA RESULT:      -5.4      3.030      5.153
REMARK  Name = 191507
REMARK  10 active torsions:
REMARK  status: ('A' for Active; 'I' for Inactive)
REMARK    1  A    between atoms: C_2  and  C_10
REMARK    2  A    between atoms: C_3  and  C_19
REMARK    3  A    between atoms: C_4  and  O_8
REMARK    4  A    between atoms: C_10  and  N_11
REMARK    5  A    between atoms: N_11  and  C_14
REMARK    6  A    between atoms: C_14  and  C_18
REMARK    7  A    between atoms: C_19  and  O_20
REMARK    8  A    between atoms: O_20  and  P_21
REMARK    9  A    between atoms: P_21  and  O_23
REMARK   10  A    between atoms: P_21  and  O_25
REMARK                            x       y       z     vdW  Elec       q    Type
REMARK                         _______ _______ _______ _____ _____    ______ ____
ROOT
ATOM      1  N   UNL     1     -36.237  27.018   2.124  0.00  0.00    -0.245 NA
ATOM      2  C   UNL     1     -35.993  25.412   4.399  0.00  0.00    -0.009 C 
ATOM      3  C   UNL     1     -34.910  26.164   3.955  0.00  0.00    +0.024 C 
ATOM      4  C   UNL     1     -37.197  25.462   3.705  0.00  0.00    +0.141 C 
ATOM      5  C   UNL     1     -37.267  26.273   2.584  0.00  0.00    +0.092 C 
ATOM      6  C   UNL     1     -35.083  26.943   2.823  0.00  0.00    +0.096 C 
ATOM      7  C   UNL     1     -38.536  26.363   1.803  0.00  0.00    +0.055 C 
ENDROOT
BRANCH   4   8
ATOM      8  O   UNL     1     -38.272  24.739   4.117  0.00  0.00    -0.505 OA
ATOM      9  H   UNL     1     -38.828  24.326   3.486  0.00  0.00    +0.292 HD
ENDBRANCH   4   8
BRANCH   2  10
ATOM     10  C   UNL     1     -35.866  24.552   5.614  0.00  0.00    -0.051 C 
BRANCH  10  11
ATOM     11  N   UNL     1     -36.274  23.170   5.361  0.00  0.00    +0.392 N 
ATOM     12  H   UNL     1     -37.082  23.169   4.738  0.00  0.00    -0.084 HD
ATOM     13  H   UNL     1     -36.513  22.732   6.251  0.00  0.00    -0.084 HD
BRANCH  11  14
ATOM     14  C   UNL     1     -35.194  22.419   4.744  0.00  0.00    +0.024 C 
BRANCH  14  18
ATOM     15  F   UNL     1     -34.930  22.674   2.419  0.00  0.00    -0.172 F 
ATOM     16  F   UNL     1     -35.284  20.656   3.164  0.00  0.00    -0.172 F 
ATOM     17  F   UNL     1     -36.910  22.117   3.140  0.00  0.00    -0.172 F 
ATOM     18  C   UNL     1     -35.587  21.957   3.358  0.00  0.00    +0.379 C 
ENDBRANCH  14  18
ENDBRANCH  11  14
ENDBRANCH  10  11
ENDBRANCH   2  10
BRANCH   3  19
ATOM     19  C   UNL     1     -33.597  26.148   4.658  0.00  0.00    +0.181 C 
BRANCH  19  20
ATOM     20  O   UNL     1     -33.512  27.267   5.531  0.00  0.00    -0.268 OA
BRANCH  20  21
ATOM     21  P   UNL     1     -32.158  28.151   5.515  0.00  0.00    +0.473 P 
ATOM     22  O   UNL     1     -32.364  29.632   5.641  0.00  0.00    -0.227 OA
BRANCH  21  23
ATOM     23  O   UNL     1     -31.399  27.670   4.170  0.00  0.00    -0.303 OA
ATOM     24  H   UNL     1     -30.526  28.090   4.123  0.00  0.00    +0.222 HD
ENDBRANCH  21  23
BRANCH  21  25
ATOM     25  O   UNL     1     -31.282  27.481   6.697  0.00  0.00    -0.303 OA
ATOM     26  H   UNL     1     -31.729  27.614   7.547  0.00  0.00    +0.222 HD
ENDBRANCH  21  25
ENDBRANCH  20  21
ENDBRANCH  19  20
ENDBRANCH   3  19
TORSDOF 10
ENDMDL
MODEL 6
REMARK VINA RESULT:      -5.4      3.259      5.283
REMARK  Name = 191507
REMARK  10 active torsions:
REMARK  status: ('A' for Active; 'I' for Inactive)
REMARK    1  A    between atoms: C_2  and  C_10
REMARK    2  A    between atoms: C_3  and  C_19
REMARK    3  A    between atoms: C_4  and  O_8
REMARK    4  A    between atoms: C_10  and  N_11
REMARK    5  A    between atoms: N_11  and  C_14
REMARK    6  A    between atoms: C_14  and  C_18
REMARK    7  A    between atoms: C_19  and  O_20
REMARK    8  A    between atoms: O_20  and  P_21
REMARK    9  A    between atoms: P_21  and  O_23
REMARK   10  A    between atoms: P_21  and  O_25
REMARK                            x       y       z     vdW  Elec       q    Type
REMARK                         _______ _______ _______ _____ _____    ______ ____
ROOT
ATOM      1  N   UNL     1     -39.851  24.075   2.155  0.00  0.00    -0.245 NA
ATOM      2  C   UNL     1     -37.296  25.179   2.416  0.00  0.00    -0.009 C 
ATOM      3  C   UNL     1     -37.525  23.855   2.774  0.00  0.00    +0.024 C 
ATOM      4  C   UNL     1     -38.345  25.952   1.928  0.00  0.00    +0.141 C 
ATOM      5  C   UNL     1     -39.592  25.359   1.818  0.00  0.00    +0.092 C 
ATOM      6  C   UNL     1     -38.808  23.356   2.626  0.00  0.00    +0.096 C 
ATOM      7  C   UNL     1     -40.751  26.143   1.299  0.00  0.00    +0.055 C 
ENDROOT
BRANCH   4   8
ATOM      8  O   UNL     1     -38.150  27.249   1.569  0.00  0.00    -0.505 OA
ATOM      9  H   UNL     1     -37.597  27.800   2.087  0.00  0.00    +0.292 HD
ENDBRANCH   4   8
BRANCH   2  10
ATOM     10  C   UNL     1     -35.932  25.774   2.555  0.00  0.00    -0.051 C 
BRANCH  10  11
ATOM     11  N   UNL     1     -35.862  26.754   3.638  0.00  0.00    +0.392 N 
ATOM     12  H   UNL     1     -36.619  26.578   4.299  0.00  0.00    -0.084 HD
ATOM     13  H   UNL     1     -35.950  27.689   3.239  0.00  0.00    -0.084 HD
BRANCH  11  14
ATOM     14  C   UNL     1     -34.589  26.661   4.335  0.00  0.00    +0.024 C 
BRANCH  14  18
ATOM     15  F   UNL     1     -34.288  24.562   5.356  0.00  0.00    -0.172 F 
ATOM     16  F   UNL     1     -33.997  26.326   6.604  0.00  0.00    -0.172 F 
ATOM     17  F   UNL     1     -36.011  25.737   5.989  0.00  0.00    -0.172 F 
ATOM     18  C   UNL     1     -34.725  25.820   5.585  0.00  0.00    +0.379 C 
ENDBRANCH  14  18
ENDBRANCH  11  14
ENDBRANCH  10  11
ENDBRANCH   2  10
BRANCH   3  19
ATOM     19  C   UNL     1     -36.441  22.982   3.304  0.00  0.00    +0.181 C 
BRANCH  19  20
ATOM     20  O   UNL     1     -35.947  22.152   2.260  0.00  0.00    -0.268 OA
BRANCH  20  21
ATOM     21  P   UNL     1     -35.544  20.628   2.618  0.00  0.00    +0.473 P 
ATOM     22  O   UNL     1     -34.399  20.070   1.825  0.00  0.00    -0.227 OA
BRANCH  21  23
ATOM     23  O   UNL     1     -36.937  19.819   2.483  0.00  0.00    -0.303 OA
ATOM     24  H   UNL     1     -36.760  18.919   2.167  0.00  0.00    +0.222 HD
ENDBRANCH  21  23
BRANCH  21  25
ATOM     25  O   UNL     1     -35.302  20.690   4.215  0.00  0.00    -0.303 OA
ATOM     26  H   UNL     1     -34.350  20.744   4.397  0.00  0.00    +0.222 HD
ENDBRANCH  21  25
ENDBRANCH  20  21
ENDBRANCH  19  20
ENDBRANCH   3  19
TORSDOF 10
ENDMDL
MODEL 7
REMARK VINA RESULT:      -5.3      2.962      4.521
REMARK  Name = 191507
REMARK  10 active torsions:
REMARK  status: ('A' for Active; 'I' for Inactive)
REMARK    1  A    between atoms: C_2  and  C_10
REMARK    2  A    between atoms: C_3  and  C_19
REMARK    3  A    between atoms: C_4  and  O_8
REMARK    4  A    between atoms: C_10  and  N_11
REMARK    5  A    between atoms: N_11  and  C_14
REMARK    6  A    between atoms: C_14  and  C_18
REMARK    7  A    between atoms: C_19  and  O_20
REMARK    8  A    between atoms: O_20  and  P_21
REMARK    9  A    between atoms: P_21  and  O_23
REMARK   10  A    between atoms: P_21  and  O_25
REMARK                            x       y       z     vdW  Elec       q    Type
REMARK                         _______ _______ _______ _____ _____    ______ ____
ROOT
ATOM      1  N   UNL     1     -33.967  21.830   0.417  0.00  0.00    -0.245 NA
ATOM      2  C   UNL     1     -36.031  22.603   2.137  0.00  0.00    -0.009 C 
ATOM      3  C   UNL     1     -35.506  23.511   1.223  0.00  0.00    +0.024 C 
ATOM      4  C   UNL     1     -35.524  21.309   2.191  0.00  0.00    +0.141 C 
ATOM      5  C   UNL     1     -34.502  20.975   1.319  0.00  0.00    +0.092 C 
ATOM      6  C   UNL     1     -34.485  23.078   0.393  0.00  0.00    +0.096 C 
ATOM      7  C   UNL     1     -33.921  19.600   1.336  0.00  0.00    +0.055 C 
ENDROOT
BRANCH   4   8
ATOM      8  O   UNL     1     -36.019  20.401   3.073  0.00  0.00    -0.505 OA
ATOM      9  H   UNL     1     -36.600  19.728   2.777  0.00  0.00    +0.292 HD
ENDBRANCH   4   8
BRANCH   2  10
ATOM     10  C   UNL     1     -37.134  23.013   3.058  0.00  0.00    -0.051 C 
BRANCH  10  11
ATOM     11  N   UNL     1     -36.720  22.996   4.461  0.00  0.00    +0.392 N 
ATOM     12  H   UNL     1     -35.968  22.317   4.580  0.00  0.00    -0.084 HD
ATOM     13  H   UNL     1     -37.523  22.740   5.036  0.00  0.00    -0.084 HD
BRANCH  11  14
ATOM     14  C   UNL     1     -36.249  24.308   4.874  0.00  0.00    +0.024 C 
BRANCH  14  18
ATOM     15  F   UNL     1     -34.620  23.136   6.105  0.00  0.00    -0.172 F 
ATOM     16  F   UNL     1     -33.954  24.166   4.303  0.00  0.00    -0.172 F 
ATOM     17  F   UNL     1     -34.480  25.311   6.090  0.00  0.00    -0.172 F 
ATOM     18  C   UNL     1     -34.812  24.236   5.343  0.00  0.00    +0.379 C 
ENDBRANCH  14  18
ENDBRANCH  11  14
ENDBRANCH  10  11
ENDBRANCH   2  10
BRANCH   3  19
ATOM     19  C   UNL     1     -36.009  24.909   1.121  0.00  0.00    +0.181 C 
BRANCH  19  20
ATOM     20  O   UNL     1     -35.208  25.761   1.931  0.00  0.00    -0.268 OA
BRANCH  20  21
ATOM     21  P   UNL     1     -35.747  27.254   2.241  0.00  0.00    +0.473 P 
ATOM     22  O   UNL     1     -35.319  28.301   1.256  0.00  0.00    -0.227 OA
BRANCH  21  23
ATOM     23  O   UNL     1     -35.294  27.517   3.771  0.00  0.00    -0.303 OA
ATOM     24  H   UNL     1     -35.887  27.038   4.371  0.00  0.00    +0.222 HD
ENDBRANCH  21  23
BRANCH  21  25
ATOM     25  O   UNL     1     -37.344  27.037   2.357  0.00  0.00    -0.303 OA
ATOM     26  H   UNL     1     -37.742  27.073   1.473  0.00  0.00    +0.222 HD
ENDBRANCH  21  25
ENDBRANCH  20  21
ENDBRANCH  19  20
ENDBRANCH   3  19
TORSDOF 10
ENDMDL
MODEL 8
REMARK VINA RESULT:      -5.3      4.278      5.281
REMARK  Name = 191507
REMARK  10 active torsions:
REMARK  status: ('A' for Active; 'I' for Inactive)
REMARK    1  A    between atoms: C_2  and  C_10
REMARK    2  A    between atoms: C_3  and  C_19
REMARK    3  A    between atoms: C_4  and  O_8
REMARK    4  A    between atoms: C_10  and  N_11
REMARK    5  A    between atoms: N_11  and  C_14
REMARK    6  A    between atoms: C_14  and  C_18
REMARK    7  A    between atoms: C_19  and  O_20
REMARK    8  A    between atoms: O_20  and  P_21
REMARK    9  A    between atoms: P_21  and  O_23
REMARK   10  A    between atoms: P_21  and  O_25
REMARK                            x       y       z     vdW  Elec       q    Type
REMARK                         _______ _______ _______ _____ _____    ______ ____
ROOT
ATOM      1  N   UNL     1     -33.677  25.012   3.960  0.00  0.00    -0.245 NA
ATOM      2  C   UNL     1     -36.468  24.946   3.823  0.00  0.00    -0.009 C 
ATOM      3  C   UNL     1     -35.707  24.191   2.937  0.00  0.00    +0.024 C 
ATOM      4  C   UNL     1     -35.834  25.734   4.778  0.00  0.00    +0.141 C 
ATOM      5  C   UNL     1     -34.449  25.733   4.804  0.00  0.00    +0.092 C 
ATOM      6  C   UNL     1     -34.328  24.259   3.046  0.00  0.00    +0.096 C 
ATOM      7  C   UNL     1     -33.718  26.561   5.809  0.00  0.00    +0.055 C 
ENDROOT
BRANCH   4   8
ATOM      8  O   UNL     1     -36.552  26.482   5.657  0.00  0.00    -0.505 OA
ATOM      9  H   UNL     1     -36.350  26.452   6.572  0.00  0.00    +0.292 HD
ENDBRANCH   4   8
BRANCH   2  10
ATOM     10  C   UNL     1     -37.961  24.915   3.753  0.00  0.00    -0.051 C 
BRANCH  10  11
ATOM     11  N   UNL     1     -38.523  26.193   3.317  0.00  0.00    +0.392 N 
ATOM     12  H   UNL     1     -37.764  26.855   3.158  0.00  0.00    -0.084 HD
ATOM     13  H   UNL     1     -39.149  26.539   4.043  0.00  0.00    -0.084 HD
BRANCH  11  14
ATOM     14  C   UNL     1     -39.279  26.030   2.086  0.00  0.00    +0.024 C 
BRANCH  14  18
ATOM     15  F   UNL     1     -40.997  26.122   3.691  0.00  0.00    -0.172 F 
ATOM     16  F   UNL     1     -41.328  27.187   1.818  0.00  0.00    -0.172 F 
ATOM     17  F   UNL     1     -41.402  25.002   1.866  0.00  0.00    -0.172 F 
ATOM     18  C   UNL     1     -40.766  26.085   2.360  0.00  0.00    +0.379 C 
ENDBRANCH  14  18
ENDBRANCH  11  14
ENDBRANCH  10  11
ENDBRANCH   2  10
BRANCH   3  19
ATOM     19  C   UNL     1     -36.333  23.331   1.894  0.00  0.00    +0.181 C 
BRANCH  19  20
ATOM     20  O   UNL     1     -36.822  22.138   2.493  0.00  0.00    -0.268 OA
BRANCH  20  21
ATOM     21  P   UNL     1     -35.838  20.856   2.563  0.00  0.00    +0.473 P 
ATOM     22  O   UNL     1     -34.685  20.886   1.603  0.00  0.00    -0.227 OA
BRANCH  21  23
ATOM     23  O   UNL     1     -36.837  19.595   2.406  0.00  0.00    -0.303 OA
ATOM     24  H   UNL     1     -37.603  19.853   1.869  0.00  0.00    +0.222 HD
ENDBRANCH  21  23
BRANCH  21  25
ATOM     25  O   UNL     1     -35.424  20.811   4.126  0.00  0.00    -0.303 OA
ATOM     26  H   UNL     1     -35.753  19.990   4.524  0.00  0.00    +0.222 HD
ENDBRANCH  21  25
ENDBRANCH  20  21
ENDBRANCH  19  20
ENDBRANCH   3  19
TORSDOF 10
ENDMDL
MODEL 9
REMARK VINA RESULT:      -5.2      3.356      4.451
REMARK  Name = 191507
REMARK  10 active torsions:
REMARK  status: ('A' for Active; 'I' for Inactive)
REMARK    1  A    between atoms: C_2  and  C_10
REMARK    2  A    between atoms: C_3  and  C_19
REMARK    3  A    between atoms: C_4  and  O_8
REMARK    4  A    between atoms: C_10  and  N_11
REMARK    5  A    between atoms: N_11  and  C_14
REMARK    6  A    between atoms: C_14  and  C_18
REMARK    7  A    between atoms: C_19  and  O_20
REMARK    8  A    between atoms: O_20  and  P_21
REMARK    9  A    between atoms: P_21  and  O_23
REMARK   10  A    between atoms: P_21  and  O_25
REMARK                            x       y       z     vdW  Elec       q    Type
REMARK                         _______ _______ _______ _____ _____    ______ ____
ROOT
ATOM      1  N   UNL     1     -36.031  23.912   5.394  0.00  0.00    -0.245 NA
ATOM      2  C   UNL     1     -36.265  22.505   2.989  0.00  0.00    -0.009 C 
ATOM      3  C   UNL     1     -36.689  23.828   3.069  0.00  0.00    +0.024 C 
ATOM      4  C   UNL     1     -35.726  21.886   4.111  0.00  0.00    +0.141 C 
ATOM      5  C   UNL     1     -35.631  22.625   5.279  0.00  0.00    +0.092 C 
ATOM      6  C   UNL     1     -36.551  24.480   4.284  0.00  0.00    +0.096 C 
ATOM      7  C   UNL     1     -35.059  22.008   6.512  0.00  0.00    +0.055 C 
ENDROOT
BRANCH   4   8
ATOM      8  O   UNL     1     -35.302  20.595   4.062  0.00  0.00    -0.505 OA
ATOM      9  H   UNL     1     -34.427  20.399   3.790  0.00  0.00    +0.292 HD
ENDBRANCH   4   8
BRANCH   2  10
ATOM     10  C   UNL     1     -36.390  21.750   1.706  0.00  0.00    -0.051 C 
BRANCH  10  11
ATOM     11  N   UNL     1     -35.091  21.494   1.084  0.00  0.00    +0.392 N 
ATOM     12  H   UNL     1     -34.355  21.631   1.778  0.00  0.00    -0.084 HD
ATOM     13  H   UNL     1     -34.968  22.141   0.305  0.00  0.00    -0.084 HD
BRANCH  11  14
ATOM     14  C   UNL     1     -35.021  20.133   0.578  0.00  0.00    +0.024 C 
BRANCH  14  18
ATOM     15  F   UNL     1     -32.700  20.496   0.717  0.00  0.00    -0.172 F 
ATOM     16  F   UNL     1     -33.556  19.007   2.060  0.00  0.00    -0.172 F 
ATOM     17  F   UNL     1     -33.360  18.575  -0.075  0.00  0.00    -0.172 F 
ATOM     18  C   UNL     1     -33.651  19.541   0.823  0.00  0.00    +0.379 C 
ENDBRANCH  14  18
ENDBRANCH  11  14
ENDBRANCH  10  11
ENDBRANCH   2  10
BRANCH   3  19
ATOM     19  C   UNL     1     -37.276  24.541   1.901  0.00  0.00    +0.181 C 
BRANCH  19  20
ATOM     20  O   UNL     1     -38.677  24.301   1.854  0.00  0.00    -0.268 OA
BRANCH  20  21
ATOM     21  P   UNL     1     -39.669  25.438   2.437  0.00  0.00    +0.473 P 
ATOM     22  O   UNL     1     -40.910  25.675   1.627  0.00  0.00    -0.227 OA
BRANCH  21  23
ATOM     23  O   UNL     1     -38.710  26.726   2.626  0.00  0.00    -0.303 OA
ATOM     24  H   UNL     1     -39.088  27.483   2.152  0.00  0.00    +0.222 HD
ENDBRANCH  21  23
BRANCH  21  25
ATOM     25  O   UNL     1     -39.928  24.940   3.953  0.00  0.00    -0.303 OA
ATOM     26  H   UNL     1     -40.846  25.129   4.204  0.00  0.00    +0.222 HD
ENDBRANCH  21  25
ENDBRANCH  20  21
ENDBRANCH  19  20
ENDBRANCH   3  19
TORSDOF 10
ENDMDL
