MODEL 1
REMARK VINA RESULT:      -6.4      0.000      0.000
REMARK  Name = 54685524
REMARK  7 active torsions:
REMARK  status: ('A' for Active; 'I' for Inactive)
REMARK    1  A    between atoms: C_1  and  C_4
REMARK    2  A    between atoms: C_1  and  C_17
REMARK    3  A    between atoms: C_1  and  C_29
REMARK    4  A    between atoms: C_5  and  O_13
REMARK    5  A    between atoms: C_18  and  O_26
REMARK    6  A    between atoms: C_29  and  O_30
REMARK    7  A    between atoms: O_30  and  C_31
REMARK                            x       y       z     vdW  Elec       q    Type
REMARK                         _______ _______ _______ _____ _____    ______ ____
ROOT
ATOM      1  C   UNL     1     -36.154  24.135   2.202  0.00  0.00    +0.162 C 
ENDROOT
BRANCH   1   4
ATOM      2  O   UNL     1     -33.714  26.997   2.630  0.00  0.00    -0.421 OA
ATOM      3  O   UNL     1     -34.773  26.107   0.823  0.00  0.00    -0.245 OA
ATOM      4  C   UNL     1     -35.246  25.093   2.924  0.00  0.00    +0.102 A 
ATOM      5  C   UNL     1     -35.011  25.102   4.252  0.00  0.00    +0.140 A 
ATOM      6  C   UNL     1     -34.096  26.078   4.846  0.00  0.00    +0.068 A 
ATOM      7  C   UNL     1     -34.577  26.087   2.035  0.00  0.00    +0.345 A 
ATOM      8  C   UNL     1     -33.471  27.000   4.014  0.00  0.00    +0.152 A 
ATOM      9  C   UNL     1     -33.810  26.135   6.217  0.00  0.00    +0.006 C 
ATOM     10  C   UNL     1     -32.584  27.962   4.500  0.00  0.00    +0.038 C 
ATOM     11  C   UNL     1     -32.924  27.093   6.722  0.00  0.00    +0.000 C 
ATOM     12  C   UNL     1     -32.311  28.005   5.864  0.00  0.00    +0.003 C 
BRANCH   5  13
ATOM     13  O   UNL     1     -35.586  24.233   5.153  0.00  0.00    -0.505 OA
ATOM     14  H   UNL     1     -36.507  24.275   5.325  0.00  0.00    +0.292 HD
ENDBRANCH   5  13
ENDBRANCH   1   4
BRANCH   1  17
ATOM     15  O   UNL     1     -39.227  25.235   0.317  0.00  0.00    -0.421 OA
ATOM     16  O   UNL     1     -37.250  24.311  -0.331  0.00  0.00    -0.245 OA
ATOM     17  C   UNL     1     -37.520  24.687   2.005  0.00  0.00    +0.102 A 
ATOM     18  C   UNL     1     -38.332  25.138   2.980  0.00  0.00    +0.140 A 
ATOM     19  C   UNL     1     -39.658  25.674   2.667  0.00  0.00    +0.068 A 
ATOM     20  C   UNL     1     -37.964  24.720   0.580  0.00  0.00    +0.345 A 
ATOM     21  C   UNL     1     -40.068  25.706   1.339  0.00  0.00    +0.152 A 
ATOM     22  C   UNL     1     -40.546  26.159   3.637  0.00  0.00    +0.006 C 
ATOM     23  C   UNL     1     -41.315  26.201   0.955  0.00  0.00    +0.038 C 
ATOM     24  C   UNL     1     -41.800  26.660   3.270  0.00  0.00    +0.000 C 
ATOM     25  C   UNL     1     -42.184  26.680   1.930  0.00  0.00    +0.003 C 
BRANCH  18  26
ATOM     26  O   UNL     1     -38.016  25.142   4.322  0.00  0.00    -0.505 OA
ATOM     27  H   UNL     1     -38.689  25.017   4.962  0.00  0.00    +0.292 HD
ENDBRANCH  18  26
ENDBRANCH   1  17
BRANCH   1  29
ATOM     28  O   UNL     1     -37.237  22.597   3.747  0.00  0.00    -0.249 OA
ATOM     29  C   UNL     1     -36.276  22.883   3.042  0.00  0.00    +0.325 C 
BRANCH  29  30
ATOM     30  O   UNL     1     -35.166  22.106   2.855  0.00  0.00    -0.448 OA
BRANCH  30  31
ATOM     31  C   UNL     1     -35.411  20.704   2.714  0.00  0.00    +0.209 C 
ATOM     32  C   UNL     1     -34.570  20.168   1.575  0.00  0.00    +0.051 C 
ENDBRANCH  30  31
ENDBRANCH  29  30
ENDBRANCH   1  29
TORSDOF 7
ENDMDL
MODEL 2
REMARK VINA RESULT:      -6.4      3.892      8.233
REMARK  Name = 54685524
REMARK  7 active torsions:
REMARK  status: ('A' for Active; 'I' for Inactive)
REMARK    1  A    between atoms: C_1  and  C_4
REMARK    2  A    between atoms: C_1  and  C_17
REMARK    3  A    between atoms: C_1  and  C_29
REMARK    4  A    between atoms: C_5  and  O_13
REMARK    5  A    between atoms: C_18  and  O_26
REMARK    6  A    between atoms: C_29  and  O_30
REMARK    7  A    between atoms: O_30  and  C_31
REMARK                            x       y       z     vdW  Elec       q    Type
REMARK                         _______ _______ _______ _____ _____    ______ ____
ROOT
ATOM      1  C   UNL     1     -32.686  27.784   2.714  0.00  0.00    +0.162 C 
ENDROOT
BRANCH   1   4
ATOM      2  O   UNL     1     -34.353  24.466   1.972  0.00  0.00    -0.421 OA
ATOM      3  O   UNL     1     -33.386  26.054   0.660  0.00  0.00    -0.245 OA
ATOM      4  C   UNL     1     -33.388  26.483   3.001  0.00  0.00    +0.102 A 
ATOM      5  C   UNL     1     -33.737  26.034   4.223  0.00  0.00    +0.140 A 
ATOM      6  C   UNL     1     -34.428  24.754   4.384  0.00  0.00    +0.068 A 
ATOM      7  C   UNL     1     -33.696  25.675   1.786  0.00  0.00    +0.345 A 
ATOM      8  C   UNL     1     -34.718  24.005   3.248  0.00  0.00    +0.152 A 
ATOM      9  C   UNL     1     -34.820  24.236   5.626  0.00  0.00    +0.006 C 
ATOM     10  C   UNL     1     -35.375  22.775   3.314  0.00  0.00    +0.038 C 
ATOM     11  C   UNL     1     -35.479  23.005   5.711  0.00  0.00    +0.000 C 
ATOM     12  C   UNL     1     -35.756  22.276   4.555  0.00  0.00    +0.003 C 
BRANCH   5  13
ATOM     13  O   UNL     1     -33.489  26.703   5.402  0.00  0.00    -0.505 OA
ATOM     14  H   UNL     1     -34.200  26.938   5.967  0.00  0.00    +0.292 HD
ENDBRANCH   5  13
ENDBRANCH   1   4
BRANCH   1  17
ATOM     15  O   UNL     1     -29.070  27.479   3.730  0.00  0.00    -0.421 OA
ATOM     16  O   UNL     1     -30.246  26.750   1.923  0.00  0.00    -0.245 OA
ATOM     17  C   UNL     1     -31.475  27.973   3.554  0.00  0.00    +0.102 A 
ATOM     18  C   UNL     1     -31.431  28.632   4.728  0.00  0.00    +0.140 A 
ATOM     19  C   UNL     1     -30.180  28.748   5.480  0.00  0.00    +0.068 A 
ATOM     20  C   UNL     1     -30.240  27.352   2.993  0.00  0.00    +0.345 A 
ATOM     21  C   UNL     1     -29.031  28.165   4.956  0.00  0.00    +0.152 A 
ATOM     22  C   UNL     1     -30.073  29.418   6.706  0.00  0.00    +0.006 C 
ATOM     23  C   UNL     1     -27.799  28.228   5.608  0.00  0.00    +0.038 C 
ATOM     24  C   UNL     1     -28.845  29.490   7.374  0.00  0.00    +0.000 C 
ATOM     25  C   UNL     1     -27.709  28.896   6.825  0.00  0.00    +0.003 C 
BRANCH  18  26
ATOM     26  O   UNL     1     -32.514  29.244   5.323  0.00  0.00    -0.505 OA
ATOM     27  H   UNL     1     -32.543  29.343   6.255  0.00  0.00    +0.292 HD
ENDBRANCH  18  26
ENDBRANCH   1  17
BRANCH   1  29
ATOM     28  O   UNL     1     -34.684  28.798   3.664  0.00  0.00    -0.249 OA
ATOM     29  C   UNL     1     -33.647  28.910   3.020  0.00  0.00    +0.325 C 
BRANCH  29  30
ATOM     30  O   UNL     1     -33.152  30.076   2.504  0.00  0.00    -0.448 OA
BRANCH  30  31
ATOM     31  C   UNL     1     -33.915  31.252   2.793  0.00  0.00    +0.209 C 
ATOM     32  C   UNL     1     -33.063  32.472   2.520  0.00  0.00    +0.051 C 
ENDBRANCH  30  31
ENDBRANCH  29  30
ENDBRANCH   1  29
TORSDOF 7
ENDMDL
MODEL 3
REMARK VINA RESULT:      -6.4      2.351      7.212
REMARK  Name = 54685524
REMARK  7 active torsions:
REMARK  status: ('A' for Active; 'I' for Inactive)
REMARK    1  A    between atoms: C_1  and  C_4
REMARK    2  A    between atoms: C_1  and  C_17
REMARK    3  A    between atoms: C_1  and  C_29
REMARK    4  A    between atoms: C_5  and  O_13
REMARK    5  A    between atoms: C_18  and  O_26
REMARK    6  A    between atoms: C_29  and  O_30
REMARK    7  A    between atoms: O_30  and  C_31
REMARK                            x       y       z     vdW  Elec       q    Type
REMARK                         _______ _______ _______ _____ _____    ______ ____
ROOT
ATOM      1  C   UNL     1     -39.303  25.189   0.936  0.00  0.00    +0.162 C 
ENDROOT
BRANCH   1   4
ATOM      2  O   UNL     1     -43.059  24.727   1.021  0.00  0.00    -0.421 OA
ATOM      3  O   UNL     1     -41.419  23.924  -0.336  0.00  0.00    -0.245 OA
ATOM      4  C   UNL     1     -40.715  25.356   1.430  0.00  0.00    +0.102 A 
ATOM      5  C   UNL     1     -41.093  26.098   2.490  0.00  0.00    +0.140 A 
ATOM      6  C   UNL     1     -42.502  26.196   2.874  0.00  0.00    +0.068 A 
ATOM      7  C   UNL     1     -41.732  24.612   0.631  0.00  0.00    +0.345 A 
ATOM      8  C   UNL     1     -43.448  25.505   2.124  0.00  0.00    +0.152 A 
ATOM      9  C   UNL     1     -42.956  26.953   3.963  0.00  0.00    +0.006 C 
ATOM     10  C   UNL     1     -44.811  25.547   2.423  0.00  0.00    +0.038 C 
ATOM     11  C   UNL     1     -44.319  27.006   4.276  0.00  0.00    +0.000 C 
ATOM     12  C   UNL     1     -45.245  26.303   3.506  0.00  0.00    +0.003 C 
BRANCH   5  13
ATOM     13  O   UNL     1     -40.230  26.812   3.292  0.00  0.00    -0.505 OA
ATOM     14  H   UNL     1     -39.521  26.376   3.723  0.00  0.00    +0.292 HD
ENDBRANCH   5  13
ENDBRANCH   1   4
BRANCH   1  17
ATOM     15  O   UNL     1     -37.467  22.983   3.379  0.00  0.00    -0.421 OA
ATOM     16  O   UNL     1     -39.013  22.566   1.762  0.00  0.00    -0.245 OA
ATOM     17  C   UNL     1     -38.357  24.839   2.028  0.00  0.00    +0.102 A 
ATOM     18  C   UNL     1     -37.579  25.709   2.700  0.00  0.00    +0.140 A 
ATOM     19  C   UNL     1     -36.689  25.252   3.770  0.00  0.00    +0.068 A 
ATOM     20  C   UNL     1     -38.321  23.385   2.360  0.00  0.00    +0.345 A 
ATOM     21  C   UNL     1     -36.660  23.897   4.079  0.00  0.00    +0.152 A 
ATOM     22  C   UNL     1     -35.859  26.109   4.505  0.00  0.00    +0.006 C 
ATOM     23  C   UNL     1     -35.841  23.378   5.084  0.00  0.00    +0.038 C 
ATOM     24  C   UNL     1     -35.033  25.607   5.517  0.00  0.00    +0.000 C 
ATOM     25  C   UNL     1     -35.025  24.242   5.805  0.00  0.00    +0.003 C 
BRANCH  18  26
ATOM     26  O   UNL     1     -37.537  27.066   2.463  0.00  0.00    -0.505 OA
ATOM     27  H   UNL     1     -38.292  27.595   2.632  0.00  0.00    +0.292 HD
ENDBRANCH  18  26
ENDBRANCH   1  17
BRANCH   1  29
ATOM     28  O   UNL     1     -39.380  27.593   0.562  0.00  0.00    -0.249 OA
ATOM     29  C   UNL     1     -38.858  26.506   0.340  0.00  0.00    +0.325 C 
BRANCH  29  30
ATOM     30  O   UNL     1     -37.760  26.296  -0.446  0.00  0.00    -0.448 OA
BRANCH  30  31
ATOM     31  C   UNL     1     -37.152  27.474  -0.985  0.00  0.00    +0.209 C 
ATOM     32  C   UNL     1     -35.735  27.581  -0.464  0.00  0.00    +0.051 C 
ENDBRANCH  30  31
ENDBRANCH  29  30
ENDBRANCH   1  29
TORSDOF 7
ENDMDL
MODEL 4
REMARK VINA RESULT:      -6.3      3.119      6.074
REMARK  Name = 54685524
REMARK  7 active torsions:
REMARK  status: ('A' for Active; 'I' for Inactive)
REMARK    1  A    between atoms: C_1  and  C_4
REMARK    2  A    between atoms: C_1  and  C_17
REMARK    3  A    between atoms: C_1  and  C_29
REMARK    4  A    between atoms: C_5  and  O_13
REMARK    5  A    between atoms: C_18  and  O_26
REMARK    6  A    between atoms: C_29  and  O_30
REMARK    7  A    between atoms: O_30  and  C_31
REMARK                            x       y       z     vdW  Elec       q    Type
REMARK                         _______ _______ _______ _____ _____    ______ ____
ROOT
ATOM      1  C   UNL     1     -35.767  21.846   0.364  0.00  0.00    +0.162 C 
ENDROOT
BRANCH   1   4
ATOM      2  O   UNL     1     -32.143  21.378  -0.627  0.00  0.00    -0.421 OA
ATOM      3  O   UNL     1     -33.671  23.015  -1.030  0.00  0.00    -0.245 OA
ATOM      4  C   UNL     1     -34.420  21.179   0.288  0.00  0.00    +0.102 A 
ATOM      5  C   UNL     1     -34.094  20.002   0.858  0.00  0.00    +0.140 A 
ATOM      6  C   UNL     1     -32.750  19.441   0.709  0.00  0.00    +0.068 A 
ATOM      7  C   UNL     1     -33.407  21.938  -0.503  0.00  0.00    +0.345 A 
ATOM      8  C   UNL     1     -31.811  20.149  -0.034  0.00  0.00    +0.152 A 
ATOM      9  C   UNL     1     -32.354  18.221   1.274  0.00  0.00    +0.006 C 
ATOM     10  C   UNL     1     -30.509  19.683  -0.225  0.00  0.00    +0.038 C 
ATOM     11  C   UNL     1     -31.053  17.740   1.093  0.00  0.00    +0.000 C 
ATOM     12  C   UNL     1     -30.131  18.471   0.343  0.00  0.00    +0.003 C 
BRANCH   5  13
ATOM     13  O   UNL     1     -34.955  19.234   1.612  0.00  0.00    -0.505 OA
ATOM     14  H   UNL     1     -35.006  18.309   1.469  0.00  0.00    +0.292 HD
ENDBRANCH   5  13
ENDBRANCH   1   4
BRANCH   1  17
ATOM     15  O   UNL     1     -36.355  25.214   1.953  0.00  0.00    -0.421 OA
ATOM     16  O   UNL     1     -36.556  24.441  -0.178  0.00  0.00    -0.245 OA
ATOM     17  C   UNL     1     -35.838  22.859   1.450  0.00  0.00    +0.102 A 
ATOM     18  C   UNL     1     -35.544  22.641   2.746  0.00  0.00    +0.140 A 
ATOM     19  C   UNL     1     -35.639  23.720   3.731  0.00  0.00    +0.068 A 
ATOM     20  C   UNL     1     -36.275  24.211   0.994  0.00  0.00    +0.345 A 
ATOM     21  C   UNL     1     -36.044  24.980   3.303  0.00  0.00    +0.152 A 
ATOM     22  C   UNL     1     -35.344  23.555   5.091  0.00  0.00    +0.006 C 
ATOM     23  C   UNL     1     -36.160  26.063   4.176  0.00  0.00    +0.038 C 
ATOM     24  C   UNL     1     -35.454  24.630   5.981  0.00  0.00    +0.000 C 
ATOM     25  C   UNL     1     -35.862  25.883   5.523  0.00  0.00    +0.003 C 
BRANCH  18  26
ATOM     26  O   UNL     1     -35.140  21.429   3.264  0.00  0.00    -0.505 OA
ATOM     27  H   UNL     1     -34.401  21.389   3.839  0.00  0.00    +0.292 HD
ENDBRANCH  18  26
ENDBRANCH   1  17
BRANCH   1  29
ATOM     28  O   UNL     1     -37.410  20.658   1.709  0.00  0.00    -0.249 OA
ATOM     29  C   UNL     1     -36.800  20.781   0.654  0.00  0.00    +0.325 C 
BRANCH  29  30
ATOM     30  O   UNL     1     -36.974  20.009  -0.461  0.00  0.00    -0.448 OA
BRANCH  30  31
ATOM     31  C   UNL     1     -38.023  19.039  -0.383  0.00  0.00    +0.209 C 
ATOM     32  C   UNL     1     -37.414  17.653  -0.371  0.00  0.00    +0.051 C 
ENDBRANCH  30  31
ENDBRANCH  29  30
ENDBRANCH   1  29
TORSDOF 7
ENDMDL
MODEL 5
REMARK VINA RESULT:      -6.3      1.432      5.374
REMARK  Name = 54685524
REMARK  7 active torsions:
REMARK  status: ('A' for Active; 'I' for Inactive)
REMARK    1  A    between atoms: C_1  and  C_4
REMARK    2  A    between atoms: C_1  and  C_17
REMARK    3  A    between atoms: C_1  and  C_29
REMARK    4  A    between atoms: C_5  and  O_13
REMARK    5  A    between atoms: C_18  and  O_26
REMARK    6  A    between atoms: C_29  and  O_30
REMARK    7  A    between atoms: O_30  and  C_31
REMARK                            x       y       z     vdW  Elec       q    Type
REMARK                         _______ _______ _______ _____ _____    ______ ____
ROOT
ATOM      1  C   UNL     1     -36.581  24.768   2.867  0.00  0.00    +0.162 C 
ENDROOT
BRANCH   1   4
ATOM      2  O   UNL     1     -34.612  25.397   6.039  0.00  0.00    -0.421 OA
ATOM      3  O   UNL     1     -36.241  23.908   5.483  0.00  0.00    -0.245 OA
ATOM      4  C   UNL     1     -35.568  25.418   3.770  0.00  0.00    +0.102 A 
ATOM      5  C   UNL     1     -34.754  26.437   3.431  0.00  0.00    +0.140 A 
ATOM      6  C   UNL     1     -33.810  27.000   4.399  0.00  0.00    +0.068 A 
ATOM      7  C   UNL     1     -35.517  24.840   5.145  0.00  0.00    +0.345 A 
ATOM      8  C   UNL     1     -33.769  26.461   5.680  0.00  0.00    +0.152 A 
ATOM      9  C   UNL     1     -32.942  28.060   4.105  0.00  0.00    +0.006 C 
ATOM     10  C   UNL     1     -32.900  26.941   6.662  0.00  0.00    +0.038 C 
ATOM     11  C   UNL     1     -32.065  28.553   5.077  0.00  0.00    +0.000 C 
ATOM     12  C   UNL     1     -32.044  27.994   6.355  0.00  0.00    +0.003 C 
BRANCH   5  13
ATOM     13  O   UNL     1     -34.722  27.031   2.188  0.00  0.00    -0.505 OA
ATOM     14  H   UNL     1     -35.522  27.248   1.750  0.00  0.00    +0.292 HD
ENDBRANCH   5  13
ENDBRANCH   1   4
BRANCH   1  17
ATOM     15  O   UNL     1     -36.562  21.128   1.891  0.00  0.00    -0.421 OA
ATOM     16  O   UNL     1     -38.048  22.428   3.021  0.00  0.00    -0.245 OA
ATOM     17  C   UNL     1     -36.072  23.513   2.254  0.00  0.00    +0.102 A 
ATOM     18  C   UNL     1     -34.907  23.381   1.592  0.00  0.00    +0.140 A 
ATOM     19  C   UNL     1     -34.499  22.088   1.037  0.00  0.00    +0.068 A 
ATOM     20  C   UNL     1     -36.977  22.339   2.428  0.00  0.00    +0.345 A 
ATOM     21  C   UNL     1     -35.343  20.996   1.204  0.00  0.00    +0.152 A 
ATOM     22  C   UNL     1     -33.299  21.888   0.341  0.00  0.00    +0.006 C 
ATOM     23  C   UNL     1     -35.030  19.729   0.707  0.00  0.00    +0.038 C 
ATOM     24  C   UNL     1     -32.969  20.625  -0.163  0.00  0.00    +0.000 C 
ATOM     25  C   UNL     1     -33.834  19.547   0.020  0.00  0.00    +0.003 C 
BRANCH  18  26
ATOM     26  O   UNL     1     -34.010  24.405   1.373  0.00  0.00    -0.505 OA
ATOM     27  H   UNL     1     -33.509  24.427   0.582  0.00  0.00    +0.292 HD
ENDBRANCH  18  26
ENDBRANCH   1  17
BRANCH   1  29
ATOM     28  O   UNL     1     -36.445  25.676   0.613  0.00  0.00    -0.249 OA
ATOM     29  C   UNL     1     -36.900  25.736   1.749  0.00  0.00    +0.325 C 
BRANCH  29  30
ATOM     30  O   UNL     1     -37.805  26.657   2.197  0.00  0.00    -0.448 OA
BRANCH  30  31
ATOM     31  C   UNL     1     -39.044  26.124   2.675  0.00  0.00    +0.209 C 
ATOM     32  C   UNL     1     -40.047  26.115   1.542  0.00  0.00    +0.051 C 
ENDBRANCH  30  31
ENDBRANCH  29  30
ENDBRANCH   1  29
TORSDOF 7
ENDMDL
MODEL 6
REMARK VINA RESULT:      -6.2      2.900      6.808
REMARK  Name = 54685524
REMARK  7 active torsions:
REMARK  status: ('A' for Active; 'I' for Inactive)
REMARK    1  A    between atoms: C_1  and  C_4
REMARK    2  A    between atoms: C_1  and  C_17
REMARK    3  A    between atoms: C_1  and  C_29
REMARK    4  A    between atoms: C_5  and  O_13
REMARK    5  A    between atoms: C_18  and  O_26
REMARK    6  A    between atoms: C_29  and  O_30
REMARK    7  A    between atoms: O_30  and  C_31
REMARK                            x       y       z     vdW  Elec       q    Type
REMARK                         _______ _______ _______ _____ _____    ______ ____
ROOT
ATOM      1  C   UNL     1     -35.881  22.165   0.853  0.00  0.00    +0.162 C 
ENDROOT
BRANCH   1   4
ATOM      2  O   UNL     1     -37.105  23.811   4.035  0.00  0.00    -0.421 OA
ATOM      3  O   UNL     1     -38.017  22.280   2.620  0.00  0.00    -0.245 OA
ATOM      4  C   UNL     1     -35.837  23.058   2.063  0.00  0.00    +0.102 A 
ATOM      5  C   UNL     1     -34.811  23.861   2.409  0.00  0.00    +0.140 A 
ATOM      6  C   UNL     1     -34.883  24.698   3.609  0.00  0.00    +0.068 A 
ATOM      7  C   UNL     1     -37.068  23.005   2.905  0.00  0.00    +0.345 A 
ATOM      8  C   UNL     1     -36.034  24.649   4.388  0.00  0.00    +0.152 A 
ATOM      9  C   UNL     1     -33.851  25.554   4.018  0.00  0.00    +0.006 C 
ATOM     10  C   UNL     1     -36.183  25.415   5.545  0.00  0.00    +0.038 C 
ATOM     11  C   UNL     1     -33.984  26.329   5.175  0.00  0.00    +0.000 C 
ATOM     12  C   UNL     1     -35.149  26.260   5.937  0.00  0.00    +0.003 C 
BRANCH   5  13
ATOM     13  O   UNL     1     -33.633  23.973   1.703  0.00  0.00    -0.505 OA
ATOM     14  H   UNL     1     -33.607  24.475   0.912  0.00  0.00    +0.292 HD
ENDBRANCH   5  13
ENDBRANCH   1   4
BRANCH   1  17
ATOM     15  O   UNL     1     -33.908  19.040   1.592  0.00  0.00    -0.421 OA
ATOM     16  O   UNL     1     -35.983  19.750   2.197  0.00  0.00    -0.245 OA
ATOM     17  C   UNL     1     -34.734  21.221   0.803  0.00  0.00    +0.102 A 
ATOM     18  C   UNL     1     -33.582  21.422   0.135  0.00  0.00    +0.140 A 
ATOM     19  C   UNL     1     -32.510  20.424   0.165  0.00  0.00    +0.068 A 
ATOM     20  C   UNL     1     -34.942  19.967   1.583  0.00  0.00    +0.345 A 
ATOM     21  C   UNL     1     -32.707  19.257   0.896  0.00  0.00    +0.152 A 
ATOM     22  C   UNL     1     -31.290  20.578  -0.506  0.00  0.00    +0.006 C 
ATOM     23  C   UNL     1     -31.737  18.256   0.977  0.00  0.00    +0.038 C 
ATOM     24  C   UNL     1     -30.306  19.584  -0.435  0.00  0.00    +0.000 C 
ATOM     25  C   UNL     1     -30.531  18.425   0.306  0.00  0.00    +0.003 C 
BRANCH  18  26
ATOM     26  O   UNL     1     -33.298  22.542  -0.618  0.00  0.00    -0.505 OA
ATOM     27  H   UNL     1     -32.476  22.611  -1.063  0.00  0.00    +0.292 HD
ENDBRANCH  18  26
ENDBRANCH   1  17
BRANCH   1  29
ATOM     28  O   UNL     1     -35.425  24.204  -0.396  0.00  0.00    -0.249 OA
ATOM     29  C   UNL     1     -35.815  23.042  -0.377  0.00  0.00    +0.325 C 
BRANCH  29  30
ATOM     30  O   UNL     1     -36.219  22.321  -1.467  0.00  0.00    -0.448 OA
BRANCH  30  31
ATOM     31  C   UNL     1     -37.561  21.828  -1.418  0.00  0.00    +0.209 C 
ATOM     32  C   UNL     1     -38.517  22.976  -1.659  0.00  0.00    +0.051 C 
ENDBRANCH  30  31
ENDBRANCH  29  30
ENDBRANCH   1  29
TORSDOF 7
ENDMDL
MODEL 7
REMARK VINA RESULT:      -6.2      3.850      6.645
REMARK  Name = 54685524
REMARK  7 active torsions:
REMARK  status: ('A' for Active; 'I' for Inactive)
REMARK    1  A    between atoms: C_1  and  C_4
REMARK    2  A    between atoms: C_1  and  C_17
REMARK    3  A    between atoms: C_1  and  C_29
REMARK    4  A    between atoms: C_5  and  O_13
REMARK    5  A    between atoms: C_18  and  O_26
REMARK    6  A    between atoms: C_29  and  O_30
REMARK    7  A    between atoms: O_30  and  C_31
REMARK                            x       y       z     vdW  Elec       q    Type
REMARK                         _______ _______ _______ _____ _____    ______ ____
ROOT
ATOM      1  C   UNL     1     -32.153  28.034   3.297  0.00  0.00    +0.162 C 
ENDROOT
BRANCH   1   4
ATOM      2  O   UNL     1     -32.646  31.106   1.140  0.00  0.00    -0.421 OA
ATOM      3  O   UNL     1     -30.852  29.775   1.572  0.00  0.00    -0.245 OA
ATOM      4  C   UNL     1     -32.887  29.180   2.654  0.00  0.00    +0.102 A 
ATOM      5  C   UNL     1     -34.190  29.476   2.833  0.00  0.00    +0.140 A 
ATOM      6  C   UNL     1     -34.798  30.627   2.162  0.00  0.00    +0.068 A 
ATOM      7  C   UNL     1     -32.040  30.022   1.760  0.00  0.00    +0.345 A 
ATOM      8  C   UNL     1     -34.004  31.411   1.333  0.00  0.00    +0.152 A 
ATOM      9  C   UNL     1     -36.144  30.986   2.311  0.00  0.00    +0.006 C 
ATOM     10  C   UNL     1     -34.506  32.526   0.658  0.00  0.00    +0.038 C 
ATOM     11  C   UNL     1     -36.664  32.100   1.642  0.00  0.00    +0.000 C 
ATOM     12  C   UNL     1     -35.844  32.869   0.816  0.00  0.00    +0.003 C 
BRANCH   5  13
ATOM     13  O   UNL     1     -35.053  28.756   3.630  0.00  0.00    -0.505 OA
ATOM     14  H   UNL     1     -34.997  27.820   3.656  0.00  0.00    +0.292 HD
ENDBRANCH   5  13
ENDBRANCH   1   4
BRANCH   1  17
ATOM     15  O   UNL     1     -33.794  24.881   2.042  0.00  0.00    -0.421 OA
ATOM     16  O   UNL     1     -32.444  26.429   1.063  0.00  0.00    -0.245 OA
ATOM     17  C   UNL     1     -32.974  26.796   3.355  0.00  0.00    +0.102 A 
ATOM     18  C   UNL     1     -33.630  26.341   4.439  0.00  0.00    +0.140 A 
ATOM     19  C   UNL     1     -34.421  25.110   4.379  0.00  0.00    +0.068 A 
ATOM     20  C   UNL     1     -33.036  26.044   2.067  0.00  0.00    +0.345 A 
ATOM     21  C   UNL     1     -34.480  24.414   3.177  0.00  0.00    +0.152 A 
ATOM     22  C   UNL     1     -35.128  24.590   5.471  0.00  0.00    +0.006 C 
ATOM     23  C   UNL     1     -35.211  23.233   3.033  0.00  0.00    +0.038 C 
ATOM     24  C   UNL     1     -35.867  23.407   5.346  0.00  0.00    +0.000 C 
ATOM     25  C   UNL     1     -35.908  22.731   4.127  0.00  0.00    +0.003 C 
BRANCH  18  26
ATOM     26  O   UNL     1     -33.629  26.959   5.672  0.00  0.00    -0.505 OA
ATOM     27  H   UNL     1     -33.063  27.690   5.829  0.00  0.00    +0.292 HD
ENDBRANCH  18  26
ENDBRANCH   1  17
BRANCH   1  29
ATOM     28  O   UNL     1     -30.955  27.902   5.411  0.00  0.00    -0.249 OA
ATOM     29  C   UNL     1     -31.812  28.433   4.715  0.00  0.00    +0.325 C 
BRANCH  29  30
ATOM     30  O   UNL     1     -32.581  29.505   5.077  0.00  0.00    -0.448 OA
BRANCH  30  31
ATOM     31  C   UNL     1     -31.941  30.465   5.924  0.00  0.00    +0.209 C 
ATOM     32  C   UNL     1     -31.130  31.414   5.068  0.00  0.00    +0.051 C 
ENDBRANCH  30  31
ENDBRANCH  29  30
ENDBRANCH   1  29
TORSDOF 7
ENDMDL
MODEL 8
REMARK VINA RESULT:      -6.2      2.346      3.664
REMARK  Name = 54685524
REMARK  7 active torsions:
REMARK  status: ('A' for Active; 'I' for Inactive)
REMARK    1  A    between atoms: C_1  and  C_4
REMARK    2  A    between atoms: C_1  and  C_17
REMARK    3  A    between atoms: C_1  and  C_29
REMARK    4  A    between atoms: C_5  and  O_13
REMARK    5  A    between atoms: C_18  and  O_26
REMARK    6  A    between atoms: C_29  and  O_30
REMARK    7  A    between atoms: O_30  and  C_31
REMARK                            x       y       z     vdW  Elec       q    Type
REMARK                         _______ _______ _______ _____ _____    ______ ____
ROOT
ATOM      1  C   UNL     1     -35.260  25.372   3.852  0.00  0.00    +0.162 C 
ENDROOT
BRANCH   1   4
ATOM      2  O   UNL     1     -33.092  28.476   3.887  0.00  0.00    -0.421 OA
ATOM      3  O   UNL     1     -32.820  26.373   4.713  0.00  0.00    -0.245 OA
ATOM      4  C   UNL     1     -34.862  26.795   3.566  0.00  0.00    +0.102 A 
ATOM      5  C   UNL     1     -35.605  27.698   2.895  0.00  0.00    +0.140 A 
ATOM      6  C   UNL     1     -35.120  29.063   2.685  0.00  0.00    +0.068 A 
ATOM      7  C   UNL     1     -33.522  27.174   4.103  0.00  0.00    +0.345 A 
ATOM      8  C   UNL     1     -33.873  29.413   3.190  0.00  0.00    +0.152 A 
ATOM      9  C   UNL     1     -35.847  30.046   1.999  0.00  0.00    +0.006 C 
ATOM     10  C   UNL     1     -33.338  30.693   3.034  0.00  0.00    +0.038 C 
ATOM     11  C   UNL     1     -35.326  31.333   1.833  0.00  0.00    +0.000 C 
ATOM     12  C   UNL     1     -34.073  31.657   2.351  0.00  0.00    +0.003 C 
BRANCH   5  13
ATOM     13  O   UNL     1     -36.848  27.442   2.357  0.00  0.00    -0.505 OA
ATOM     14  H   UNL     1     -37.135  27.910   1.596  0.00  0.00    +0.292 HD
ENDBRANCH   5  13
ENDBRANCH   1   4
BRANCH   1  17
ATOM     15  O   UNL     1     -36.387  23.819   0.608  0.00  0.00    -0.421 OA
ATOM     16  O   UNL     1     -34.342  24.349   1.452  0.00  0.00    -0.245 OA
ATOM     17  C   UNL     1     -36.211  24.836   2.844  0.00  0.00    +0.102 A 
ATOM     18  C   UNL     1     -37.551  24.789   2.977  0.00  0.00    +0.140 A 
ATOM     19  C   UNL     1     -38.394  24.247   1.910  0.00  0.00    +0.068 A 
ATOM     20  C   UNL     1     -35.560  24.326   1.602  0.00  0.00    +0.345 A 
ATOM     21  C   UNL     1     -37.784  23.776   0.752  0.00  0.00    +0.152 A 
ATOM     22  C   UNL     1     -39.792  24.174   1.989  0.00  0.00    +0.006 C 
ATOM     23  C   UNL     1     -38.515  23.244  -0.313  0.00  0.00    +0.038 C 
ATOM     24  C   UNL     1     -40.540  23.645   0.931  0.00  0.00    +0.000 C 
ATOM     25  C   UNL     1     -39.901  23.181  -0.219  0.00  0.00    +0.003 C 
BRANCH  18  26
ATOM     26  O   UNL     1     -38.243  25.227   4.085  0.00  0.00    -0.505 OA
ATOM     27  H   UNL     1     -38.157  26.115   4.370  0.00  0.00    +0.292 HD
ENDBRANCH  18  26
ENDBRANCH   1  17
BRANCH   1  29
ATOM     28  O   UNL     1     -36.319  26.326   5.825  0.00  0.00    -0.249 OA
ATOM     29  C   UNL     1     -35.944  25.340   5.200  0.00  0.00    +0.325 C 
BRANCH  29  30
ATOM     30  O   UNL     1     -36.116  24.040   5.587  0.00  0.00    -0.448 OA
BRANCH  30  31
ATOM     31  C   UNL     1     -34.919  23.262   5.684  0.00  0.00    +0.209 C 
ATOM     32  C   UNL     1     -35.279  21.853   6.104  0.00  0.00    +0.051 C 
ENDBRANCH  30  31
ENDBRANCH  29  30
ENDBRANCH   1  29
TORSDOF 7
ENDMDL
MODEL 9
REMARK VINA RESULT:      -6.1      2.186      5.548
REMARK  Name = 54685524
REMARK  7 active torsions:
REMARK  status: ('A' for Active; 'I' for Inactive)
REMARK    1  A    between atoms: C_1  and  C_4
REMARK    2  A    between atoms: C_1  and  C_17
REMARK    3  A    between atoms: C_1  and  C_29
REMARK    4  A    between atoms: C_5  and  O_13
REMARK    5  A    between atoms: C_18  and  O_26
REMARK    6  A    between atoms: C_29  and  O_30
REMARK    7  A    between atoms: O_30  and  C_31
REMARK                            x       y       z     vdW  Elec       q    Type
REMARK                         _______ _______ _______ _____ _____    ______ ____
ROOT
ATOM      1  C   UNL     1     -36.647  22.665   3.274  0.00  0.00    +0.162 C 
ENDROOT
BRANCH   1   4
ATOM      2  O   UNL     1     -34.806  24.678   5.899  0.00  0.00    -0.421 OA
ATOM      3  O   UNL     1     -36.140  22.836   5.996  0.00  0.00    -0.245 OA
ATOM      4  C   UNL     1     -35.764  23.749   3.830  0.00  0.00    +0.102 A 
ATOM      5  C   UNL     1     -35.151  24.709   3.109  0.00  0.00    +0.140 A 
ATOM      6  C   UNL     1     -34.320  25.724   3.761  0.00  0.00    +0.068 A 
ATOM      7  C   UNL     1     -35.599  23.701   5.313  0.00  0.00    +0.345 A 
ATOM      8  C   UNL     1     -34.173  25.678   5.143  0.00  0.00    +0.152 A 
ATOM      9  C   UNL     1     -33.662  26.747   3.066  0.00  0.00    +0.006 C 
ATOM     10  C   UNL     1     -33.400  26.608   5.841  0.00  0.00    +0.038 C 
ATOM     11  C   UNL     1     -32.883  27.687   3.749  0.00  0.00    +0.000 C 
ATOM     12  C   UNL     1     -32.753  27.617   5.136  0.00  0.00    +0.003 C 
BRANCH   5  13
ATOM     13  O   UNL     1     -35.236  24.832   1.739  0.00  0.00    -0.505 OA
ATOM     14  H   UNL     1     -34.502  25.151   1.250  0.00  0.00    +0.292 HD
ENDBRANCH   5  13
ENDBRANCH   1   4
BRANCH   1  17
ATOM     15  O   UNL     1     -34.487  19.919   1.860  0.00  0.00    -0.421 OA
ATOM     16  O   UNL     1     -35.101  20.483   3.978  0.00  0.00    -0.245 OA
ATOM     17  C   UNL     1     -35.963  21.855   2.233  0.00  0.00    +0.102 A 
ATOM     18  C   UNL     1     -36.015  22.077   0.906  0.00  0.00    +0.140 A 
ATOM     19  C   UNL     1     -35.289  21.217  -0.031  0.00  0.00    +0.068 A 
ATOM     20  C   UNL     1     -35.164  20.716   2.774  0.00  0.00    +0.345 A 
ATOM     21  C   UNL     1     -34.543  20.159   0.477  0.00  0.00    +0.152 A 
ATOM     22  C   UNL     1     -35.303  21.401  -1.420  0.00  0.00    +0.006 C 
ATOM     23  C   UNL     1     -33.821  19.293  -0.346  0.00  0.00    +0.038 C 
ATOM     24  C   UNL     1     -34.584  20.542  -2.261  0.00  0.00    +0.000 C 
ATOM     25  C   UNL     1     -33.844  19.489  -1.723  0.00  0.00    +0.003 C 
BRANCH  18  26
ATOM     26  O   UNL     1     -36.729  23.095   0.310  0.00  0.00    -0.505 OA
ATOM     27  H   UNL     1     -36.981  23.027  -0.590  0.00  0.00    +0.292 HD
ENDBRANCH  18  26
ENDBRANCH   1  17
BRANCH   1  29
ATOM     28  O   UNL     1     -37.950  24.520   2.387  0.00  0.00    -0.249 OA
ATOM     29  C   UNL     1     -37.849  23.324   2.635  0.00  0.00    +0.325 C 
BRANCH  29  30
ATOM     30  O   UNL     1     -38.782  22.368   2.341  0.00  0.00    -0.448 OA
BRANCH  30  31
ATOM     31  C   UNL     1     -39.951  22.836   1.661  0.00  0.00    +0.209 C 
ATOM     32  C   UNL     1     -40.108  22.069   0.365  0.00  0.00    +0.051 C 
ENDBRANCH  30  31
ENDBRANCH  29  30
ENDBRANCH   1  29
TORSDOF 7
ENDMDL
