MODEL 1
REMARK VINA RESULT:      -6.7      0.000      0.000
REMARK  Name = 21593622
REMARK  9 active torsions:
REMARK  status: ('A' for Active; 'I' for Inactive)
REMARK    1  A    between atoms: C_6  and  O_24
REMARK    2  A    between atoms: C_11  and  C_21
REMARK    3  A    between atoms: C_21  and  O_22
REMARK    4  A    between atoms: O_24  and  C_26
REMARK    5  A    between atoms: C_27  and  O_31
REMARK    6  A    between atoms: C_28  and  O_33
REMARK    7  A    between atoms: C_29  and  C_37
REMARK    8  A    between atoms: C_30  and  O_35
REMARK    9  A    between atoms: C_37  and  O_38
REMARK                            x       y       z     vdW  Elec       q    Type
REMARK                         _______ _______ _______ _____ _____    ______ ____
ROOT
ATOM      1  C   UNL     1     -37.821  20.499  -0.136  0.00  0.00    +0.006 C 
ATOM      2  C   UNL     1     -36.568  20.999  -0.939  0.00  0.00    +0.000 C 
ATOM      3  C   UNL     1     -35.296  20.044  -0.920  0.00  0.00    +0.001 C 
ATOM      4  C   UNL     1     -35.756  18.574  -1.206  0.00  0.00    +0.010 C 
ATOM      5  C   UNL     1     -37.714  20.837   1.358  0.00  0.00    +0.032 C 
ATOM      6  C   UNL     1     -37.840  22.360   1.339  0.00  0.00    +0.110 C 
ATOM      7  C   UNL     1     -38.105  19.016  -0.393  0.00  0.00    +0.000 C 
ATOM      8  C   UNL     1     -36.242  22.494  -0.655  0.00  0.00    +0.003 C 
ATOM      9  C   UNL     1     -39.083  21.339  -0.515  0.00  0.00    +0.024 C 
ATOM     10  C   UNL     1     -36.878  18.127  -0.248  0.00  0.00    +0.001 C 
ATOM     11  C   UNL     1     -34.588  17.535  -1.337  0.00  0.00    +0.089 C 
ATOM     12  C   UNL     1     -34.323  20.497  -2.066  0.00  0.00    +0.000 C 
ATOM     13  C   UNL     1     -36.561  22.977   0.766  0.00  0.00    +0.031 C 
ATOM     14  C   UNL     1     -39.004  22.541   0.395  0.00  0.00    -0.020 C 
ATOM     15  C   UNL     1     -34.515  20.147   0.410  0.00  0.00    +0.000 C 
ATOM     16  C   UNL     1     -33.327  18.160  -1.978  0.00  0.00    +0.011 C 
ATOM     17  C   UNL     1     -33.660  19.361  -2.849  0.00  0.00    +0.001 C 
ATOM     18  C   UNL     1     -35.046  16.344  -2.209  0.00  0.00    +0.011 C 
ATOM     19  C   UNL     1     -39.866  23.565   0.371  0.00  0.00    -0.007 C 
ENDROOT
BRANCH  11  21
ATOM     20  O   UNL     1     -33.325  17.371   0.732  0.00  0.00    -0.250 OA
ATOM     21  C   UNL     1     -34.212  16.948   0.005  0.00  0.00    +0.313 C 
BRANCH  21  22
ATOM     22  O   UNL     1     -34.994  15.881   0.297  0.00  0.00    -0.480 OA
ATOM     23  H   UNL     1     -34.618  15.118   0.691  0.00  0.00    +0.295 HD
ENDBRANCH  21  22
ENDBRANCH  11  21
BRANCH   6  24
ATOM     24  O   UNL     1     -38.108  22.866   2.632  0.00  0.00    -0.330 OA
BRANCH  24  26
ATOM     25  O   UNL     1     -36.500  22.623   4.305  0.00  0.00    -0.326 OA
ATOM     26  C   UNL     1     -36.944  23.441   3.226  0.00  0.00    +0.266 C 
ATOM     27  C   UNL     1     -37.315  24.836   3.729  0.00  0.00    +0.196 C 
ATOM     28  C   UNL     1     -36.165  25.468   4.515  0.00  0.00    +0.172 C 
ATOM     29  C   UNL     1     -35.320  23.133   4.929  0.00  0.00    +0.176 C 
ATOM     30  C   UNL     1     -35.609  24.497   5.557  0.00  0.00    +0.169 C 
BRANCH  27  31
ATOM     31  O   UNL     1     -37.620  25.653   2.599  0.00  0.00    -0.378 OA
ATOM     32  H   UNL     1     -36.866  25.653   1.988  0.00  0.00    +0.211 HD
ENDBRANCH  27  31
BRANCH  28  33
ATOM     33  O   UNL     1     -36.638  26.629   5.199  0.00  0.00    -0.379 OA
ATOM     34  H   UNL     1     -35.974  27.333   5.138  0.00  0.00    +0.211 HD
ENDBRANCH  28  33
BRANCH  30  35
ATOM     35  O   UNL     1     -34.405  25.031   6.102  0.00  0.00    -0.379 OA
ATOM     36  H   UNL     1     -33.645  24.690   5.605  0.00  0.00    +0.211 HD
ENDBRANCH  30  35
BRANCH  29  37
ATOM     37  C   UNL     1     -34.874  22.113   5.973  0.00  0.00    +0.169 C 
BRANCH  37  38
ATOM     38  O   UNL     1     -35.366  20.839   5.598  0.00  0.00    -0.379 OA
ATOM     39  H   UNL     1     -34.832  20.149   6.021  0.00  0.00    +0.211 HD
ENDBRANCH  37  38
ENDBRANCH  29  37
ENDBRANCH  24  26
ENDBRANCH   6  24
TORSDOF 9
ENDMDL
MODEL 2
REMARK VINA RESULT:      -6.6      3.079      8.135
REMARK  Name = 21593622
REMARK  9 active torsions:
REMARK  status: ('A' for Active; 'I' for Inactive)
REMARK    1  A    between atoms: C_6  and  O_24
REMARK    2  A    between atoms: C_11  and  C_21
REMARK    3  A    between atoms: C_21  and  O_22
REMARK    4  A    between atoms: O_24  and  C_26
REMARK    5  A    between atoms: C_27  and  O_31
REMARK    6  A    between atoms: C_28  and  O_33
REMARK    7  A    between atoms: C_29  and  C_37
REMARK    8  A    between atoms: C_30  and  O_35
REMARK    9  A    between atoms: C_37  and  O_38
REMARK                            x       y       z     vdW  Elec       q    Type
REMARK                         _______ _______ _______ _____ _____    ______ ____
ROOT
ATOM      1  C   UNL     1     -36.390  26.331   2.729  0.00  0.00    +0.006 C 
ATOM      2  C   UNL     1     -35.741  25.955   4.109  0.00  0.00    +0.000 C 
ATOM      3  C   UNL     1     -34.205  26.327   4.285  0.00  0.00    +0.001 C 
ATOM      4  C   UNL     1     -33.973  27.796   3.790  0.00  0.00    +0.010 C 
ATOM      5  C   UNL     1     -36.113  25.263   1.660  0.00  0.00    +0.032 C 
ATOM      6  C   UNL     1     -36.939  24.087   2.177  0.00  0.00    +0.110 C 
ATOM      7  C   UNL     1     -35.996  27.741   2.280  0.00  0.00    +0.000 C 
ATOM      8  C   UNL     1     -36.099  24.509   4.558  0.00  0.00    +0.003 C 
ATOM      9  C   UNL     1     -37.947  26.232   2.813  0.00  0.00    +0.024 C 
ATOM     10  C   UNL     1     -34.499  28.008   2.358  0.00  0.00    +0.001 C 
ATOM     11  C   UNL     1     -32.521  28.343   4.016  0.00  0.00    +0.089 C 
ATOM     12  C   UNL     1     -33.851  26.251   5.814  0.00  0.00    +0.000 C 
ATOM     13  C   UNL     1     -36.270  23.493   3.421  0.00  0.00    +0.031 C 
ATOM     14  C   UNL     1     -38.234  24.777   2.532  0.00  0.00    -0.020 C 
ATOM     15  C   UNL     1     -33.280  25.328   3.553  0.00  0.00    +0.000 C 
ATOM     16  C   UNL     1     -31.886  27.782   5.311  0.00  0.00    +0.011 C 
ATOM     17  C   UNL     1     -32.934  27.363   6.330  0.00  0.00    +0.001 C 
ATOM     18  C   UNL     1     -32.554  29.885   4.110  0.00  0.00    +0.011 C 
ATOM     19  C   UNL     1     -39.454  24.228   2.558  0.00  0.00    -0.007 C 
ENDROOT
BRANCH  11  21
ATOM     20  O   UNL     1     -31.709  28.499   1.731  0.00  0.00    -0.250 OA
ATOM     21  C   UNL     1     -31.615  28.015   2.850  0.00  0.00    +0.313 C 
BRANCH  21  22
ATOM     22  O   UNL     1     -30.680  27.104   3.211  0.00  0.00    -0.480 OA
ATOM     23  H   UNL     1     -30.338  27.103   4.084  0.00  0.00    +0.295 HD
ENDBRANCH  21  22
ENDBRANCH  11  21
BRANCH   6  24
ATOM     24  O   UNL     1     -37.106  23.101   1.177  0.00  0.00    -0.330 OA
BRANCH  24  26
ATOM     25  O   UNL     1     -35.171  21.918   0.629  0.00  0.00    -0.326 OA
ATOM     26  C   UNL     1     -36.335  21.932   1.452  0.00  0.00    +0.266 C 
ATOM     27  C   UNL     1     -37.210  20.713   1.162  0.00  0.00    +0.196 C 
ATOM     28  C   UNL     1     -36.414  19.414   1.287  0.00  0.00    +0.172 C 
ATOM     29  C   UNL     1     -34.341  20.782   0.874  0.00  0.00    +0.176 C 
ATOM     30  C   UNL     1     -35.094  19.498   0.519  0.00  0.00    +0.169 C 
BRANCH  27  31
ATOM     31  O   UNL     1     -38.286  20.701   2.100  0.00  0.00    -0.378 OA
ATOM     32  H   UNL     1     -38.968  20.079   1.801  0.00  0.00    +0.211 HD
ENDBRANCH  27  31
BRANCH  28  33
ATOM     33  O   UNL     1     -37.175  18.335   0.741  0.00  0.00    -0.379 OA
ATOM     34  H   UNL     1     -37.264  18.455  -0.216  0.00  0.00    +0.211 HD
ENDBRANCH  28  33
BRANCH  30  35
ATOM     35  O   UNL     1     -34.286  18.370   0.846  0.00  0.00    -0.379 OA
ATOM     36  H   UNL     1     -33.395  18.495   0.485  0.00  0.00    +0.211 HD
ENDBRANCH  30  35
BRANCH  29  37
ATOM     37  C   UNL     1     -33.077  20.945   0.034  0.00  0.00    +0.169 C 
BRANCH  37  38
ATOM     38  O   UNL     1     -32.075  20.091   0.556  0.00  0.00    -0.379 OA
ATOM     39  H   UNL     1     -31.229  20.282   0.122  0.00  0.00    +0.211 HD
ENDBRANCH  37  38
ENDBRANCH  29  37
ENDBRANCH  24  26
ENDBRANCH   6  24
TORSDOF 9
ENDMDL
MODEL 3
REMARK VINA RESULT:      -6.5      1.388      1.748
REMARK  Name = 21593622
REMARK  9 active torsions:
REMARK  status: ('A' for Active; 'I' for Inactive)
REMARK    1  A    between atoms: C_6  and  O_24
REMARK    2  A    between atoms: C_11  and  C_21
REMARK    3  A    between atoms: C_21  and  O_22
REMARK    4  A    between atoms: O_24  and  C_26
REMARK    5  A    between atoms: C_27  and  O_31
REMARK    6  A    between atoms: C_28  and  O_33
REMARK    7  A    between atoms: C_29  and  C_37
REMARK    8  A    between atoms: C_30  and  O_35
REMARK    9  A    between atoms: C_37  and  O_38
REMARK                            x       y       z     vdW  Elec       q    Type
REMARK                         _______ _______ _______ _____ _____    ______ ____
ROOT
ATOM      1  C   UNL     1     -36.064  19.692  -0.608  0.00  0.00    +0.006 C 
ATOM      2  C   UNL     1     -34.750  20.395  -1.105  0.00  0.00    +0.000 C 
ATOM      3  C   UNL     1     -33.388  19.635  -0.793  0.00  0.00    +0.001 C 
ATOM      4  C   UNL     1     -33.548  18.122  -1.171  0.00  0.00    +0.010 C 
ATOM      5  C   UNL     1     -36.349  19.997   0.870  0.00  0.00    +0.032 C 
ATOM      6  C   UNL     1     -36.693  21.485   0.817  0.00  0.00    +0.110 C 
ATOM      7  C   UNL     1     -36.059  18.192  -0.917  0.00  0.00    +0.000 C 
ATOM      8  C   UNL     1     -34.723  21.912  -0.760  0.00  0.00    +0.003 C 
ATOM      9  C   UNL     1     -37.319  20.351  -1.267  0.00  0.00    +0.024 C 
ATOM     10  C   UNL     1     -34.778  17.489  -0.493  0.00  0.00    +0.001 C 
ATOM     11  C   UNL     1     -32.240  17.269  -1.028  0.00  0.00    +0.089 C 
ATOM     12  C   UNL     1     -32.259  20.259  -1.688  0.00  0.00    +0.000 C 
ATOM     13  C   UNL     1     -35.424  22.299   0.549  0.00  0.00    +0.031 C 
ATOM     14  C   UNL     1     -37.627  21.524  -0.368  0.00  0.00    -0.020 C 
ATOM     15  C   UNL     1     -32.952  19.810   0.680  0.00  0.00    +0.000 C 
ATOM     16  C   UNL     1     -30.973  18.091  -1.367  0.00  0.00    +0.011 C 
ATOM     17  C   UNL     1     -31.275  19.256  -2.295  0.00  0.00    +0.001 C 
ATOM     18  C   UNL     1     -32.306  16.052  -1.977  0.00  0.00    +0.011 C 
ATOM     19  C   UNL     1     -38.603  22.411  -0.591  0.00  0.00    -0.007 C 
ENDROOT
BRANCH  11  21
ATOM     20  O   UNL     1     -31.775  17.347   1.356  0.00  0.00    -0.250 OA
ATOM     21  C   UNL     1     -32.094  16.703   0.367  0.00  0.00    +0.313 C 
BRANCH  21  22
ATOM     22  O   UNL     1     -32.363  15.375   0.375  0.00  0.00    -0.480 OA
ATOM     23  H   UNL     1     -32.288  14.886   1.171  0.00  0.00    +0.295 HD
ENDBRANCH  21  22
ENDBRANCH  11  21
BRANCH   6  24
ATOM     24  O   UNL     1     -37.319  21.907   2.014  0.00  0.00    -0.330 OA
BRANCH  24  26
ATOM     25  O   UNL     1     -36.103  22.097   3.997  0.00  0.00    -0.326 OA
ATOM     26  C   UNL     1     -36.467  22.754   2.785  0.00  0.00    +0.266 C 
ATOM     27  C   UNL     1     -37.233  24.043   3.084  0.00  0.00    +0.196 C 
ATOM     28  C   UNL     1     -36.449  24.948   4.035  0.00  0.00    +0.172 C 
ATOM     29  C   UNL     1     -35.228  22.885   4.806  0.00  0.00    +0.176 C 
ATOM     30  C   UNL     1     -35.938  24.167   5.246  0.00  0.00    +0.169 C 
BRANCH  27  31
ATOM     31  O   UNL     1     -37.453  24.729   1.852  0.00  0.00    -0.378 OA
ATOM     32  H   UNL     1     -36.600  24.904   1.423  0.00  0.00    +0.211 HD
ENDBRANCH  27  31
BRANCH  28  33
ATOM     33  O   UNL     1     -37.300  25.991   4.509  0.00  0.00    -0.379 OA
ATOM     34  H   UNL     1     -37.929  26.237   3.814  0.00  0.00    +0.211 HD
ENDBRANCH  28  33
BRANCH  30  35
ATOM     35  O   UNL     1     -35.028  24.981   5.982  0.00  0.00    -0.379 OA
ATOM     36  H   UNL     1     -34.157  24.961   5.555  0.00  0.00    +0.211 HD
ENDBRANCH  30  35
BRANCH  29  37
ATOM     37  C   UNL     1     -34.813  22.030   6.000  0.00  0.00    +0.169 C 
BRANCH  37  38
ATOM     38  O   UNL     1     -35.188  20.688   5.747  0.00  0.00    -0.379 OA
ATOM     39  H   UNL     1     -34.600  20.091   6.236  0.00  0.00    +0.211 HD
ENDBRANCH  37  38
ENDBRANCH  29  37
ENDBRANCH  24  26
ENDBRANCH   6  24
TORSDOF 9
ENDMDL
MODEL 4
REMARK VINA RESULT:      -6.4      4.184      8.443
REMARK  Name = 21593622
REMARK  9 active torsions:
REMARK  status: ('A' for Active; 'I' for Inactive)
REMARK    1  A    between atoms: C_6  and  O_24
REMARK    2  A    between atoms: C_11  and  C_21
REMARK    3  A    between atoms: C_21  and  O_22
REMARK    4  A    between atoms: O_24  and  C_26
REMARK    5  A    between atoms: C_27  and  O_31
REMARK    6  A    between atoms: C_28  and  O_33
REMARK    7  A    between atoms: C_29  and  C_37
REMARK    8  A    between atoms: C_30  and  O_35
REMARK    9  A    between atoms: C_37  and  O_38
REMARK                            x       y       z     vdW  Elec       q    Type
REMARK                         _______ _______ _______ _____ _____    ______ ____
ROOT
ATOM      1  C   UNL     1     -34.477  25.082   4.505  0.00  0.00    +0.006 C 
ATOM      2  C   UNL     1     -33.705  25.109   3.137  0.00  0.00    +0.000 C 
ATOM      3  C   UNL     1     -33.513  26.540   2.469  0.00  0.00    +0.001 C 
ATOM      4  C   UNL     1     -33.022  27.553   3.559  0.00  0.00    +0.010 C 
ATOM      5  C   UNL     1     -35.999  25.080   4.300  0.00  0.00    +0.032 C 
ATOM      6  C   UNL     1     -36.225  23.696   3.692  0.00  0.00    +0.110 C 
ATOM      7  C   UNL     1     -34.004  26.194   5.447  0.00  0.00    +0.000 C 
ATOM      8  C   UNL     1     -34.204  24.012   2.154  0.00  0.00    +0.003 C 
ATOM      9  C   UNL     1     -34.295  23.699   5.207  0.00  0.00    +0.024 C 
ATOM     10  C   UNL     1     -33.949  27.566   4.789  0.00  0.00    +0.001 C 
ATOM     11  C   UNL     1     -32.674  28.983   3.016  0.00  0.00    +0.089 C 
ATOM     12  C   UNL     1     -32.408  26.421   1.359  0.00  0.00    +0.000 C 
ATOM     13  C   UNL     1     -35.697  23.672   2.255  0.00  0.00    +0.031 C 
ATOM     14  C   UNL     1     -35.377  22.839   4.600  0.00  0.00    -0.020 C 
ATOM     15  C   UNL     1     -34.805  27.032   1.776  0.00  0.00    +0.000 C 
ATOM     16  C   UNL     1     -32.081  28.931   1.588  0.00  0.00    +0.011 C 
ATOM     17  C   UNL     1     -31.426  27.593   1.286  0.00  0.00    +0.001 C 
ATOM     18  C   UNL     1     -31.648  29.659   3.953  0.00  0.00    +0.011 C 
ATOM     19  C   UNL     1     -35.556  21.542   4.875  0.00  0.00    -0.007 C 
ENDROOT
BRANCH  11  21
ATOM     20  O   UNL     1     -34.765  29.871   2.155  0.00  0.00    -0.250 OA
ATOM     21  C   UNL     1     -33.888  29.884   3.006  0.00  0.00    +0.313 C 
BRANCH  21  22
ATOM     22  O   UNL     1     -33.874  30.718   4.074  0.00  0.00    -0.480 OA
ATOM     23  H   UNL     1     -33.936  30.369   4.942  0.00  0.00    +0.295 HD
ENDBRANCH  21  22
ENDBRANCH  11  21
BRANCH   6  24
ATOM     24  O   UNL     1     -37.593  23.339   3.732  0.00  0.00    -0.330 OA
BRANCH  24  26
ATOM     25  O   UNL     1     -39.021  24.520   2.314  0.00  0.00    -0.326 OA
ATOM     26  C   UNL     1     -38.186  23.371   2.434  0.00  0.00    +0.266 C 
ATOM     27  C   UNL     1     -39.006  22.093   2.260  0.00  0.00    +0.196 C 
ATOM     28  C   UNL     1     -39.798  22.113   0.953  0.00  0.00    +0.172 C 
ATOM     29  C   UNL     1     -39.628  24.624   1.024  0.00  0.00    +0.176 C 
ATOM     30  C   UNL     1     -40.555  23.431   0.785  0.00  0.00    +0.169 C 
BRANCH  27  31
ATOM     31  O   UNL     1     -38.108  20.983   2.252  0.00  0.00    -0.378 OA
ATOM     32  H   UNL     1     -37.232  21.274   2.553  0.00  0.00    +0.211 HD
ENDBRANCH  27  31
BRANCH  28  33
ATOM     33  O   UNL     1     -40.754  21.052   0.959  0.00  0.00    -0.379 OA
ATOM     34  H   UNL     1     -40.309  20.215   0.760  0.00  0.00    +0.211 HD
ENDBRANCH  28  33
BRANCH  30  35
ATOM     35  O   UNL     1     -41.088  23.504  -0.535  0.00  0.00    -0.379 OA
ATOM     36  H   UNL     1     -42.047  23.641  -0.490  0.00  0.00    +0.211 HD
ENDBRANCH  30  35
BRANCH  29  37
ATOM     37  C   UNL     1     -40.386  25.947   0.978  0.00  0.00    +0.169 C 
BRANCH  37  38
ATOM     38  O   UNL     1     -40.093  26.677   2.156  0.00  0.00    -0.379 OA
ATOM     39  H   UNL     1     -40.413  27.587   2.061  0.00  0.00    +0.211 HD
ENDBRANCH  37  38
ENDBRANCH  29  37
ENDBRANCH  24  26
ENDBRANCH   6  24
TORSDOF 9
ENDMDL
MODEL 5
REMARK VINA RESULT:      -6.2      2.640      7.637
REMARK  Name = 21593622
REMARK  9 active torsions:
REMARK  status: ('A' for Active; 'I' for Inactive)
REMARK    1  A    between atoms: C_6  and  O_24
REMARK    2  A    between atoms: C_11  and  C_21
REMARK    3  A    between atoms: C_21  and  O_22
REMARK    4  A    between atoms: O_24  and  C_26
REMARK    5  A    between atoms: C_27  and  O_31
REMARK    6  A    between atoms: C_28  and  O_33
REMARK    7  A    between atoms: C_29  and  C_37
REMARK    8  A    between atoms: C_30  and  O_35
REMARK    9  A    between atoms: C_37  and  O_38
REMARK                            x       y       z     vdW  Elec       q    Type
REMARK                         _______ _______ _______ _____ _____    ______ ____
ROOT
ATOM      1  C   UNL     1     -35.050  21.151   1.493  0.00  0.00    +0.006 C 
ATOM      2  C   UNL     1     -34.280  22.492   1.214  0.00  0.00    +0.000 C 
ATOM      3  C   UNL     1     -34.963  23.819   1.764  0.00  0.00    +0.001 C 
ATOM      4  C   UNL     1     -35.425  23.583   3.243  0.00  0.00    +0.010 C 
ATOM      5  C   UNL     1     -36.149  20.898   0.450  0.00  0.00    +0.032 C 
ATOM      6  C   UNL     1     -35.323  20.626  -0.807  0.00  0.00    +0.110 C 
ATOM      7  C   UNL     1     -35.567  21.081   2.933  0.00  0.00    +0.000 C 
ATOM      8  C   UNL     1     -33.785  22.596  -0.257  0.00  0.00    +0.003 C 
ATOM      9  C   UNL     1     -34.125  19.923   1.216  0.00  0.00    +0.024 C 
ATOM     10  C   UNL     1     -36.315  22.332   3.372  0.00  0.00    +0.001 C 
ATOM     11  C   UNL     1     -36.011  24.850   3.957  0.00  0.00    +0.089 C 
ATOM     12  C   UNL     1     -33.891  24.967   1.751  0.00  0.00    +0.000 C 
ATOM     13  C   UNL     1     -34.691  21.930  -1.301  0.00  0.00    +0.031 C 
ATOM     14  C   UNL     1     -34.277  19.682  -0.267  0.00  0.00    -0.020 C 
ATOM     15  C   UNL     1     -36.136  24.280   0.868  0.00  0.00    +0.000 C 
ATOM     16  C   UNL     1     -35.314  26.151   3.492  0.00  0.00    +0.011 C 
ATOM     17  C   UNL     1     -33.910  25.895   2.968  0.00  0.00    +0.001 C 
ATOM     18  C   UNL     1     -35.834  24.714   5.486  0.00  0.00    +0.011 C 
ATOM     19  C   UNL     1     -33.609  18.747  -0.953  0.00  0.00    -0.007 C 
ENDROOT
BRANCH  11  21
ATOM     20  O   UNL     1     -38.291  24.053   3.685  0.00  0.00    -0.250 OA
ATOM     21  C   UNL     1     -37.499  24.984   3.720  0.00  0.00    +0.313 C 
BRANCH  21  22
ATOM     22  O   UNL     1     -37.841  26.284   3.549  0.00  0.00    -0.480 OA
ATOM     23  H   UNL     1     -38.315  26.547   2.784  0.00  0.00    +0.295 HD
ENDBRANCH  21  22
ENDBRANCH  11  21
BRANCH   6  24
ATOM     24  O   UNL     1     -36.115  20.035  -1.819  0.00  0.00    -0.330 OA
BRANCH  24  26
ATOM     25  O   UNL     1     -37.059  17.983  -1.234  0.00  0.00    -0.326 OA
ATOM     26  C   UNL     1     -37.270  19.392  -1.279  0.00  0.00    +0.266 C 
ATOM     27  C   UNL     1     -38.458  19.728  -2.180  0.00  0.00    +0.196 C 
ATOM     28  C   UNL     1     -39.710  18.956  -1.760  0.00  0.00    +0.172 C 
ATOM     29  C   UNL     1     -38.173  17.281  -0.679  0.00  0.00    +0.176 C 
ATOM     30  C   UNL     1     -39.405  17.471  -1.566  0.00  0.00    +0.169 C 
BRANCH  27  31
ATOM     31  O   UNL     1     -38.711  21.129  -2.084  0.00  0.00    -0.378 OA
ATOM     32  H   UNL     1     -39.450  21.364  -2.669  0.00  0.00    +0.211 HD
ENDBRANCH  27  31
BRANCH  28  33
ATOM     33  O   UNL     1     -40.705  19.074  -2.778  0.00  0.00    -0.379 OA
ATOM     34  H   UNL     1     -40.596  18.358  -3.422  0.00  0.00    +0.211 HD
ENDBRANCH  28  33
BRANCH  30  35
ATOM     35  O   UNL     1     -40.527  16.835  -0.958  0.00  0.00    -0.379 OA
ATOM     36  H   UNL     1     -40.712  17.253  -0.103  0.00  0.00    +0.211 HD
ENDBRANCH  30  35
BRANCH  29  37
ATOM     37  C   UNL     1     -37.780  15.810  -0.566  0.00  0.00    +0.169 C 
BRANCH  37  38
ATOM     38  O   UNL     1     -37.106  15.617   0.665  0.00  0.00    -0.379 OA
ATOM     39  H   UNL     1     -36.827  16.475   1.020  0.00  0.00    +0.211 HD
ENDBRANCH  37  38
ENDBRANCH  29  37
ENDBRANCH  24  26
ENDBRANCH   6  24
TORSDOF 9
ENDMDL
MODEL 6
REMARK VINA RESULT:      -6.0      2.835      7.853
REMARK  Name = 21593622
REMARK  9 active torsions:
REMARK  status: ('A' for Active; 'I' for Inactive)
REMARK    1  A    between atoms: C_6  and  O_24
REMARK    2  A    between atoms: C_11  and  C_21
REMARK    3  A    between atoms: C_21  and  O_22
REMARK    4  A    between atoms: O_24  and  C_26
REMARK    5  A    between atoms: C_27  and  O_31
REMARK    6  A    between atoms: C_28  and  O_33
REMARK    7  A    between atoms: C_29  and  C_37
REMARK    8  A    between atoms: C_30  and  O_35
REMARK    9  A    between atoms: C_37  and  O_38
REMARK                            x       y       z     vdW  Elec       q    Type
REMARK                         _______ _______ _______ _____ _____    ______ ____
ROOT
ATOM      1  C   UNL     1     -35.342  21.062   2.070  0.00  0.00    +0.006 C 
ATOM      2  C   UNL     1     -34.975  22.224   1.078  0.00  0.00    +0.000 C 
ATOM      3  C   UNL     1     -35.667  23.628   1.358  0.00  0.00    +0.001 C 
ATOM      4  C   UNL     1     -35.550  23.962   2.885  0.00  0.00    +0.010 C 
ATOM      5  C   UNL     1     -36.661  20.377   1.682  0.00  0.00    +0.032 C 
ATOM      6  C   UNL     1     -36.273  19.677   0.381  0.00  0.00    +0.110 C 
ATOM      7  C   UNL     1     -35.319  21.531   3.528  0.00  0.00    +0.000 C 
ATOM      8  C   UNL     1     -35.035  21.773  -0.410  0.00  0.00    +0.003 C 
ATOM      9  C   UNL     1     -34.353  19.865   1.897  0.00  0.00    +0.024 C 
ATOM     10  C   UNL     1     -36.094  22.819   3.764  0.00  0.00    +0.001 C 
ATOM     11  C   UNL     1     -36.086  25.379   3.290  0.00  0.00    +0.089 C 
ATOM     12  C   UNL     1     -34.896  24.728   0.545  0.00  0.00    +0.000 C 
ATOM     13  C   UNL     1     -36.099  20.715  -0.732  0.00  0.00    +0.031 C 
ATOM     14  C   UNL     1     -34.949  19.063   0.766  0.00  0.00    -0.020 C 
ATOM     15  C   UNL     1     -37.138  23.654   0.881  0.00  0.00    +0.000 C 
ATOM     16  C   UNL     1     -35.842  26.428   2.180  0.00  0.00    +0.011 C 
ATOM     17  C   UNL     1     -34.675  26.053   1.280  0.00  0.00    +0.001 C 
ATOM     18  C   UNL     1     -35.380  25.853   4.580  0.00  0.00    +0.011 C 
ATOM     19  C   UNL     1     -34.391  17.966   0.241  0.00  0.00    -0.007 C 
ENDROOT
BRANCH  11  21
ATOM     20  O   UNL     1     -38.156  24.389   4.090  0.00  0.00    -0.250 OA
ATOM     21  C   UNL     1     -37.563  25.345   3.611  0.00  0.00    +0.313 C 
BRANCH  21  22
ATOM     22  O   UNL     1     -38.150  26.524   3.291  0.00  0.00    -0.480 OA
ATOM     23  H   UNL     1     -38.982  26.532   2.860  0.00  0.00    +0.295 HD
ENDBRANCH  21  22
ENDBRANCH  11  21
BRANCH   6  24
ATOM     24  O   UNL     1     -37.235  18.706   0.017  0.00  0.00    -0.330 OA
BRANCH  24  26
ATOM     25  O   UNL     1     -39.260  19.817  -0.316  0.00  0.00    -0.326 OA
ATOM     26  C   UNL     1     -38.146  19.206  -0.962  0.00  0.00    +0.266 C 
ATOM     27  C   UNL     1     -38.605  18.027  -1.820  0.00  0.00    +0.196 C 
ATOM     28  C   UNL     1     -39.700  18.447  -2.802  0.00  0.00    +0.172 C 
ATOM     29  C   UNL     1     -40.201  20.360  -1.244  0.00  0.00    +0.176 C 
ATOM     30  C   UNL     1     -40.800  19.240  -2.096  0.00  0.00    +0.169 C 
BRANCH  27  31
ATOM     31  O   UNL     1     -37.479  17.538  -2.548  0.00  0.00    -0.378 OA
ATOM     32  H   UNL     1     -37.569  16.581  -2.678  0.00  0.00    +0.211 HD
ENDBRANCH  27  31
BRANCH  28  33
ATOM     33  O   UNL     1     -40.294  17.283  -3.378  0.00  0.00    -0.379 OA
ATOM     34  H   UNL     1     -39.775  16.501  -3.136  0.00  0.00    +0.211 HD
ENDBRANCH  28  33
BRANCH  30  35
ATOM     35  O   UNL     1     -41.673  19.805  -3.072  0.00  0.00    -0.379 OA
ATOM     36  H   UNL     1     -42.057  19.097  -3.611  0.00  0.00    +0.211 HD
ENDBRANCH  30  35
BRANCH  29  37
ATOM     37  C   UNL     1     -41.271  21.092  -0.439  0.00  0.00    +0.169 C 
BRANCH  37  38
ATOM     38  O   UNL     1     -42.318  20.183  -0.149  0.00  0.00    -0.379 OA
ATOM     39  H   UNL     1     -42.977  20.618   0.414  0.00  0.00    +0.211 HD
ENDBRANCH  37  38
ENDBRANCH  29  37
ENDBRANCH  24  26
ENDBRANCH   6  24
TORSDOF 9
ENDMDL
MODEL 7
REMARK VINA RESULT:      -5.9      4.998      9.279
REMARK  Name = 21593622
REMARK  9 active torsions:
REMARK  status: ('A' for Active; 'I' for Inactive)
REMARK    1  A    between atoms: C_6  and  O_24
REMARK    2  A    between atoms: C_11  and  C_21
REMARK    3  A    between atoms: C_21  and  O_22
REMARK    4  A    between atoms: O_24  and  C_26
REMARK    5  A    between atoms: C_27  and  O_31
REMARK    6  A    between atoms: C_28  and  O_33
REMARK    7  A    between atoms: C_29  and  C_37
REMARK    8  A    between atoms: C_30  and  O_35
REMARK    9  A    between atoms: C_37  and  O_38
REMARK                            x       y       z     vdW  Elec       q    Type
REMARK                         _______ _______ _______ _____ _____    ______ ____
ROOT
ATOM      1  C   UNL     1     -32.532  27.391   2.232  0.00  0.00    +0.006 C 
ATOM      2  C   UNL     1     -32.617  28.920   2.581  0.00  0.00    +0.000 C 
ATOM      3  C   UNL     1     -31.738  29.407   3.815  0.00  0.00    +0.001 C 
ATOM      4  C   UNL     1     -30.296  28.808   3.684  0.00  0.00    +0.010 C 
ATOM      5  C   UNL     1     -33.477  26.554   3.107  0.00  0.00    +0.032 C 
ATOM      6  C   UNL     1     -34.846  27.000   2.596  0.00  0.00    +0.110 C 
ATOM      7  C   UNL     1     -31.088  26.882   2.257  0.00  0.00    +0.000 C 
ATOM      8  C   UNL     1     -34.082  29.443   2.601  0.00  0.00    +0.003 C 
ATOM      9  C   UNL     1     -33.152  27.117   0.824  0.00  0.00    +0.024 C 
ATOM     10  C   UNL     1     -30.325  27.277   3.513  0.00  0.00    +0.001 C 
ATOM     11  C   UNL     1     -29.280  29.302   4.772  0.00  0.00    +0.089 C 
ATOM     12  C   UNL     1     -31.637  30.973   3.760  0.00  0.00    +0.000 C 
ATOM     13  C   UNL     1     -35.134  28.427   3.070  0.00  0.00    +0.031 C 
ATOM     14  C   UNL     1     -34.627  26.954   1.103  0.00  0.00    -0.020 C 
ATOM     15  C   UNL     1     -32.387  29.038   5.169  0.00  0.00    +0.000 C 
ATOM     16  C   UNL     1     -29.546  30.767   5.189  0.00  0.00    +0.011 C 
ATOM     17  C   UNL     1     -30.263  31.554   4.103  0.00  0.00    +0.001 C 
ATOM     18  C   UNL     1     -27.839  29.199   4.223  0.00  0.00    +0.011 C 
ATOM     19  C   UNL     1     -35.557  26.758   0.162  0.00  0.00    -0.007 C 
ENDROOT
BRANCH  11  21
ATOM     20  O   UNL     1     -28.972  27.258   6.050  0.00  0.00    -0.250 OA
ATOM     21  C   UNL     1     -29.319  28.430   6.007  0.00  0.00    +0.313 C 
BRANCH  21  22
ATOM     22  O   UNL     1     -29.796  29.123   7.068  0.00  0.00    -0.480 OA
ATOM     23  H   UNL     1     -29.565  30.024   7.182  0.00  0.00    +0.295 HD
ENDBRANCH  21  22
ENDBRANCH  11  21
BRANCH   6  24
ATOM     24  O   UNL     1     -35.863  26.114   3.022  0.00  0.00    -0.330 OA
BRANCH  24  26
ATOM     25  O   UNL     1     -35.789  23.919   2.233  0.00  0.00    -0.326 OA
ATOM     26  C   UNL     1     -35.354  24.802   3.264  0.00  0.00    +0.266 C 
ATOM     27  C   UNL     1     -35.878  24.338   4.623  0.00  0.00    +0.196 C 
ATOM     28  C   UNL     1     -35.504  22.881   4.896  0.00  0.00    +0.172 C 
ATOM     29  C   UNL     1     -35.292  22.590   2.404  0.00  0.00    +0.176 C 
ATOM     30  C   UNL     1     -35.841  21.990   3.699  0.00  0.00    +0.169 C 
BRANCH  27  31
ATOM     31  O   UNL     1     -35.306  25.170   5.631  0.00  0.00    -0.378 OA
ATOM     32  H   UNL     1     -34.806  24.622   6.257  0.00  0.00    +0.211 HD
ENDBRANCH  27  31
BRANCH  28  33
ATOM     33  O   UNL     1     -36.239  22.404   6.023  0.00  0.00    -0.379 OA
ATOM     34  H   UNL     1     -36.556  23.157   6.545  0.00  0.00    +0.211 HD
ENDBRANCH  28  33
BRANCH  30  35
ATOM     35  O   UNL     1     -35.272  20.698   3.899  0.00  0.00    -0.379 OA
ATOM     36  H   UNL     1     -34.582  20.750   4.578  0.00  0.00    +0.211 HD
ENDBRANCH  30  35
BRANCH  29  37
ATOM     37  C   UNL     1     -35.716  21.780   1.182  0.00  0.00    +0.169 C 
BRANCH  37  38
ATOM     38  O   UNL     1     -36.703  20.846   1.580  0.00  0.00    -0.379 OA
ATOM     39  H   UNL     1     -36.273  20.040   1.905  0.00  0.00    +0.211 HD
ENDBRANCH  37  38
ENDBRANCH  29  37
ENDBRANCH  24  26
ENDBRANCH   6  24
TORSDOF 9
ENDMDL
MODEL 8
REMARK VINA RESULT:      -5.9      2.214      2.825
REMARK  Name = 21593622
REMARK  9 active torsions:
REMARK  status: ('A' for Active; 'I' for Inactive)
REMARK    1  A    between atoms: C_6  and  O_24
REMARK    2  A    between atoms: C_11  and  C_21
REMARK    3  A    between atoms: C_21  and  O_22
REMARK    4  A    between atoms: O_24  and  C_26
REMARK    5  A    between atoms: C_27  and  O_31
REMARK    6  A    between atoms: C_28  and  O_33
REMARK    7  A    between atoms: C_29  and  C_37
REMARK    8  A    between atoms: C_30  and  O_35
REMARK    9  A    between atoms: C_37  and  O_38
REMARK                            x       y       z     vdW  Elec       q    Type
REMARK                         _______ _______ _______ _____ _____    ______ ____
ROOT
ATOM      1  C   UNL     1     -40.089  22.284  -0.555  0.00  0.00    +0.006 C 
ATOM      2  C   UNL     1     -38.815  22.409  -1.464  0.00  0.00    +0.000 C 
ATOM      3  C   UNL     1     -38.059  21.051  -1.802  0.00  0.00    +0.001 C 
ATOM      4  C   UNL     1     -39.112  19.973  -2.233  0.00  0.00    +0.010 C 
ATOM      5  C   UNL     1     -39.722  22.235   0.936  0.00  0.00    +0.032 C 
ATOM      6  C   UNL     1     -39.206  23.653   1.173  0.00  0.00    +0.110 C 
ATOM      7  C   UNL     1     -40.985  21.120  -0.988  0.00  0.00    +0.000 C 
ATOM      8  C   UNL     1     -37.874  23.562  -1.011  0.00  0.00    +0.003 C 
ATOM      9  C   UNL     1     -40.915  23.610  -0.587  0.00  0.00    +0.024 C 
ATOM     10  C   UNL     1     -40.230  19.813  -1.186  0.00  0.00    +0.001 C 
ATOM     11  C   UNL     1     -38.497  18.612  -2.713  0.00  0.00    +0.089 C 
ATOM     12  C   UNL     1     -37.088  21.314  -3.008  0.00  0.00    +0.000 C 
ATOM     13  C   UNL     1     -37.840  23.824   0.501  0.00  0.00    +0.031 C 
ATOM     14  C   UNL     1     -40.265  24.468   0.472  0.00  0.00    -0.020 C 
ATOM     15  C   UNL     1     -37.194  20.560  -0.618  0.00  0.00    +0.000 C 
ATOM     16  C   UNL     1     -37.150  18.811  -3.447  0.00  0.00    +0.011 C 
ATOM     17  C   UNL     1     -37.028  20.199  -4.056  0.00  0.00    +0.001 C 
ATOM     18  C   UNL     1     -39.482  17.906  -3.672  0.00  0.00    +0.011 C 
ATOM     19  C   UNL     1     -40.621  25.727   0.749  0.00  0.00    -0.007 C 
ENDROOT
BRANCH  11  21
ATOM     20  O   UNL     1     -39.174  17.197  -0.856  0.00  0.00    -0.250 OA
ATOM     21  C   UNL     1     -38.285  17.659  -1.558  0.00  0.00    +0.313 C 
BRANCH  21  22
ATOM     22  O   UNL     1     -36.968  17.384  -1.399  0.00  0.00    -0.480 OA
ATOM     23  H   UNL     1     -36.532  17.620  -0.603  0.00  0.00    +0.295 HD
ENDBRANCH  21  22
ENDBRANCH  11  21
BRANCH   6  24
ATOM     24  O   UNL     1     -39.126  23.942   2.556  0.00  0.00    -0.330 OA
BRANCH  24  26
ATOM     25  O   UNL     1     -37.332  23.061   3.760  0.00  0.00    -0.326 OA
ATOM     26  C   UNL     1     -37.779  24.162   2.973  0.00  0.00    +0.266 C 
ATOM     27  C   UNL     1     -37.746  25.454   3.790  0.00  0.00    +0.196 C 
ATOM     28  C   UNL     1     -36.366  25.688   4.405  0.00  0.00    +0.172 C 
ATOM     29  C   UNL     1     -35.978  23.210   4.191  0.00  0.00    +0.176 C 
ATOM     30  C   UNL     1     -35.851  24.430   5.105  0.00  0.00    +0.169 C 
BRANCH  27  31
ATOM     31  O   UNL     1     -38.069  26.540   2.924  0.00  0.00    -0.378 OA
ATOM     32  H   UNL     1     -39.033  26.635   2.870  0.00  0.00    +0.211 HD
ENDBRANCH  27  31
BRANCH  28  33
ATOM     33  O   UNL     1     -36.449  26.732   5.376  0.00  0.00    -0.379 OA
ATOM     34  H   UNL     1     -35.633  27.255   5.359  0.00  0.00    +0.211 HD
ENDBRANCH  28  33
BRANCH  30  35
ATOM     35  O   UNL     1     -34.483  24.614   5.459  0.00  0.00    -0.379 OA
ATOM     36  H   UNL     1     -34.426  24.953   6.366  0.00  0.00    +0.211 HD
ENDBRANCH  30  35
BRANCH  29  37
ATOM     37  C   UNL     1     -35.580  21.923   4.908  0.00  0.00    +0.169 C 
BRANCH  37  38
ATOM     38  O   UNL     1     -36.025  21.998   6.251  0.00  0.00    -0.379 OA
ATOM     39  H   UNL     1     -35.322  21.687   6.842  0.00  0.00    +0.211 HD
ENDBRANCH  37  38
ENDBRANCH  29  37
ENDBRANCH  24  26
ENDBRANCH   6  24
TORSDOF 9
ENDMDL
MODEL 9
REMARK VINA RESULT:      -5.9      2.791      3.737
REMARK  Name = 21593622
REMARK  9 active torsions:
REMARK  status: ('A' for Active; 'I' for Inactive)
REMARK    1  A    between atoms: C_6  and  O_24
REMARK    2  A    between atoms: C_11  and  C_21
REMARK    3  A    between atoms: C_21  and  O_22
REMARK    4  A    between atoms: O_24  and  C_26
REMARK    5  A    between atoms: C_27  and  O_31
REMARK    6  A    between atoms: C_28  and  O_33
REMARK    7  A    between atoms: C_29  and  C_37
REMARK    8  A    between atoms: C_30  and  O_35
REMARK    9  A    between atoms: C_37  and  O_38
REMARK                            x       y       z     vdW  Elec       q    Type
REMARK                         _______ _______ _______ _____ _____    ______ ____
ROOT
ATOM      1  C   UNL     1     -35.971  21.810   1.968  0.00  0.00    +0.006 C 
ATOM      2  C   UNL     1     -35.826  22.000   0.416  0.00  0.00    +0.000 C 
ATOM      3  C   UNL     1     -34.556  21.320  -0.258  0.00  0.00    +0.001 C 
ATOM      4  C   UNL     1     -34.420  19.851   0.273  0.00  0.00    +0.010 C 
ATOM      5  C   UNL     1     -35.133  22.834   2.749  0.00  0.00    +0.032 C 
ATOM      6  C   UNL     1     -35.872  24.135   2.440  0.00  0.00    +0.110 C 
ATOM      7  C   UNL     1     -35.694  20.365   2.392  0.00  0.00    +0.000 C 
ATOM      8  C   UNL     1     -36.064  23.473  -0.025  0.00  0.00    +0.003 C 
ATOM      9  C   UNL     1     -37.405  22.219   2.437  0.00  0.00    +0.024 C 
ATOM     10  C   UNL     1     -34.405  19.798   1.813  0.00  0.00    +0.001 C 
ATOM     11  C   UNL     1     -33.276  19.015  -0.398  0.00  0.00    +0.089 C 
ATOM     12  C   UNL     1     -34.788  21.272  -1.810  0.00  0.00    +0.000 C 
ATOM     13  C   UNL     1     -35.619  24.540   0.985  0.00  0.00    +0.031 C 
ATOM     14  C   UNL     1     -37.306  23.711   2.647  0.00  0.00    -0.020 C 
ATOM     15  C   UNL     1     -33.265  22.135  -0.014  0.00  0.00    +0.000 C 
ATOM     16  C   UNL     1     -33.080  19.392  -1.886  0.00  0.00    +0.011 C 
ATOM     17  C   UNL     1     -34.340  19.981  -2.500  0.00  0.00    +0.001 C 
ATOM     18  C   UNL     1     -33.613  17.509  -0.311  0.00  0.00    +0.011 C 
ATOM     19  C   UNL     1     -38.331  24.494   3.001  0.00  0.00    -0.007 C 
ENDROOT
BRANCH  11  21
ATOM     20  O   UNL     1     -31.145  20.073   0.097  0.00  0.00    -0.250 OA
ATOM     21  C   UNL     1     -31.960  19.190   0.326  0.00  0.00    +0.313 C 
BRANCH  21  22
ATOM     22  O   UNL     1     -31.800  18.230   1.268  0.00  0.00    -0.480 OA
ATOM     23  H   UNL     1     -30.977  18.136   1.707  0.00  0.00    +0.295 HD
ENDBRANCH  21  22
ENDBRANCH  11  21
BRANCH   6  24
ATOM     24  O   UNL     1     -35.479  25.167   3.325  0.00  0.00    -0.330 OA
BRANCH  24  26
ATOM     25  O   UNL     1     -33.475  26.310   2.975  0.00  0.00    -0.326 OA
ATOM     26  C   UNL     1     -34.857  26.249   2.633  0.00  0.00    +0.266 C 
ATOM     27  C   UNL     1     -35.568  27.539   3.043  0.00  0.00    +0.196 C 
ATOM     28  C   UNL     1     -34.869  28.768   2.462  0.00  0.00    +0.172 C 
ATOM     29  C   UNL     1     -32.788  27.361   2.294  0.00  0.00    +0.176 C 
ATOM     30  C   UNL     1     -33.361  28.716   2.712  0.00  0.00    +0.169 C 
BRANCH  27  31
ATOM     31  O   UNL     1     -36.909  27.484   2.558  0.00  0.00    -0.378 OA
ATOM     32  H   UNL     1     -37.525  27.507   3.308  0.00  0.00    +0.211 HD
ENDBRANCH  27  31
BRANCH  28  33
ATOM     33  O   UNL     1     -35.380  29.946   3.087  0.00  0.00    -0.379 OA
ATOM     34  H   UNL     1     -35.177  29.924   4.035  0.00  0.00    +0.211 HD
ENDBRANCH  28  33
BRANCH  30  35
ATOM     35  O   UNL     1     -32.724  29.749   1.964  0.00  0.00    -0.379 OA
ATOM     36  H   UNL     1     -33.299  30.022   1.233  0.00  0.00    +0.211 HD
ENDBRANCH  30  35
BRANCH  29  37
ATOM     37  C   UNL     1     -31.307  27.243   2.642  0.00  0.00    +0.169 C 
BRANCH  37  38
ATOM     38  O   UNL     1     -30.922  25.885   2.523  0.00  0.00    -0.379 OA
ATOM     39  H   UNL     1     -30.206  25.807   1.874  0.00  0.00    +0.211 HD
ENDBRANCH  37  38
ENDBRANCH  29  37
ENDBRANCH  24  26
ENDBRANCH   6  24
TORSDOF 9
ENDMDL
