MODEL 1
REMARK VINA RESULT:      -4.8      0.000      0.000
REMARK  Name = 194051
REMARK  5 active torsions:
REMARK  status: ('A' for Active; 'I' for Inactive)
REMARK    1  A    between atoms: S_1  and  C_4
REMARK    2  A    between atoms: S_1  and  C_10
REMARK    3  A    between atoms: C_10  and  C_17
REMARK    4  A    between atoms: C_11  and  S_12
REMARK    5  A    between atoms: C_11  and  S_14
REMARK                            x       y       z     vdW  Elec       q    Type
REMARK                         _______ _______ _______ _____ _____    ______ ____
ROOT
ATOM      1  S   UNL     1     -35.880  25.758   4.446  0.00  0.00    +0.037 S 
ATOM      2  O   UNL     1     -36.690  25.913   3.256  0.00  0.00    -0.164 OA
ATOM      3  O   UNL     1     -36.316  26.321   5.708  0.00  0.00    -0.164 OA
ENDROOT
BRANCH   1   4
ATOM      4  C   UNL     1     -35.626  24.029   4.708  0.00  0.00    +0.111 C 
ATOM      5  C   UNL     1     -35.298  23.579   5.976  0.00  0.00    +0.019 C 
ATOM      6  C   UNL     1     -35.758  23.157   3.642  0.00  0.00    +0.019 C 
ATOM      7  C   UNL     1     -35.095  22.214   6.182  0.00  0.00    +0.001 C 
ATOM      8  C   UNL     1     -35.556  21.793   3.848  0.00  0.00    +0.001 C 
ATOM      9  C   UNL     1     -35.225  21.321   5.118  0.00  0.00    +0.000 C 
ENDBRANCH   1   4
BRANCH   1  10
ATOM     10  C   UNL     1     -34.267  26.300   4.099  0.00  0.00    +0.189 C 
ATOM     11  C   UNL     1     -33.803  26.302   2.829  0.00  0.00    +0.078 C 
BRANCH  11  12
ATOM     12  S   UNL     1     -34.760  25.791   1.447  0.00  0.00    -0.105 S 
ATOM     13  C   UNL     1     -33.693  24.474   0.811  0.00  0.00    +0.075 C 
ENDBRANCH  11  12
BRANCH  11  14
ATOM     14  S   UNL     1     -32.160  26.830   2.463  0.00  0.00    -0.105 S 
ATOM     15  C   UNL     1     -32.480  28.576   2.111  0.00  0.00    +0.075 C 
ENDBRANCH  11  14
BRANCH  10  17
ATOM     16  N   UNL     1     -32.870  27.062   6.140  0.00  0.00    -0.189 NA
ATOM     17  C   UNL     1     -33.500  26.724   5.225  0.00  0.00    +0.120 C 
ENDBRANCH  10  17
ENDBRANCH   1  10
TORSDOF 5
ENDMDL
MODEL 2
REMARK VINA RESULT:      -4.8      0.017      1.172
REMARK  Name = 194051
REMARK  5 active torsions:
REMARK  status: ('A' for Active; 'I' for Inactive)
REMARK    1  A    between atoms: S_1  and  C_4
REMARK    2  A    between atoms: S_1  and  C_10
REMARK    3  A    between atoms: C_10  and  C_17
REMARK    4  A    between atoms: C_11  and  S_12
REMARK    5  A    between atoms: C_11  and  S_14
REMARK                            x       y       z     vdW  Elec       q    Type
REMARK                         _______ _______ _______ _____ _____    ______ ____
ROOT
ATOM      1  S   UNL     1     -35.876  25.766   4.468  0.00  0.00    +0.037 S 
ATOM      2  O   UNL     1     -36.692  25.927   3.283  0.00  0.00    -0.164 OA
ATOM      3  O   UNL     1     -36.304  26.325   5.734  0.00  0.00    -0.164 OA
ENDROOT
BRANCH   1   4
ATOM      4  C   UNL     1     -35.624  24.036   4.723  0.00  0.00    +0.111 C 
ATOM      5  C   UNL     1     -35.753  23.169   3.651  0.00  0.00    +0.019 C 
ATOM      6  C   UNL     1     -35.303  23.578   5.989  0.00  0.00    +0.019 C 
ATOM      7  C   UNL     1     -35.556  21.803   3.852  0.00  0.00    +0.001 C 
ATOM      8  C   UNL     1     -35.106  22.213   6.190  0.00  0.00    +0.001 C 
ATOM      9  C   UNL     1     -35.232  21.324   5.122  0.00  0.00    +0.000 C 
ENDBRANCH   1   4
BRANCH   1  10
ATOM     10  C   UNL     1     -34.264  26.306   4.114  0.00  0.00    +0.189 C 
ATOM     11  C   UNL     1     -33.805  26.305   2.842  0.00  0.00    +0.078 C 
BRANCH  11  12
ATOM     12  S   UNL     1     -34.767  25.793   1.464  0.00  0.00    -0.105 S 
ATOM     13  C   UNL     1     -33.695  24.487   0.815  0.00  0.00    +0.075 C 
ENDBRANCH  11  12
BRANCH  11  14
ATOM     14  S   UNL     1     -32.163  26.831   2.469  0.00  0.00    -0.105 S 
ATOM     15  C   UNL     1     -32.483  28.576   2.110  0.00  0.00    +0.075 C 
ENDBRANCH  11  14
BRANCH  10  17
ATOM     16  N   UNL     1     -32.862  27.068   6.151  0.00  0.00    -0.189 NA
ATOM     17  C   UNL     1     -33.492  26.731   5.236  0.00  0.00    +0.120 C 
ENDBRANCH  10  17
ENDBRANCH   1  10
TORSDOF 5
ENDMDL
MODEL 3
REMARK VINA RESULT:      -4.7      2.648      3.518
REMARK  Name = 194051
REMARK  5 active torsions:
REMARK  status: ('A' for Active; 'I' for Inactive)
REMARK    1  A    between atoms: S_1  and  C_4
REMARK    2  A    between atoms: S_1  and  C_10
REMARK    3  A    between atoms: C_10  and  C_17
REMARK    4  A    between atoms: C_11  and  S_12
REMARK    5  A    between atoms: C_11  and  S_14
REMARK                            x       y       z     vdW  Elec       q    Type
REMARK                         _______ _______ _______ _____ _____    ______ ____
ROOT
ATOM      1  S   UNL     1     -35.149  25.792   4.018  0.00  0.00    +0.037 S 
ATOM      2  O   UNL     1     -35.346  26.598   5.205  0.00  0.00    -0.164 OA
ATOM      3  O   UNL     1     -33.954  25.950   3.214  0.00  0.00    -0.164 OA
ENDROOT
BRANCH   1   4
ATOM      4  C   UNL     1     -35.233  24.093   4.496  0.00  0.00    +0.111 C 
ATOM      5  C   UNL     1     -35.262  23.771   5.842  0.00  0.00    +0.019 C 
ATOM      6  C   UNL     1     -35.267  23.116   3.517  0.00  0.00    +0.019 C 
ATOM      7  C   UNL     1     -35.326  22.430   6.220  0.00  0.00    +0.001 C 
ATOM      8  C   UNL     1     -35.332  21.775   3.895  0.00  0.00    +0.001 C 
ATOM      9  C   UNL     1     -35.362  21.431   5.246  0.00  0.00    +0.000 C 
ENDBRANCH   1   4
BRANCH   1  10
ATOM     10  C   UNL     1     -36.550  25.940   3.004  0.00  0.00    +0.189 C 
ATOM     11  C   UNL     1     -36.516  26.713   1.895  0.00  0.00    +0.078 C 
BRANCH  11  12
ATOM     12  S   UNL     1     -35.091  27.602   1.377  0.00  0.00    -0.105 S 
ATOM     13  C   UNL     1     -35.390  29.173   2.223  0.00  0.00    +0.075 C 
ENDBRANCH  11  12
BRANCH  11  14
ATOM     14  S   UNL     1     -37.938  26.890   0.866  0.00  0.00    -0.105 S 
ATOM     15  C   UNL     1     -37.634  25.537  -0.297  0.00  0.00    +0.075 C 
ENDBRANCH  11  14
BRANCH  10  17
ATOM     16  N   UNL     1     -38.639  24.611   3.759  0.00  0.00    -0.189 NA
ATOM     17  C   UNL     1     -37.700  25.208   3.424  0.00  0.00    +0.120 C 
ENDBRANCH  10  17
ENDBRANCH   1  10
TORSDOF 5
ENDMDL
MODEL 4
REMARK VINA RESULT:      -4.7      4.297      5.832
REMARK  Name = 194051
REMARK  5 active torsions:
REMARK  status: ('A' for Active; 'I' for Inactive)
REMARK    1  A    between atoms: S_1  and  C_4
REMARK    2  A    between atoms: S_1  and  C_10
REMARK    3  A    between atoms: C_10  and  C_17
REMARK    4  A    between atoms: C_11  and  S_12
REMARK    5  A    between atoms: C_11  and  S_14
REMARK                            x       y       z     vdW  Elec       q    Type
REMARK                         _______ _______ _______ _____ _____    ______ ____
ROOT
ATOM      1  S   UNL     1     -35.570  21.565   2.322  0.00  0.00    +0.037 S 
ATOM      2  O   UNL     1     -34.761  21.949   1.185  0.00  0.00    -0.164 OA
ATOM      3  O   UNL     1     -35.430  20.250   2.912  0.00  0.00    -0.164 OA
ENDROOT
BRANCH   1   4
ATOM      4  C   UNL     1     -35.290  22.744   3.609  0.00  0.00    +0.111 C 
ATOM      5  C   UNL     1     -34.813  24.001   3.282  0.00  0.00    +0.019 C 
ATOM      6  C   UNL     1     -35.553  22.388   4.921  0.00  0.00    +0.019 C 
ATOM      7  C   UNL     1     -34.590  24.931   4.298  0.00  0.00    +0.001 C 
ATOM      8  C   UNL     1     -35.330  23.318   5.936  0.00  0.00    +0.001 C 
ATOM      9  C   UNL     1     -34.849  24.589   5.625  0.00  0.00    +0.000 C 
ENDBRANCH   1   4
BRANCH   1  10
ATOM     10  C   UNL     1     -37.240  21.853   1.942  0.00  0.00    +0.189 C 
ATOM     11  C   UNL     1     -37.878  21.082   1.032  0.00  0.00    +0.078 C 
BRANCH  11  12
ATOM     12  S   UNL     1     -37.112  19.746   0.186  0.00  0.00    -0.105 S 
ATOM     13  C   UNL     1     -38.533  19.128  -0.750  0.00  0.00    +0.075 C 
ENDBRANCH  11  12
BRANCH  11  14
ATOM     14  S   UNL     1     -39.568  21.375   0.619  0.00  0.00    -0.105 S 
ATOM     15  C   UNL     1     -39.353  22.700  -0.594  0.00  0.00    +0.075 C 
ENDBRANCH  11  14
BRANCH  10  17
ATOM     16  N   UNL     1     -38.361  23.807   3.216  0.00  0.00    -0.189 NA
ATOM     17  C   UNL     1     -37.858  22.932   2.640  0.00  0.00    +0.120 C 
ENDBRANCH  10  17
ENDBRANCH   1  10
TORSDOF 5
ENDMDL
MODEL 5
REMARK VINA RESULT:      -4.7     11.540     12.830
REMARK  Name = 194051
REMARK  5 active torsions:
REMARK  status: ('A' for Active; 'I' for Inactive)
REMARK    1  A    between atoms: S_1  and  C_4
REMARK    2  A    between atoms: S_1  and  C_10
REMARK    3  A    between atoms: C_10  and  C_17
REMARK    4  A    between atoms: C_11  and  S_12
REMARK    5  A    between atoms: C_11  and  S_14
REMARK                            x       y       z     vdW  Elec       q    Type
REMARK                         _______ _______ _______ _____ _____    ______ ____
ROOT
ATOM      1  S   UNL     1     -43.899  30.183   6.746  0.00  0.00    +0.037 S 
ATOM      2  O   UNL     1     -42.866  29.992   5.750  0.00  0.00    -0.164 OA
ATOM      3  O   UNL     1     -43.550  30.369   8.139  0.00  0.00    -0.164 OA
ENDROOT
BRANCH   1   4
ATOM      4  C   UNL     1     -44.867  31.580   6.261  0.00  0.00    +0.111 C 
ATOM      5  C   UNL     1     -46.101  31.786   6.855  0.00  0.00    +0.019 C 
ATOM      6  C   UNL     1     -44.375  32.441   5.296  0.00  0.00    +0.019 C 
ATOM      7  C   UNL     1     -46.866  32.887   6.471  0.00  0.00    +0.001 C 
ATOM      8  C   UNL     1     -45.140  33.543   4.913  0.00  0.00    +0.001 C 
ATOM      9  C   UNL     1     -46.385  33.766   5.501  0.00  0.00    +0.000 C 
ENDBRANCH   1   4
BRANCH   1  10
ATOM     10  C   UNL     1     -45.053  28.893   6.608  0.00  0.00    +0.189 C 
ATOM     11  C   UNL     1     -45.388  28.399   5.395  0.00  0.00    +0.078 C 
BRANCH  11  12
ATOM     12  S   UNL     1     -44.698  28.981   3.887  0.00  0.00    -0.105 S 
ATOM     13  C   UNL     1     -46.134  29.851   3.212  0.00  0.00    +0.075 C 
ENDBRANCH  11  12
BRANCH  11  14
ATOM     14  S   UNL     1     -46.574  27.102   5.237  0.00  0.00    -0.105 S 
ATOM     15  C   UNL     1     -45.705  26.047   4.052  0.00  0.00    +0.075 C 
ENDBRANCH  11  14
BRANCH  10  17
ATOM     16  N   UNL     1     -46.056  28.034   8.834  0.00  0.00    -0.189 NA
ATOM     17  C   UNL     1     -45.602  28.418   7.836  0.00  0.00    +0.120 C 
ENDBRANCH  10  17
ENDBRANCH   1  10
TORSDOF 5
ENDMDL
MODEL 6
REMARK VINA RESULT:      -4.6      3.317      4.439
REMARK  Name = 194051
REMARK  5 active torsions:
REMARK  status: ('A' for Active; 'I' for Inactive)
REMARK    1  A    between atoms: S_1  and  C_4
REMARK    2  A    between atoms: S_1  and  C_10
REMARK    3  A    between atoms: C_10  and  C_17
REMARK    4  A    between atoms: C_11  and  S_12
REMARK    5  A    between atoms: C_11  and  S_14
REMARK                            x       y       z     vdW  Elec       q    Type
REMARK                         _______ _______ _______ _____ _____    ______ ____
ROOT
ATOM      1  S   UNL     1     -35.593  21.909   2.805  0.00  0.00    +0.037 S 
ATOM      2  O   UNL     1     -35.528  20.543   3.281  0.00  0.00    -0.164 OA
ATOM      3  O   UNL     1     -34.826  22.319   1.647  0.00  0.00    -0.164 OA
ENDROOT
BRANCH   1   4
ATOM      4  C   UNL     1     -37.286  22.285   2.468  0.00  0.00    +0.111 C 
ATOM      5  C   UNL     1     -37.795  23.514   2.851  0.00  0.00    +0.019 C 
ATOM      6  C   UNL     1     -38.074  21.343   1.828  0.00  0.00    +0.019 C 
ATOM      7  C   UNL     1     -39.132  23.810   2.586  0.00  0.00    +0.001 C 
ATOM      8  C   UNL     1     -39.410  21.639   1.564  0.00  0.00    +0.001 C 
ATOM      9  C   UNL     1     -39.940  22.873   1.942  0.00  0.00    +0.000 C 
ENDBRANCH   1   4
BRANCH   1  10
ATOM     10  C   UNL     1     -35.254  22.979   4.130  0.00  0.00    +0.189 C 
ATOM     11  C   UNL     1     -34.730  24.205   3.904  0.00  0.00    +0.078 C 
BRANCH  11  12
ATOM     12  S   UNL     1     -34.371  24.825   2.300  0.00  0.00    -0.105 S 
ATOM     13  C   UNL     1     -33.085  26.028   2.722  0.00  0.00    +0.075 C 
ENDBRANCH  11  12
BRANCH  11  14
ATOM     14  S   UNL     1     -34.361  25.295   5.241  0.00  0.00    -0.105 S 
ATOM     15  C   UNL     1     -35.972  26.099   5.424  0.00  0.00    +0.075 C 
ENDBRANCH  11  14
BRANCH  10  17
ATOM     16  N   UNL     1     -35.813  22.058   6.483  0.00  0.00    -0.189 NA
ATOM     17  C   UNL     1     -35.558  22.473   5.429  0.00  0.00    +0.120 C 
ENDBRANCH  10  17
ENDBRANCH   1  10
TORSDOF 5
ENDMDL
MODEL 7
REMARK VINA RESULT:      -4.5      3.686      4.972
REMARK  Name = 194051
REMARK  5 active torsions:
REMARK  status: ('A' for Active; 'I' for Inactive)
REMARK    1  A    between atoms: S_1  and  C_4
REMARK    2  A    between atoms: S_1  and  C_10
REMARK    3  A    between atoms: C_10  and  C_17
REMARK    4  A    between atoms: C_11  and  S_12
REMARK    5  A    between atoms: C_11  and  S_14
REMARK                            x       y       z     vdW  Elec       q    Type
REMARK                         _______ _______ _______ _____ _____    ______ ____
ROOT
ATOM      1  S   UNL     1     -35.945  21.700   2.816  0.00  0.00    +0.037 S 
ATOM      2  O   UNL     1     -35.358  20.633   3.599  0.00  0.00    -0.164 OA
ATOM      3  O   UNL     1     -37.274  21.556   2.260  0.00  0.00    -0.164 OA
ENDROOT
BRANCH   1   4
ATOM      4  C   UNL     1     -35.952  23.161   3.810  0.00  0.00    +0.111 C 
ATOM      5  C   UNL     1     -34.969  23.332   4.769  0.00  0.00    +0.019 C 
ATOM      6  C   UNL     1     -36.942  24.109   3.612  0.00  0.00    +0.019 C 
ATOM      7  C   UNL     1     -34.976  24.484   5.555  0.00  0.00    +0.001 C 
ATOM      8  C   UNL     1     -36.949  25.261   4.397  0.00  0.00    +0.001 C 
ATOM      9  C   UNL     1     -35.966  25.449   5.369  0.00  0.00    +0.000 C 
ENDBRANCH   1   4
BRANCH   1  10
ATOM     10  C   UNL     1     -34.836  22.141   1.554  0.00  0.00    +0.189 C 
ATOM     11  C   UNL     1     -34.352  21.204   0.709  0.00  0.00    +0.078 C 
BRANCH  11  12
ATOM     12  S   UNL     1     -34.794  19.505   0.789  0.00  0.00    -0.105 S 
ATOM     13  C   UNL     1     -33.224  18.810   1.363  0.00  0.00    +0.075 C 
ENDBRANCH  11  12
BRANCH  11  14
ATOM     14  S   UNL     1     -33.209  21.633  -0.565  0.00  0.00    -0.105 S 
ATOM     15  C   UNL     1     -34.239  21.296  -2.014  0.00  0.00    +0.075 C 
ENDBRANCH  11  14
BRANCH  10  17
ATOM     16  N   UNL     1     -34.200  24.647   1.431  0.00  0.00    -0.189 NA
ATOM     17  C   UNL     1     -34.490  23.524   1.488  0.00  0.00    +0.120 C 
ENDBRANCH  10  17
ENDBRANCH   1  10
TORSDOF 5
ENDMDL
MODEL 8
REMARK VINA RESULT:      -4.4      2.213      2.898
REMARK  Name = 194051
REMARK  5 active torsions:
REMARK  status: ('A' for Active; 'I' for Inactive)
REMARK    1  A    between atoms: S_1  and  C_4
REMARK    2  A    between atoms: S_1  and  C_10
REMARK    3  A    between atoms: C_10  and  C_17
REMARK    4  A    between atoms: C_11  and  S_12
REMARK    5  A    between atoms: C_11  and  S_14
REMARK                            x       y       z     vdW  Elec       q    Type
REMARK                         _______ _______ _______ _____ _____    ______ ____
ROOT
ATOM      1  S   UNL     1     -36.562  25.551   4.006  0.00  0.00    +0.037 S 
ATOM      2  O   UNL     1     -37.989  25.465   3.776  0.00  0.00    -0.164 OA
ATOM      3  O   UNL     1     -36.032  26.485   4.978  0.00  0.00    -0.164 OA
ENDROOT
BRANCH   1   4
ATOM      4  C   UNL     1     -35.989  23.944   4.462  0.00  0.00    +0.111 C 
ATOM      5  C   UNL     1     -35.546  23.726   5.756  0.00  0.00    +0.019 C 
ATOM      6  C   UNL     1     -35.992  22.931   3.518  0.00  0.00    +0.019 C 
ATOM      7  C   UNL     1     -35.091  22.457   6.115  0.00  0.00    +0.001 C 
ATOM      8  C   UNL     1     -35.537  21.663   3.878  0.00  0.00    +0.001 C 
ATOM      9  C   UNL     1     -35.087  21.425   5.176  0.00  0.00    +0.000 C 
ENDBRANCH   1   4
BRANCH   1  10
ATOM     10  C   UNL     1     -35.764  25.788   2.482  0.00  0.00    +0.189 C 
ATOM     11  C   UNL     1     -34.455  26.123   2.439  0.00  0.00    +0.078 C 
BRANCH  11  12
ATOM     12  S   UNL     1     -33.458  26.326   3.872  0.00  0.00    -0.105 S 
ATOM     13  C   UNL     1     -33.093  28.093   3.738  0.00  0.00    +0.075 C 
ENDBRANCH  11  12
BRANCH  11  14
ATOM     14  S   UNL     1     -33.635  26.387   0.899  0.00  0.00    -0.105 S 
ATOM     15  C   UNL     1     -33.032  24.710   0.591  0.00  0.00    +0.075 C 
ENDBRANCH  11  14
BRANCH  10  17
ATOM     16  N   UNL     1     -37.245  25.471   0.384  0.00  0.00    -0.189 NA
ATOM     17  C   UNL     1     -36.577  25.612   1.323  0.00  0.00    +0.120 C 
ENDBRANCH  10  17
ENDBRANCH   1  10
TORSDOF 5
ENDMDL
MODEL 9
REMARK VINA RESULT:      -4.4      3.446      4.869
REMARK  Name = 194051
REMARK  5 active torsions:
REMARK  status: ('A' for Active; 'I' for Inactive)
REMARK    1  A    between atoms: S_1  and  C_4
REMARK    2  A    between atoms: S_1  and  C_10
REMARK    3  A    between atoms: C_10  and  C_17
REMARK    4  A    between atoms: C_11  and  S_12
REMARK    5  A    between atoms: C_11  and  S_14
REMARK                            x       y       z     vdW  Elec       q    Type
REMARK                         _______ _______ _______ _____ _____    ______ ____
ROOT
ATOM      1  S   UNL     1     -35.520  23.299   1.860  0.00  0.00    +0.037 S 
ATOM      2  O   UNL     1     -34.423  24.182   1.522  0.00  0.00    -0.164 OA
ATOM      3  O   UNL     1     -35.672  22.026   1.186  0.00  0.00    -0.164 OA
ENDROOT
BRANCH   1   4
ATOM      4  C   UNL     1     -35.432  22.964   3.592  0.00  0.00    +0.111 C 
ATOM      5  C   UNL     1     -35.320  21.652   4.022  0.00  0.00    +0.019 C 
ATOM      6  C   UNL     1     -35.478  24.018   4.489  0.00  0.00    +0.019 C 
ATOM      7  C   UNL     1     -35.253  21.387   5.390  0.00  0.00    +0.001 C 
ATOM      8  C   UNL     1     -35.410  23.752   5.856  0.00  0.00    +0.001 C 
ATOM      9  C   UNL     1     -35.297  22.437   6.307  0.00  0.00    +0.000 C 
ENDBRANCH   1   4
BRANCH   1  10
ATOM     10  C   UNL     1     -37.007  24.190   1.751  0.00  0.00    +0.189 C 
ATOM     11  C   UNL     1     -38.196  23.546   1.782  0.00  0.00    +0.078 C 
BRANCH  11  12
ATOM     12  S   UNL     1     -38.351  21.804   1.949  0.00  0.00    -0.105 S 
ATOM     13  C   UNL     1     -39.789  21.525   0.887  0.00  0.00    +0.075 C 
ENDBRANCH  11  12
BRANCH  11  14
ATOM     14  S   UNL     1     -39.714  24.435   1.652  0.00  0.00    -0.105 S 
ATOM     15  C   UNL     1     -39.927  24.917   3.383  0.00  0.00    +0.075 C 
ENDBRANCH  11  14
BRANCH  10  17
ATOM     16  N   UNL     1     -36.758  26.756   1.527  0.00  0.00    -0.189 NA
ATOM     17  C   UNL     1     -36.874  25.605   1.626  0.00  0.00    +0.120 C 
ENDBRANCH  10  17
ENDBRANCH   1  10
TORSDOF 5
ENDMDL
