MODEL 1
REMARK VINA RESULT:      -6.0      0.000      0.000
REMARK  Name = 57704514
REMARK  5 active torsions:
REMARK  status: ('A' for Active; 'I' for Inactive)
REMARK    1  A    between atoms: C2*_2  and  O2*_16
REMARK    2  A    between atoms: C3*_3  and  O3*_18
REMARK    3  A    between atoms: C4*_4  and  C5*_20
REMARK    4  A    between atoms: C1*_5  and  N_7
REMARK    5  A    between atoms: C5*_20  and  O5*_21
REMARK                            x       y       z     vdW  Elec       q    Type
REMARK                         _______ _______ _______ _____ _____    ______ ____
ROOT
ATOM      1  O4* UNL     1     -34.452  24.307   5.382  0.00  0.00    -0.332 OA
ATOM      2  C2* UNL     1     -36.386  25.055   4.213  0.00  0.00    +0.187 C 
ATOM      3  C3* UNL     1     -35.721  26.230   4.894  0.00  0.00    +0.171 C 
ATOM      4  C4* UNL     1     -34.309  25.705   5.082  0.00  0.00    +0.175 C 
ATOM      5  C1* UNL     1     -35.741  23.873   4.921  0.00  0.00    +0.234 C 
ENDROOT
BRANCH   5   7
ATOM      6  O   UNL     1     -35.293  21.204   5.737  0.00  0.00    -0.192 OA
ATOM      7  N   UNL     1     -35.571  22.746   4.049  0.00  0.00    -0.177 N 
ATOM      8  N   UNL     1     -35.201  20.439   3.600  0.00  0.00    -0.252 NA
ATOM      9  N   UNL     1     -35.476  21.967   1.825  0.00  0.00    -0.174 NA
ATOM     10  N   UNL     1     -35.109  19.676   1.408  0.00  0.00    -0.293 N 
ATOM     11  C   UNL     1     -35.351  21.446   4.531  0.00  0.00    +0.282 C 
ATOM     12  C   UNL     1     -35.619  22.917   2.683  0.00  0.00    +0.245 C 
ATOM     13  C   UNL     1     -35.261  20.695   2.319  0.00  0.00    +0.151 C 
ATOM     14  H   UNL     1     -34.954  18.756   1.722  0.00  0.00    +0.155 HD
ATOM     15  H   UNL     1     -35.155  19.867   0.444  0.00  0.00    +0.155 HD
ENDBRANCH   5   7
BRANCH   2  16
ATOM     16  O2* UNL     1     -37.788  25.083   4.414  0.00  0.00    -0.378 OA
ATOM     17  H2* UNL     1     -37.991  25.601   5.208  0.00  0.00    +0.211 HD
ENDBRANCH   2  16
BRANCH   3  18
ATOM     18  O3* UNL     1     -35.731  27.389   4.082  0.00  0.00    -0.379 OA
ATOM     19  H3* UNL     1     -36.442  27.318   3.426  0.00  0.00    +0.211 HD
ENDBRANCH   3  18
BRANCH   4  20
ATOM     20  C5* UNL     1     -33.553  26.395   6.202  0.00  0.00    +0.169 C 
BRANCH  20  21
ATOM     21  O5* UNL     1     -33.065  27.639   5.727  0.00  0.00    -0.379 OA
ATOM     22  H5* UNL     1     -33.499  28.362   6.207  0.00  0.00    +0.211 HD
ENDBRANCH  20  21
ENDBRANCH   4  20
TORSDOF 5
ENDMDL
MODEL 2
REMARK VINA RESULT:      -5.9      3.542      6.134
REMARK  Name = 57704514
REMARK  5 active torsions:
REMARK  status: ('A' for Active; 'I' for Inactive)
REMARK    1  A    between atoms: C2*_2  and  O2*_16
REMARK    2  A    between atoms: C3*_3  and  O3*_18
REMARK    3  A    between atoms: C4*_4  and  C5*_20
REMARK    4  A    between atoms: C1*_5  and  N_7
REMARK    5  A    between atoms: C5*_20  and  O5*_21
REMARK                            x       y       z     vdW  Elec       q    Type
REMARK                         _______ _______ _______ _____ _____    ______ ____
ROOT
ATOM      1  O4* UNL     1     -34.258  24.606   4.802  0.00  0.00    -0.332 OA
ATOM      2  C2* UNL     1     -35.756  26.315   4.094  0.00  0.00    +0.187 C 
ATOM      3  C3* UNL     1     -36.462  24.977   4.058  0.00  0.00    +0.171 C 
ATOM      4  C4* UNL     1     -35.608  24.166   5.016  0.00  0.00    +0.175 C 
ATOM      5  C1* UNL     1     -34.296  25.900   4.179  0.00  0.00    +0.234 C 
ENDROOT
BRANCH   5   7
ATOM      6  O   UNL     1     -32.963  28.192   3.197  0.00  0.00    -0.192 OA
ATOM      7  N   UNL     1     -33.517  26.818   4.961  0.00  0.00    -0.177 N 
ATOM      8  N   UNL     1     -32.160  28.751   5.247  0.00  0.00    -0.252 NA
ATOM      9  N   UNL     1     -32.688  27.385   7.095  0.00  0.00    -0.174 NA
ATOM     10  N   UNL     1     -31.347  29.306   7.351  0.00  0.00    -0.293 N 
ATOM     11  C   UNL     1     -32.883  27.938   4.399  0.00  0.00    +0.282 C 
ATOM     12  C   UNL     1     -33.368  26.617   6.316  0.00  0.00    +0.245 C 
ATOM     13  C   UNL     1     -32.073  28.481   6.524  0.00  0.00    +0.151 C 
ATOM     14  H   UNL     1     -30.894  30.097   6.980  0.00  0.00    +0.155 HD
ATOM     15  H   UNL     1     -31.281  29.104   8.311  0.00  0.00    +0.155 HD
ENDBRANCH   5   7
BRANCH   2  16
ATOM     16  O2* UNL     1     -36.022  27.057   2.917  0.00  0.00    -0.378 OA
ATOM     17  H2* UNL     1     -35.189  27.395   2.553  0.00  0.00    +0.211 HD
ENDBRANCH   2  16
BRANCH   3  18
ATOM     18  O3* UNL     1     -37.797  25.068   4.514  0.00  0.00    -0.379 OA
ATOM     19  H3* UNL     1     -38.255  24.230   4.345  0.00  0.00    +0.211 HD
ENDBRANCH   3  18
BRANCH   4  20
ATOM     20  C5* UNL     1     -35.702  22.669   4.787  0.00  0.00    +0.169 C 
BRANCH  20  21
ATOM     21  O5* UNL     1     -36.829  22.400   3.969  0.00  0.00    -0.379 OA
ATOM     22  H5* UNL     1     -36.826  23.000   3.206  0.00  0.00    +0.211 HD
ENDBRANCH  20  21
ENDBRANCH   4  20
TORSDOF 5
ENDMDL
MODEL 3
REMARK VINA RESULT:      -5.5      1.602      2.026
REMARK  Name = 57704514
REMARK  5 active torsions:
REMARK  status: ('A' for Active; 'I' for Inactive)
REMARK    1  A    between atoms: C2*_2  and  O2*_16
REMARK    2  A    between atoms: C3*_3  and  O3*_18
REMARK    3  A    between atoms: C4*_4  and  C5*_20
REMARK    4  A    between atoms: C1*_5  and  N_7
REMARK    5  A    between atoms: C5*_20  and  O5*_21
REMARK                            x       y       z     vdW  Elec       q    Type
REMARK                         _______ _______ _______ _____ _____    ______ ____
ROOT
ATOM      1  O4* UNL     1     -34.827  24.628   2.788  0.00  0.00    -0.332 OA
ATOM      2  C2* UNL     1     -36.074  24.024   4.724  0.00  0.00    +0.187 C 
ATOM      3  C3* UNL     1     -35.746  25.499   4.774  0.00  0.00    +0.171 C 
ATOM      4  C4* UNL     1     -35.483  25.795   3.308  0.00  0.00    +0.175 C 
ATOM      5  C1* UNL     1     -35.111  23.522   3.660  0.00  0.00    +0.234 C 
ENDROOT
BRANCH   5   7
ATOM      6  O   UNL     1     -35.085  20.785   4.369  0.00  0.00    -0.192 OA
ATOM      7  N   UNL     1     -35.668  22.449   2.887  0.00  0.00    -0.177 N 
ATOM      8  N   UNL     1     -36.186  20.162   2.482  0.00  0.00    -0.252 NA
ATOM      9  N   UNL     1     -36.810  21.816   0.922  0.00  0.00    -0.174 NA
ATOM     10  N   UNL     1     -37.310  19.544   0.546  0.00  0.00    -0.293 N 
ATOM     11  C   UNL     1     -35.616  21.110   3.306  0.00  0.00    +0.282 C 
ATOM     12  C   UNL     1     -36.284  22.713   1.682  0.00  0.00    +0.245 C 
ATOM     13  C   UNL     1     -36.749  20.506   1.353  0.00  0.00    +0.151 C 
ATOM     14  H   UNL     1     -37.286  18.599   0.819  0.00  0.00    +0.155 HD
ATOM     15  H   UNL     1     -37.735  19.801  -0.303  0.00  0.00    +0.155 HD
ENDBRANCH   5   7
BRANCH   2  16
ATOM     16  O2* UNL     1     -35.834  23.411   5.978  0.00  0.00    -0.378 OA
ATOM     17  H2* UNL     1     -35.840  24.085   6.675  0.00  0.00    +0.211 HD
ENDBRANCH   2  16
BRANCH   3  18
ATOM     18  O3* UNL     1     -36.828  26.267   5.265  0.00  0.00    -0.379 OA
ATOM     19  H3* UNL     1     -37.624  26.073   4.746  0.00  0.00    +0.211 HD
ENDBRANCH   3  18
BRANCH   4  20
ATOM     20  C5* UNL     1     -34.610  27.016   3.087  0.00  0.00    +0.169 C 
BRANCH  20  21
ATOM     21  O5* UNL     1     -35.273  28.155   3.610  0.00  0.00    -0.379 OA
ATOM     22  H5* UNL     1     -35.799  28.573   2.909  0.00  0.00    +0.211 HD
ENDBRANCH  20  21
ENDBRANCH   4  20
TORSDOF 5
ENDMDL
MODEL 4
REMARK VINA RESULT:      -5.4      2.868      5.880
REMARK  Name = 57704514
REMARK  5 active torsions:
REMARK  status: ('A' for Active; 'I' for Inactive)
REMARK    1  A    between atoms: C2*_2  and  O2*_16
REMARK    2  A    between atoms: C3*_3  and  O3*_18
REMARK    3  A    between atoms: C4*_4  and  C5*_20
REMARK    4  A    between atoms: C1*_5  and  N_7
REMARK    5  A    between atoms: C5*_20  and  O5*_21
REMARK                            x       y       z     vdW  Elec       q    Type
REMARK                         _______ _______ _______ _____ _____    ______ ____
ROOT
ATOM      1  O4* UNL     1     -37.338  22.196   1.999  0.00  0.00    -0.332 OA
ATOM      2  C2* UNL     1     -35.541  21.377   3.327  0.00  0.00    +0.187 C 
ATOM      3  C3* UNL     1     -35.955  20.319   2.330  0.00  0.00    +0.171 C 
ATOM      4  C4* UNL     1     -36.654  21.160   1.277  0.00  0.00    +0.175 C 
ATOM      5  C1* UNL     1     -36.729  22.326   3.293  0.00  0.00    +0.234 C 
ENDROOT
BRANCH   5   7
ATOM      6  O   UNL     1     -36.066  23.518   5.770  0.00  0.00    -0.192 OA
ATOM      7  N   UNL     1     -36.336  23.693   3.489  0.00  0.00    -0.177 N 
ATOM      8  N   UNL     1     -35.657  25.542   4.823  0.00  0.00    -0.252 NA
ATOM      9  N   UNL     1     -35.916  25.789   2.493  0.00  0.00    -0.174 NA
ATOM     10  N   UNL     1     -35.244  27.604   3.837  0.00  0.00    -0.293 N 
ATOM     11  C   UNL     1     -36.021  24.213   4.754  0.00  0.00    +0.282 C 
ATOM     12  C   UNL     1     -36.257  24.549   2.412  0.00  0.00    +0.245 C 
ATOM     13  C   UNL     1     -35.610  26.282   3.745  0.00  0.00    +0.151 C 
ATOM     14  H   UNL     1     -35.018  27.991   4.714  0.00  0.00    +0.155 HD
ATOM     15  H   UNL     1     -35.208  28.161   3.028  0.00  0.00    +0.155 HD
ENDBRANCH   5   7
BRANCH   2  16
ATOM     16  O2* UNL     1     -35.358  20.814   4.614  0.00  0.00    -0.378 OA
ATOM     17  H2* UNL     1     -34.410  20.723   4.796  0.00  0.00    +0.211 HD
ENDBRANCH   2  16
BRANCH   3  18
ATOM     18  O3* UNL     1     -34.842  19.638   1.784  0.00  0.00    -0.379 OA
ATOM     19  H3* UNL     1     -34.024  20.019   2.141  0.00  0.00    +0.211 HD
ENDBRANCH   3  18
BRANCH   4  20
ATOM     20  C5* UNL     1     -37.647  20.375   0.440  0.00  0.00    +0.169 C 
BRANCH  20  21
ATOM     21  O5* UNL     1     -37.437  18.990   0.659  0.00  0.00    -0.379 OA
ATOM     22  H5* UNL     1     -37.570  18.787   1.598  0.00  0.00    +0.211 HD
ENDBRANCH  20  21
ENDBRANCH   4  20
TORSDOF 5
ENDMDL
MODEL 5
REMARK VINA RESULT:      -5.4      3.408      5.977
REMARK  Name = 57704514
REMARK  5 active torsions:
REMARK  status: ('A' for Active; 'I' for Inactive)
REMARK    1  A    between atoms: C2*_2  and  O2*_16
REMARK    2  A    between atoms: C3*_3  and  O3*_18
REMARK    3  A    between atoms: C4*_4  and  C5*_20
REMARK    4  A    between atoms: C1*_5  and  N_7
REMARK    5  A    between atoms: C5*_20  and  O5*_21
REMARK                            x       y       z     vdW  Elec       q    Type
REMARK                         _______ _______ _______ _____ _____    ______ ____
ROOT
ATOM      1  O4* UNL     1     -34.359  24.950   2.898  0.00  0.00    -0.332 OA
ATOM      2  C2* UNL     1     -36.079  25.178   4.527  0.00  0.00    +0.187 C 
ATOM      3  C3* UNL     1     -36.335  23.944   3.691  0.00  0.00    +0.171 C 
ATOM      4  C4* UNL     1     -34.947  23.663   3.144  0.00  0.00    +0.175 C 
ATOM      5  C1* UNL     1     -35.062  25.927   3.681  0.00  0.00    +0.234 C 
ENDROOT
BRANCH   5   7
ATOM      6  O   UNL     1     -33.564  28.177   2.850  0.00  0.00    -0.192 OA
ATOM      7  N   UNL     1     -34.117  26.650   4.484  0.00  0.00    -0.177 N 
ATOM      8  N   UNL     1     -32.526  28.379   4.861  0.00  0.00    -0.252 NA
ATOM      9  N   UNL     1     -33.045  26.847   6.576  0.00  0.00    -0.174 NA
ATOM     10  N   UNL     1     -31.474  28.569   6.922  0.00  0.00    -0.293 N 
ATOM     11  C   UNL     1     -33.409  27.761   3.999  0.00  0.00    +0.282 C 
ATOM     12  C   UNL     1     -33.875  26.261   5.784  0.00  0.00    +0.245 C 
ATOM     13  C   UNL     1     -32.359  27.938   6.081  0.00  0.00    +0.151 C 
ATOM     14  H   UNL     1     -30.966  29.350   6.605  0.00  0.00    +0.155 HD
ATOM     15  H   UNL     1     -31.348  28.239   7.840  0.00  0.00    +0.155 HD
ENDBRANCH   5   7
BRANCH   2  16
ATOM     16  O2* UNL     1     -37.269  25.926   4.699  0.00  0.00    -0.378 OA
ATOM     17  H2* UNL     1     -37.266  26.683   4.093  0.00  0.00    +0.211 HD
ENDBRANCH   2  16
BRANCH   3  18
ATOM     18  O3* UNL     1     -36.805  22.861   4.471  0.00  0.00    -0.379 OA
ATOM     19  H3* UNL     1     -37.130  22.159   3.887  0.00  0.00    +0.211 HD
ENDBRANCH   3  18
BRANCH   4  20
ATOM     20  C5* UNL     1     -34.957  22.850   1.862  0.00  0.00    +0.169 C 
BRANCH  20  21
ATOM     21  O5* UNL     1     -35.432  21.546   2.150  0.00  0.00    -0.379 OA
ATOM     22  H5* UNL     1     -35.300  20.975   1.377  0.00  0.00    +0.211 HD
ENDBRANCH  20  21
ENDBRANCH   4  20
TORSDOF 5
ENDMDL
MODEL 6
REMARK VINA RESULT:      -5.4      2.854      5.537
REMARK  Name = 57704514
REMARK  5 active torsions:
REMARK  status: ('A' for Active; 'I' for Inactive)
REMARK    1  A    between atoms: C2*_2  and  O2*_16
REMARK    2  A    between atoms: C3*_3  and  O3*_18
REMARK    3  A    between atoms: C4*_4  and  C5*_20
REMARK    4  A    between atoms: C1*_5  and  N_7
REMARK    5  A    between atoms: C5*_20  and  O5*_21
REMARK                            x       y       z     vdW  Elec       q    Type
REMARK                         _______ _______ _______ _____ _____    ______ ____
ROOT
ATOM      1  O4* UNL     1     -35.955  23.343   2.629  0.00  0.00    -0.332 OA
ATOM      2  C2* UNL     1     -35.374  23.030   4.916  0.00  0.00    +0.187 C 
ATOM      3  C3* UNL     1     -35.821  21.712   4.323  0.00  0.00    +0.171 C 
ATOM      4  C4* UNL     1     -35.606  21.966   2.842  0.00  0.00    +0.175 C 
ATOM      5  C1* UNL     1     -35.886  24.028   3.890  0.00  0.00    +0.234 C 
ENDROOT
BRANCH   5   7
ATOM      6  O   UNL     1     -35.880  26.310   5.560  0.00  0.00    -0.192 OA
ATOM      7  N   UNL     1     -35.017  25.163   3.758  0.00  0.00    -0.177 N 
ATOM      8  N   UNL     1     -34.190  27.297   4.407  0.00  0.00    -0.252 NA
ATOM      9  N   UNL     1     -33.263  26.178   2.552  0.00  0.00    -0.174 NA
ATOM     10  N   UNL     1     -32.463  28.292   3.216  0.00  0.00    -0.293 N 
ATOM     11  C   UNL     1     -35.075  26.262   4.630  0.00  0.00    +0.282 C 
ATOM     12  C   UNL     1     -34.082  25.203   2.747  0.00  0.00    +0.245 C 
ATOM     13  C   UNL     1     -33.335  27.249   3.419  0.00  0.00    +0.151 C 
ATOM     14  H   UNL     1     -32.484  29.074   3.814  0.00  0.00    +0.155 HD
ATOM     15  H   UNL     1     -31.818  28.257   2.474  0.00  0.00    +0.155 HD
ENDBRANCH   5   7
BRANCH   2  16
ATOM     16  O2* UNL     1     -35.965  23.237   6.187  0.00  0.00    -0.378 OA
ATOM     17  H2* UNL     1     -36.930  23.169   6.111  0.00  0.00    +0.211 HD
ENDBRANCH   2  16
BRANCH   3  18
ATOM     18  O3* UNL     1     -35.029  20.630   4.776  0.00  0.00    -0.379 OA
ATOM     19  H3* UNL     1     -35.606  19.928   5.115  0.00  0.00    +0.211 HD
ENDBRANCH   3  18
BRANCH   4  20
ATOM     20  C5* UNL     1     -36.455  21.079   1.950  0.00  0.00    +0.169 C 
BRANCH  20  21
ATOM     21  O5* UNL     1     -36.769  19.888   2.652  0.00  0.00    -0.379 OA
ATOM     22  H5* UNL     1     -37.365  19.343   2.115  0.00  0.00    +0.211 HD
ENDBRANCH  20  21
ENDBRANCH   4  20
TORSDOF 5
ENDMDL
MODEL 7
REMARK VINA RESULT:      -5.3      2.798      4.331
REMARK  Name = 57704514
REMARK  5 active torsions:
REMARK  status: ('A' for Active; 'I' for Inactive)
REMARK    1  A    between atoms: C2*_2  and  O2*_16
REMARK    2  A    between atoms: C3*_3  and  O3*_18
REMARK    3  A    between atoms: C4*_4  and  C5*_20
REMARK    4  A    between atoms: C1*_5  and  N_7
REMARK    5  A    between atoms: C5*_20  and  O5*_21
REMARK                            x       y       z     vdW  Elec       q    Type
REMARK                         _______ _______ _______ _____ _____    ______ ____
ROOT
ATOM      1  O4* UNL     1     -36.666  23.519   4.566  0.00  0.00    -0.332 OA
ATOM      2  C2* UNL     1     -35.692  25.647   4.133  0.00  0.00    +0.187 C 
ATOM      3  C3* UNL     1     -34.816  24.876   5.096  0.00  0.00    +0.171 C 
ATOM      4  C4* UNL     1     -35.254  23.449   4.818  0.00  0.00    +0.175 C 
ATOM      5  C1* UNL     1     -36.996  24.868   4.200  0.00  0.00    +0.234 C 
ENDROOT
BRANCH   5   7
ATOM      6  O   UNL     1     -39.794  24.658   3.846  0.00  0.00    -0.192 OA
ATOM      7  N   UNL     1     -37.685  24.855   2.941  0.00  0.00    -0.177 N 
ATOM      8  N   UNL     1     -39.635  24.746   1.582  0.00  0.00    -0.252 NA
ATOM      9  N   UNL     1     -37.505  24.945   0.591  0.00  0.00    -0.174 NA
ATOM     10  N   UNL     1     -39.453  24.835  -0.732  0.00  0.00    -0.293 N 
ATOM     11  C   UNL     1     -39.081  24.748   2.845  0.00  0.00    +0.282 C 
ATOM     12  C   UNL     1     -36.973  24.950   1.764  0.00  0.00    +0.245 C 
ATOM     13  C   UNL     1     -38.880  24.839   0.518  0.00  0.00    +0.151 C 
ATOM     14  H   UNL     1     -40.430  24.761  -0.824  0.00  0.00    +0.155 HD
ATOM     15  H   UNL     1     -38.886  24.906  -1.533  0.00  0.00    +0.155 HD
ENDBRANCH   5   7
BRANCH   2  16
ATOM     16  O2* UNL     1     -35.859  26.985   4.565  0.00  0.00    -0.378 OA
ATOM     17  H2* UNL     1     -36.603  27.035   5.186  0.00  0.00    +0.211 HD
ENDBRANCH   2  16
BRANCH   3  18
ATOM     18  O3* UNL     1     -33.440  25.051   4.818  0.00  0.00    -0.379 OA
ATOM     19  H3* UNL     1     -33.156  24.394   4.164  0.00  0.00    +0.211 HD
ENDBRANCH   3  18
BRANCH   4  20
ATOM     20  C5* UNL     1     -34.985  22.501   5.972  0.00  0.00    +0.169 C 
BRANCH  20  21
ATOM     21  O5* UNL     1     -36.204  21.887   6.355  0.00  0.00    -0.379 OA
ATOM     22  H5* UNL     1     -36.197  20.955   6.082  0.00  0.00    +0.211 HD
ENDBRANCH  20  21
ENDBRANCH   4  20
TORSDOF 5
ENDMDL
MODEL 8
REMARK VINA RESULT:      -5.2      3.391      5.931
REMARK  Name = 57704514
REMARK  5 active torsions:
REMARK  status: ('A' for Active; 'I' for Inactive)
REMARK    1  A    between atoms: C2*_2  and  O2*_16
REMARK    2  A    between atoms: C3*_3  and  O3*_18
REMARK    3  A    between atoms: C4*_4  and  C5*_20
REMARK    4  A    between atoms: C1*_5  and  N_7
REMARK    5  A    between atoms: C5*_20  and  O5*_21
REMARK                            x       y       z     vdW  Elec       q    Type
REMARK                         _______ _______ _______ _____ _____    ______ ____
ROOT
ATOM      1  O4* UNL     1     -34.993  22.273   0.756  0.00  0.00    -0.332 OA
ATOM      2  C2* UNL     1     -35.681  20.653   2.359  0.00  0.00    +0.187 C 
ATOM      3  C3* UNL     1     -34.761  20.005   1.348  0.00  0.00    +0.171 C 
ATOM      4  C4* UNL     1     -34.023  21.214   0.801  0.00  0.00    +0.175 C 
ATOM      5  C1* UNL     1     -36.065  21.945   1.655  0.00  0.00    +0.234 C 
ENDROOT
BRANCH   5   7
ATOM      6  O   UNL     1     -38.503  22.665   2.890  0.00  0.00    -0.192 OA
ATOM      7  N   UNL     1     -36.251  23.029   2.576  0.00  0.00    -0.177 N 
ATOM      8  N   UNL     1     -37.558  24.392   4.023  0.00  0.00    -0.252 NA
ATOM      9  N   UNL     1     -35.257  24.820   3.745  0.00  0.00    -0.174 NA
ATOM     10  N   UNL     1     -36.575  26.154   5.172  0.00  0.00    -0.293 N 
ATOM     11  C   UNL     1     -37.497  23.326   3.150  0.00  0.00    +0.282 C 
ATOM     12  C   UNL     1     -35.183  23.826   2.929  0.00  0.00    +0.245 C 
ATOM     13  C   UNL     1     -36.491  25.096   4.299  0.00  0.00    +0.151 C 
ATOM     14  H   UNL     1     -37.438  26.382   5.587  0.00  0.00    +0.155 HD
ATOM     15  H   UNL     1     -35.772  26.684   5.381  0.00  0.00    +0.155 HD
ENDBRANCH   5   7
BRANCH   2  16
ATOM     16  O2* UNL     1     -36.811  19.837   2.607  0.00  0.00    -0.378 OA
ATOM     17  H2* UNL     1     -36.583  19.158   3.261  0.00  0.00    +0.211 HD
ENDBRANCH   2  16
BRANCH   3  18
ATOM     18  O3* UNL     1     -33.866  19.092   1.953  0.00  0.00    -0.379 OA
ATOM     19  H3* UNL     1     -34.362  18.481   2.520  0.00  0.00    +0.211 HD
ENDBRANCH   3  18
BRANCH   4  20
ATOM     20  C5* UNL     1     -33.445  20.991  -0.584  0.00  0.00    +0.169 C 
BRANCH  20  21
ATOM     21  O5* UNL     1     -33.652  19.638  -0.955  0.00  0.00    -0.379 OA
ATOM     22  H5* UNL     1     -32.837  19.279  -1.340  0.00  0.00    +0.211 HD
ENDBRANCH  20  21
ENDBRANCH   4  20
TORSDOF 5
ENDMDL
MODEL 9
REMARK VINA RESULT:      -5.1      3.243      5.550
REMARK  Name = 57704514
REMARK  5 active torsions:
REMARK  status: ('A' for Active; 'I' for Inactive)
REMARK    1  A    between atoms: C2*_2  and  O2*_16
REMARK    2  A    between atoms: C3*_3  and  O3*_18
REMARK    3  A    between atoms: C4*_4  and  C5*_20
REMARK    4  A    between atoms: C1*_5  and  N_7
REMARK    5  A    between atoms: C5*_20  and  O5*_21
REMARK                            x       y       z     vdW  Elec       q    Type
REMARK                         _______ _______ _______ _____ _____    ______ ____
ROOT
ATOM      1  O4* UNL     1     -36.179  23.700   2.685  0.00  0.00    -0.332 OA
ATOM      2  C2* UNL     1     -37.749  25.429   3.145  0.00  0.00    +0.187 C 
ATOM      3  C3* UNL     1     -38.473  24.224   2.586  0.00  0.00    +0.171 C 
ATOM      4  C4* UNL     1     -37.477  23.117   2.880  0.00  0.00    +0.175 C 
ATOM      5  C1* UNL     1     -36.305  25.128   2.778  0.00  0.00    +0.234 C 
ENDROOT
BRANCH   5   7
ATOM      6  O   UNL     1     -33.586  25.762   2.330  0.00  0.00    -0.192 OA
ATOM      7  N   UNL     1     -35.382  25.615   3.764  0.00  0.00    -0.177 N 
ATOM      8  N   UNL     1     -33.247  26.371   4.492  0.00  0.00    -0.252 NA
ATOM      9  N   UNL     1     -35.044  26.243   6.012  0.00  0.00    -0.174 NA
ATOM     10  N   UNL     1     -32.919  26.989   6.706  0.00  0.00    -0.293 N 
ATOM     11  C   UNL     1     -34.043  25.909   3.464  0.00  0.00    +0.282 C 
ATOM     12  C   UNL     1     -35.800  25.812   5.062  0.00  0.00    +0.245 C 
ATOM     13  C   UNL     1     -33.730  26.527   5.697  0.00  0.00    +0.151 C 
ATOM     14  H   UNL     1     -31.976  27.202   6.520  0.00  0.00    +0.155 HD
ATOM     15  H   UNL     1     -33.282  27.107   7.613  0.00  0.00    +0.155 HD
ENDBRANCH   5   7
BRANCH   2  16
ATOM     16  O2* UNL     1     -38.207  26.621   2.532  0.00  0.00    -0.378 OA
ATOM     17  H2* UNL     1     -37.577  26.897   1.849  0.00  0.00    +0.211 HD
ENDBRANCH   2  16
BRANCH   3  18
ATOM     18  O3* UNL     1     -39.704  23.992   3.244  0.00  0.00    -0.379 OA
ATOM     19  H3* UNL     1     -40.239  24.801   3.223  0.00  0.00    +0.211 HD
ENDBRANCH   3  18
BRANCH   4  20
ATOM     20  C5* UNL     1     -37.636  21.907   1.978  0.00  0.00    +0.169 C 
BRANCH  20  21
ATOM     21  O5* UNL     1     -38.798  21.194   2.368  0.00  0.00    -0.379 OA
ATOM     22  H5* UNL     1     -38.833  20.349   1.894  0.00  0.00    +0.211 HD
ENDBRANCH  20  21
ENDBRANCH   4  20
TORSDOF 5
ENDMDL
