MODEL 1
REMARK VINA RESULT:      -6.3      0.000      0.000
REMARK  Name = 5486811
REMARK  4 active torsions:
REMARK  status: ('A' for Active; 'I' for Inactive)
REMARK    1  A    between atoms: N_1  and  C_6
REMARK    2  A    between atoms: N_1  and  N_11
REMARK    3  A    between atoms: C_7  and  C_21
REMARK    4  A    between atoms: N_11  and  C_14
REMARK                            x       y       z     vdW  Elec       q    Type
REMARK                         _______ _______ _______ _____ _____    ______ ____
ROOT
ATOM      1  C   UNL     1     -35.085  24.891   2.560  0.00  0.00    -0.020 C 
ATOM      2  C   UNL     1     -35.191  24.005   3.761  0.00  0.00    -0.000 C 
ATOM      3  C   UNL     1     -35.021  23.912   1.376  0.00  0.00    +0.071 C 
ATOM      4  C   UNL     1     -35.198  22.652   3.439  0.00  0.00    +0.013 C 
ATOM      5  C   UNL     1     -35.095  22.542   1.999  0.00  0.00    +0.074 C 
ATOM      6  C   UNL     1     -35.280  24.395   5.088  0.00  0.00    +0.030 C 
ATOM      7  C   UNL     1     -35.290  21.652   4.388  0.00  0.00    +0.001 C 
ATOM      8  C   UNL     1     -35.374  23.405   6.072  0.00  0.00    +0.003 C 
ATOM      9  C   UNL     1     -35.379  22.044   5.724  0.00  0.00    +0.000 C 
ENDROOT
BRANCH   6  12
ATOM     10  N   UNL     1     -34.109  26.436   5.880  0.00  0.00    -0.343 N 
ATOM     11  N   UNL     1     -36.402  26.493   5.434  0.00  0.00    -0.285 NA
ATOM     12  C   UNL     1     -35.278  25.799   5.470  0.00  0.00    +0.117 C 
ATOM     13  H   UNL     1     -34.131  27.387   6.134  0.00  0.00    +0.144 HD
ATOM     14  H   UNL     1     -33.262  25.936   5.917  0.00  0.00    +0.144 HD
ATOM     15  H   UNL     1     -36.403  27.442   5.692  0.00  0.00    +0.188 HD
ENDBRANCH   6  12
BRANCH   5  16
ATOM     16  N   UNL     1     -35.067  21.458   1.304  0.00  0.00    -0.118 NA
BRANCH  16  17
ATOM     17  N   UNL     1     -36.279  21.273   0.645  0.00  0.00    -0.125 NA
BRANCH  17  20
ATOM     18  N   UNL     1     -38.149  20.738   2.046  0.00  0.00    -0.369 N 
ATOM     19  N   UNL     1     -36.840  19.073   1.188  0.00  0.00    -0.369 N 
ATOM     20  C   UNL     1     -37.059  20.427   1.266  0.00  0.00    +0.210 C 
ATOM     21  H   UNL     1     -38.408  21.679   2.179  0.00  0.00    +0.159 HD
ATOM     22  H   UNL     1     -38.672  20.020   2.470  0.00  0.00    +0.159 HD
ATOM     23  H   UNL     1     -36.087  18.726   0.658  0.00  0.00    +0.159 HD
ATOM     24  H   UNL     1     -37.438  18.450   1.662  0.00  0.00    +0.159 HD
ENDBRANCH  17  20
ENDBRANCH  16  17
ENDBRANCH   5  16
TORSDOF 4
ENDMDL
MODEL 2
REMARK VINA RESULT:      -6.3      1.455      5.423
REMARK  Name = 5486811
REMARK  4 active torsions:
REMARK  status: ('A' for Active; 'I' for Inactive)
REMARK    1  A    between atoms: N_1  and  C_6
REMARK    2  A    between atoms: N_1  and  N_11
REMARK    3  A    between atoms: C_7  and  C_21
REMARK    4  A    between atoms: N_11  and  C_14
REMARK                            x       y       z     vdW  Elec       q    Type
REMARK                         _______ _______ _______ _____ _____    ______ ____
ROOT
ATOM      1  C   UNL     1     -36.022  23.680   2.250  0.00  0.00    -0.020 C 
ATOM      2  C   UNL     1     -35.681  23.032   3.555  0.00  0.00    -0.000 C 
ATOM      3  C   UNL     1     -36.083  25.180   2.580  0.00  0.00    +0.071 C 
ATOM      4  C   UNL     1     -35.535  23.946   4.593  0.00  0.00    +0.013 C 
ATOM      5  C   UNL     1     -35.771  25.268   4.052  0.00  0.00    +0.074 C 
ATOM      6  C   UNL     1     -35.506  21.679   3.802  0.00  0.00    +0.030 C 
ATOM      7  C   UNL     1     -35.220  23.574   5.886  0.00  0.00    +0.001 C 
ATOM      8  C   UNL     1     -35.186  21.272   5.102  0.00  0.00    +0.003 C 
ATOM      9  C   UNL     1     -35.044  22.213   6.136  0.00  0.00    +0.000 C 
ENDROOT
BRANCH   6  12
ATOM     10  N   UNL     1     -34.621  20.450   1.835  0.00  0.00    -0.343 N 
ATOM     11  N   UNL     1     -36.768  19.999   2.637  0.00  0.00    -0.285 NA
ATOM     12  C   UNL     1     -35.647  20.689   2.746  0.00  0.00    +0.117 C 
ATOM     13  H   UNL     1     -34.738  19.775   1.128  0.00  0.00    +0.144 HD
ATOM     14  H   UNL     1     -33.778  20.956   1.898  0.00  0.00    +0.144 HD
ATOM     15  H   UNL     1     -36.866  19.328   1.923  0.00  0.00    +0.188 HD
ENDBRANCH   6  12
BRANCH   5  16
ATOM     16  N   UNL     1     -35.733  26.386   4.689  0.00  0.00    -0.118 NA
BRANCH  16  17
ATOM     17  N   UNL     1     -34.883  27.282   4.048  0.00  0.00    -0.125 NA
BRANCH  17  20
ATOM     18  N   UNL     1     -33.212  27.134   5.760  0.00  0.00    -0.369 N 
ATOM     19  N   UNL     1     -32.610  27.080   3.556  0.00  0.00    -0.369 N 
ATOM     20  C   UNL     1     -33.646  27.172   4.454  0.00  0.00    +0.210 C 
ATOM     21  H   UNL     1     -33.862  27.192   6.497  0.00  0.00    +0.159 HD
ATOM     22  H   UNL     1     -32.251  27.048   5.957  0.00  0.00    +0.159 HD
ATOM     23  H   UNL     1     -32.794  27.097   2.589  0.00  0.00    +0.159 HD
ATOM     24  H   UNL     1     -31.684  26.998   3.880  0.00  0.00    +0.159 HD
ENDBRANCH  17  20
ENDBRANCH  16  17
ENDBRANCH   5  16
TORSDOF 4
ENDMDL
MODEL 3
REMARK VINA RESULT:      -6.1      1.304      6.075
REMARK  Name = 5486811
REMARK  4 active torsions:
REMARK  status: ('A' for Active; 'I' for Inactive)
REMARK    1  A    between atoms: N_1  and  C_6
REMARK    2  A    between atoms: N_1  and  N_11
REMARK    3  A    between atoms: C_7  and  C_21
REMARK    4  A    between atoms: N_11  and  C_14
REMARK                            x       y       z     vdW  Elec       q    Type
REMARK                         _______ _______ _______ _____ _____    ______ ____
ROOT
ATOM      1  C   UNL     1     -35.350  21.789   4.959  0.00  0.00    -0.020 C 
ATOM      2  C   UNL     1     -35.288  22.427   3.606  0.00  0.00    -0.000 C 
ATOM      3  C   UNL     1     -35.195  22.965   5.937  0.00  0.00    +0.071 C 
ATOM      4  C   UNL     1     -35.117  23.806   3.665  0.00  0.00    +0.013 C 
ATOM      5  C   UNL     1     -35.053  24.183   5.061  0.00  0.00    +0.074 C 
ATOM      6  C   UNL     1     -35.380  21.798   2.375  0.00  0.00    +0.030 C 
ATOM      7  C   UNL     1     -35.033  24.603   2.539  0.00  0.00    +0.001 C 
ATOM      8  C   UNL     1     -35.299  22.579   1.217  0.00  0.00    +0.003 C 
ATOM      9  C   UNL     1     -35.127  23.971   1.299  0.00  0.00    +0.000 C 
ENDROOT
BRANCH   6  12
ATOM     10  N   UNL     1     -34.494  19.517   1.958  0.00  0.00    -0.343 N 
ATOM     11  N   UNL     1     -36.754  19.828   2.463  0.00  0.00    -0.285 NA
ATOM     12  C   UNL     1     -35.560  20.359   2.268  0.00  0.00    +0.117 C 
ATOM     13  H   UNL     1     -34.639  18.545   1.890  0.00  0.00    +0.144 HD
ATOM     14  H   UNL     1     -33.597  19.893   1.806  0.00  0.00    +0.144 HD
ATOM     15  H   UNL     1     -36.878  18.854   2.391  0.00  0.00    +0.188 HD
ENDBRANCH   6  12
BRANCH   5  16
ATOM     16  N   UNL     1     -34.901  25.370   5.538  0.00  0.00    -0.118 NA
BRANCH  16  17
ATOM     17  N   UNL     1     -33.565  25.753   5.469  0.00  0.00    -0.125 NA
BRANCH  17  20
ATOM     18  N   UNL     1     -34.010  27.707   4.154  0.00  0.00    -0.369 N 
ATOM     19  N   UNL     1     -32.635  27.833   5.975  0.00  0.00    -0.369 N 
ATOM     20  C   UNL     1     -33.425  27.024   5.196  0.00  0.00    +0.210 C 
ATOM     21  H   UNL     1     -34.601  27.234   3.524  0.00  0.00    +0.159 HD
ATOM     22  H   UNL     1     -33.838  28.670   4.039  0.00  0.00    +0.159 HD
ATOM     23  H   UNL     1     -32.162  27.458   6.752  0.00  0.00    +0.159 HD
ATOM     24  H   UNL     1     -32.541  28.789   5.754  0.00  0.00    +0.159 HD
ENDBRANCH  17  20
ENDBRANCH  16  17
ENDBRANCH   5  16
TORSDOF 4
ENDMDL
MODEL 4
REMARK VINA RESULT:      -6.1      0.919      1.221
REMARK  Name = 5486811
REMARK  4 active torsions:
REMARK  status: ('A' for Active; 'I' for Inactive)
REMARK    1  A    between atoms: N_1  and  C_6
REMARK    2  A    between atoms: N_1  and  N_11
REMARK    3  A    between atoms: C_7  and  C_21
REMARK    4  A    between atoms: N_11  and  C_14
REMARK                            x       y       z     vdW  Elec       q    Type
REMARK                         _______ _______ _______ _____ _____    ______ ____
ROOT
ATOM      1  C   UNL     1     -35.677  24.032   2.560  0.00  0.00    -0.020 C 
ATOM      2  C   UNL     1     -35.509  23.490   3.944  0.00  0.00    -0.000 C 
ATOM      3  C   UNL     1     -35.680  22.782   1.664  0.00  0.00    +0.071 C 
ATOM      4  C   UNL     1     -35.414  22.103   3.976  0.00  0.00    +0.013 C 
ATOM      5  C   UNL     1     -35.511  21.624   2.613  0.00  0.00    +0.074 C 
ATOM      6  C   UNL     1     -35.445  24.210   5.127  0.00  0.00    +0.030 C 
ATOM      7  C   UNL     1     -35.256  21.386   5.146  0.00  0.00    +0.001 C 
ATOM      8  C   UNL     1     -35.285  23.511   6.328  0.00  0.00    +0.003 C 
ATOM      9  C   UNL     1     -35.191  22.109   6.337  0.00  0.00    +0.000 C 
ENDROOT
BRANCH   6  12
ATOM     10  N   UNL     1     -34.402  26.463   5.124  0.00  0.00    -0.343 N 
ATOM     11  N   UNL     1     -36.727  26.243   5.171  0.00  0.00    -0.285 NA
ATOM     12  C   UNL     1     -35.541  25.662   5.140  0.00  0.00    +0.117 C 
ATOM     13  H   UNL     1     -34.490  27.444   5.134  0.00  0.00    +0.144 HD
ATOM     14  H   UNL     1     -33.508  26.049   5.104  0.00  0.00    +0.144 HD
ATOM     15  H   UNL     1     -36.795  27.224   5.180  0.00  0.00    +0.188 HD
ENDBRANCH   6  12
BRANCH   5  16
ATOM     16  N   UNL     1     -35.466  20.400   2.216  0.00  0.00    -0.118 NA
BRANCH  16  17
ATOM     17  N   UNL     1     -35.839  20.309   0.879  0.00  0.00    -0.125 NA
BRANCH  17  20
ATOM     18  N   UNL     1     -36.908  18.189   0.548  0.00  0.00    -0.369 N 
ATOM     19  N   UNL     1     -38.154  20.101   0.665  0.00  0.00    -0.369 N 
ATOM     20  C   UNL     1     -36.894  19.556   0.706  0.00  0.00    +0.210 C 
ATOM     21  H   UNL     1     -36.063  17.683   0.560  0.00  0.00    +0.159 HD
ATOM     22  H   UNL     1     -37.762  17.716   0.425  0.00  0.00    +0.159 HD
ATOM     23  H   UNL     1     -38.274  21.072   0.765  0.00  0.00    +0.159 HD
ATOM     24  H   UNL     1     -38.937  19.518   0.534  0.00  0.00    +0.159 HD
ENDBRANCH  17  20
ENDBRANCH  16  17
ENDBRANCH   5  16
TORSDOF 4
ENDMDL
MODEL 5
REMARK VINA RESULT:      -6.1      2.131      6.664
REMARK  Name = 5486811
REMARK  4 active torsions:
REMARK  status: ('A' for Active; 'I' for Inactive)
REMARK    1  A    between atoms: N_1  and  C_6
REMARK    2  A    between atoms: N_1  and  N_11
REMARK    3  A    between atoms: C_7  and  C_21
REMARK    4  A    between atoms: N_11  and  C_14
REMARK                            x       y       z     vdW  Elec       q    Type
REMARK                         _______ _______ _______ _____ _____    ______ ____
ROOT
ATOM      1  C   UNL     1     -35.414  24.352   5.402  0.00  0.00    -0.020 C 
ATOM      2  C   UNL     1     -34.961  24.304   3.977  0.00  0.00    -0.000 C 
ATOM      3  C   UNL     1     -34.767  25.631   5.959  0.00  0.00    +0.071 C 
ATOM      4  C   UNL     1     -34.144  25.375   3.631  0.00  0.00    +0.013 C 
ATOM      5  C   UNL     1     -33.994  26.211   4.804  0.00  0.00    +0.074 C 
ATOM      6  C   UNL     1     -35.270  23.342   3.028  0.00  0.00    +0.030 C 
ATOM      7  C   UNL     1     -33.609  25.538   2.367  0.00  0.00    +0.001 C 
ATOM      8  C   UNL     1     -34.744  23.480   1.739  0.00  0.00    +0.003 C 
ATOM      9  C   UNL     1     -33.920  24.569   1.412  0.00  0.00    +0.000 C 
ENDROOT
BRANCH   6  12
ATOM     10  N   UNL     1     -37.504  22.270   3.184  0.00  0.00    -0.343 N 
ATOM     11  N   UNL     1     -35.585  21.089   3.803  0.00  0.00    -0.285 NA
ATOM     12  C   UNL     1     -36.122  22.207   3.346  0.00  0.00    +0.117 C 
ATOM     13  H   UNL     1     -38.061  21.489   3.405  0.00  0.00    +0.144 HD
ATOM     14  H   UNL     1     -37.923  23.095   2.848  0.00  0.00    +0.144 HD
ATOM     15  H   UNL     1     -36.160  20.319   4.018  0.00  0.00    +0.188 HD
ENDBRANCH   6  12
BRANCH   5  16
ATOM     16  N   UNL     1     -33.313  27.300   4.899  0.00  0.00    -0.118 NA
BRANCH  16  17
ATOM     17  N   UNL     1     -32.701  27.383   6.145  0.00  0.00    -0.125 NA
BRANCH  17  20
ATOM     18  N   UNL     1     -32.208  29.715   5.890  0.00  0.00    -0.369 N 
ATOM     19  N   UNL     1     -30.634  28.292   6.738  0.00  0.00    -0.369 N 
ATOM     20  C   UNL     1     -31.909  28.418   6.243  0.00  0.00    +0.210 C 
ATOM     21  H   UNL     1     -33.095  29.933   5.522  0.00  0.00    +0.159 HD
ATOM     22  H   UNL     1     -31.535  30.424   6.006  0.00  0.00    +0.159 HD
ATOM     23  H   UNL     1     -30.303  27.410   7.025  0.00  0.00    +0.159 HD
ATOM     24  H   UNL     1     -30.052  29.083   6.805  0.00  0.00    +0.159 HD
ENDBRANCH  17  20
ENDBRANCH  16  17
ENDBRANCH   5  16
TORSDOF 4
ENDMDL
MODEL 6
REMARK VINA RESULT:      -6.0      1.817      5.414
REMARK  Name = 5486811
REMARK  4 active torsions:
REMARK  status: ('A' for Active; 'I' for Inactive)
REMARK    1  A    between atoms: N_1  and  C_6
REMARK    2  A    between atoms: N_1  and  N_11
REMARK    3  A    between atoms: C_7  and  C_21
REMARK    4  A    between atoms: N_11  and  C_14
REMARK                            x       y       z     vdW  Elec       q    Type
REMARK                         _______ _______ _______ _____ _____    ______ ____
ROOT
ATOM      1  C   UNL     1     -36.027  23.516   2.067  0.00  0.00    -0.020 C 
ATOM      2  C   UNL     1     -35.693  22.959   3.415  0.00  0.00    -0.000 C 
ATOM      3  C   UNL     1     -36.114  25.034   2.299  0.00  0.00    +0.071 C 
ATOM      4  C   UNL     1     -35.576  23.940   4.394  0.00  0.00    +0.013 C 
ATOM      5  C   UNL     1     -35.824  25.220   3.766  0.00  0.00    +0.074 C 
ATOM      6  C   UNL     1     -35.502  21.628   3.750  0.00  0.00    +0.030 C 
ATOM      7  C   UNL     1     -35.272  23.656   5.712  0.00  0.00    +0.001 C 
ATOM      8  C   UNL     1     -35.193  21.309   5.077  0.00  0.00    +0.003 C 
ATOM      9  C   UNL     1     -35.080  22.317   6.050  0.00  0.00    +0.000 C 
ENDROOT
BRANCH   6  12
ATOM     10  N   UNL     1     -34.533  20.212   1.955  0.00  0.00    -0.343 N 
ATOM     11  N   UNL     1     -36.759  19.931   2.603  0.00  0.00    -0.285 NA
ATOM     12  C   UNL     1     -35.613  20.570   2.758  0.00  0.00    +0.117 C 
ATOM     13  H   UNL     1     -34.631  19.493   1.290  0.00  0.00    +0.144 HD
ATOM     14  H   UNL     1     -33.670  20.679   2.053  0.00  0.00    +0.144 HD
ATOM     15  H   UNL     1     -36.838  19.215   1.933  0.00  0.00    +0.188 HD
ENDBRANCH   6  12
BRANCH   5  16
ATOM     16  N   UNL     1     -35.811  26.377   4.331  0.00  0.00    -0.118 NA
BRANCH  16  17
ATOM     17  N   UNL     1     -34.527  26.913   4.310  0.00  0.00    -0.125 NA
BRANCH  17  20
ATOM     18  N   UNL     1     -35.175  28.955   3.234  0.00  0.00    -0.369 N 
ATOM     19  N   UNL     1     -33.384  27.764   2.461  0.00  0.00    -0.369 N 
ATOM     20  C   UNL     1     -34.388  27.837   3.395  0.00  0.00    +0.210 C 
ATOM     21  H   UNL     1     -35.929  29.119   3.845  0.00  0.00    +0.159 HD
ATOM     22  H   UNL     1     -34.982  29.592   2.508  0.00  0.00    +0.159 HD
ATOM     23  H   UNL     1     -32.755  27.007   2.473  0.00  0.00    +0.159 HD
ATOM     24  H   UNL     1     -33.295  28.469   1.779  0.00  0.00    +0.159 HD
ENDBRANCH  17  20
ENDBRANCH  16  17
ENDBRANCH   5  16
TORSDOF 4
ENDMDL
MODEL 7
REMARK VINA RESULT:      -5.8      0.928      2.621
REMARK  Name = 5486811
REMARK  4 active torsions:
REMARK  status: ('A' for Active; 'I' for Inactive)
REMARK    1  A    between atoms: N_1  and  C_6
REMARK    2  A    between atoms: N_1  and  N_11
REMARK    3  A    between atoms: C_7  and  C_21
REMARK    4  A    between atoms: N_11  and  C_14
REMARK                            x       y       z     vdW  Elec       q    Type
REMARK                         _______ _______ _______ _____ _____    ______ ____
ROOT
ATOM      1  C   UNL     1     -35.419  22.996   5.593  0.00  0.00    -0.020 C 
ATOM      2  C   UNL     1     -35.251  23.729   4.299  0.00  0.00    -0.000 C 
ATOM      3  C   UNL     1     -35.430  21.513   5.186  0.00  0.00    +0.071 C 
ATOM      4  C   UNL     1     -35.165  22.879   3.201  0.00  0.00    +0.013 C 
ATOM      5  C   UNL     1     -35.269  21.520   3.688  0.00  0.00    +0.074 C 
ATOM      6  C   UNL     1     -35.179  25.100   4.113  0.00  0.00    +0.030 C 
ATOM      7  C   UNL     1     -35.007  23.335   1.906  0.00  0.00    +0.001 C 
ATOM      8  C   UNL     1     -35.019  25.592   2.813  0.00  0.00    +0.003 C 
ATOM      9  C   UNL     1     -34.934  24.715   1.718  0.00  0.00    +0.000 C 
ENDROOT
BRANCH   6  12
ATOM     10  N   UNL     1     -36.487  26.545   5.651  0.00  0.00    -0.343 N 
ATOM     11  N   UNL     1     -34.166  26.390   5.870  0.00  0.00    -0.285 NA
ATOM     12  C   UNL     1     -35.264  26.025   5.232  0.00  0.00    +0.117 C 
ATOM     13  H   UNL     1     -36.521  27.170   6.411  0.00  0.00    +0.144 HD
ATOM     14  H   UNL     1     -37.317  26.288   5.187  0.00  0.00    +0.144 HD
ATOM     15  H   UNL     1     -34.221  27.016   6.628  0.00  0.00    +0.188 HD
ENDBRANCH   6  12
BRANCH   5  16
ATOM     16  N   UNL     1     -35.235  20.440   2.987  0.00  0.00    -0.118 NA
BRANCH  16  17
ATOM     17  N   UNL     1     -36.484  20.182   2.431  0.00  0.00    -0.125 NA
BRANCH  17  20
ATOM     18  N   UNL     1     -35.890  20.439   0.122  0.00  0.00    -0.369 N 
ATOM     19  N   UNL     1     -36.844  18.497   0.857  0.00  0.00    -0.369 N 
ATOM     20  C   UNL     1     -36.401  19.751   1.200  0.00  0.00    +0.210 C 
ATOM     21  H   UNL     1     -35.539  21.351   0.242  0.00  0.00    +0.159 HD
ATOM     22  H   UNL     1     -35.873  20.019  -0.767  0.00  0.00    +0.159 HD
ATOM     23  H   UNL     1     -37.232  17.907   1.542  0.00  0.00    +0.159 HD
ATOM     24  H   UNL     1     -36.773  18.188  -0.076  0.00  0.00    +0.159 HD
ENDBRANCH  17  20
ENDBRANCH  16  17
ENDBRANCH   5  16
TORSDOF 4
ENDMDL
MODEL 8
REMARK VINA RESULT:      -5.6      1.669      6.187
REMARK  Name = 5486811
REMARK  4 active torsions:
REMARK  status: ('A' for Active; 'I' for Inactive)
REMARK    1  A    between atoms: N_1  and  C_6
REMARK    2  A    between atoms: N_1  and  N_11
REMARK    3  A    between atoms: C_7  and  C_21
REMARK    4  A    between atoms: N_11  and  C_14
REMARK                            x       y       z     vdW  Elec       q    Type
REMARK                         _______ _______ _______ _____ _____    ______ ____
ROOT
ATOM      1  C   UNL     1     -34.382  25.125   2.242  0.00  0.00    -0.020 C 
ATOM      2  C   UNL     1     -34.804  24.095   3.242  0.00  0.00    -0.000 C 
ATOM      3  C   UNL     1     -33.990  26.341   3.098  0.00  0.00    +0.071 C 
ATOM      4  C   UNL     1     -34.712  24.544   4.555  0.00  0.00    +0.013 C 
ATOM      5  C   UNL     1     -34.223  25.906   4.521  0.00  0.00    +0.074 C 
ATOM      6  C   UNL     1     -35.251  22.808   2.985  0.00  0.00    +0.030 C 
ATOM      7  C   UNL     1     -35.049  23.762   5.643  0.00  0.00    +0.001 C 
ATOM      8  C   UNL     1     -35.599  21.993   4.068  0.00  0.00    +0.003 C 
ATOM      9  C   UNL     1     -35.499  22.467   5.386  0.00  0.00    +0.000 C 
ENDROOT
BRANCH   6  12
ATOM     10  N   UNL     1     -36.502  22.522   0.860  0.00  0.00    -0.343 N 
ATOM     11  N   UNL     1     -34.367  21.603   1.103  0.00  0.00    -0.285 NA
ATOM     12  C   UNL     1     -35.361  22.298   1.628  0.00  0.00    +0.117 C 
ATOM     13  H   UNL     1     -36.555  22.167  -0.057  0.00  0.00    +0.144 HD
ATOM     14  H   UNL     1     -37.255  23.035   1.234  0.00  0.00    +0.144 HD
ATOM     15  H   UNL     1     -34.440  21.256   0.185  0.00  0.00    +0.188 HD
ENDBRANCH   6  12
BRANCH   5  16
ATOM     16  N   UNL     1     -34.001  26.676   5.529  0.00  0.00    -0.118 NA
BRANCH  16  17
ATOM     17  N   UNL     1     -32.821  27.389   5.346  0.00  0.00    -0.125 NA
BRANCH  17  20
ATOM     18  N   UNL     1     -31.219  28.605   6.651  0.00  0.00    -0.369 N 
ATOM     19  N   UNL     1     -32.670  27.158   7.663  0.00  0.00    -0.369 N 
ATOM     20  C   UNL     1     -32.254  27.714   6.478  0.00  0.00    +0.210 C 
ATOM     21  H   UNL     1     -30.835  29.070   5.873  0.00  0.00    +0.159 HD
ATOM     22  H   UNL     1     -30.865  28.779   7.553  0.00  0.00    +0.159 HD
ATOM     23  H   UNL     1     -33.404  26.504   7.669  0.00  0.00    +0.159 HD
ATOM     24  H   UNL     1     -32.231  27.414   8.507  0.00  0.00    +0.159 HD
ENDBRANCH  17  20
ENDBRANCH  16  17
ENDBRANCH   5  16
TORSDOF 4
ENDMDL
MODEL 9
REMARK VINA RESULT:      -5.5      3.165      6.926
REMARK  Name = 5486811
REMARK  4 active torsions:
REMARK  status: ('A' for Active; 'I' for Inactive)
REMARK    1  A    between atoms: N_1  and  C_6
REMARK    2  A    between atoms: N_1  and  N_11
REMARK    3  A    between atoms: C_7  and  C_21
REMARK    4  A    between atoms: N_11  and  C_14
REMARK                            x       y       z     vdW  Elec       q    Type
REMARK                         _______ _______ _______ _____ _____    ______ ____
ROOT
ATOM      1  C   UNL     1     -35.823  25.091   5.255  0.00  0.00    -0.020 C 
ATOM      2  C   UNL     1     -36.126  25.854   4.004  0.00  0.00    -0.000 C 
ATOM      3  C   UNL     1     -34.520  25.721   5.774  0.00  0.00    +0.071 C 
ATOM      4  C   UNL     1     -35.181  26.836   3.726  0.00  0.00    +0.013 C 
ATOM      5  C   UNL     1     -34.182  26.795   4.773  0.00  0.00    +0.074 C 
ATOM      6  C   UNL     1     -37.204  25.676   3.151  0.00  0.00    +0.030 C 
ATOM      7  C   UNL     1     -35.258  27.664   2.622  0.00  0.00    +0.001 C 
ATOM      8  C   UNL     1     -37.308  26.499   2.024  0.00  0.00    +0.003 C 
ATOM      9  C   UNL     1     -36.343  27.486   1.763  0.00  0.00    +0.000 C 
ENDROOT
BRANCH   6  12
ATOM     10  N   UNL     1     -37.984  23.320   3.110  0.00  0.00    -0.343 N 
ATOM     11  N   UNL     1     -39.381  25.009   3.919  0.00  0.00    -0.285 NA
ATOM     12  C   UNL     1     -38.215  24.662   3.404  0.00  0.00    +0.117 C 
ATOM     13  H   UNL     1     -38.683  22.650   3.290  0.00  0.00    +0.144 HD
ATOM     14  H   UNL     1     -37.122  23.041   2.723  0.00  0.00    +0.144 HD
ATOM     15  H   UNL     1     -40.067  24.325   4.091  0.00  0.00    +0.188 HD
ENDBRANCH   6  12
BRANCH   5  16
ATOM     16  N   UNL     1     -33.140  27.544   4.880  0.00  0.00    -0.118 NA
BRANCH  16  17
ATOM     17  N   UNL     1     -32.618  27.468   6.168  0.00  0.00    -0.125 NA
BRANCH  17  20
ATOM     18  N   UNL     1     -30.510  28.455   5.593  0.00  0.00    -0.369 N 
ATOM     19  N   UNL     1     -31.674  29.202   7.412  0.00  0.00    -0.369 N 
ATOM     20  C   UNL     1     -31.644  28.318   6.361  0.00  0.00    +0.210 C 
ATOM     21  H   UNL     1     -30.375  27.876   4.808  0.00  0.00    +0.159 HD
ATOM     22  H   UNL     1     -29.836  29.132   5.828  0.00  0.00    +0.159 HD
ATOM     23  H   UNL     1     -32.436  29.201   8.035  0.00  0.00    +0.159 HD
ATOM     24  H   UNL     1     -30.931  29.836   7.543  0.00  0.00    +0.159 HD
ENDBRANCH  17  20
ENDBRANCH  16  17
ENDBRANCH   5  16
TORSDOF 4
ENDMDL
