MODEL 1
REMARK VINA RESULT:      -5.8      0.000      0.000
REMARK  Name = 193578
REMARK  7 active torsions:
REMARK  status: ('A' for Active; 'I' for Inactive)
REMARK    1  A    between atoms: C_2  and  C_10
REMARK    2  A    between atoms: C_3  and  C_23
REMARK    3  A    between atoms: C_4  and  C_27
REMARK    4  A    between atoms: C_11  and  N_18
REMARK    5  A    between atoms: C_15  and  N_21
REMARK    6  A    between atoms: C_23  and  O_24
REMARK    7  A    between atoms: C_27  and  O_28
REMARK                            x       y       z     vdW  Elec       q    Type
REMARK                         _______ _______ _______ _____ _____    ______ ____
ROOT
ATOM      1  N   UNL     1     -33.310  26.073   2.831  0.00  0.00    -0.334 N 
ATOM      2  C   UNL     1     -34.673  23.604   2.567  0.00  0.00    +0.013 C 
ATOM      3  C   UNL     1     -34.635  24.410   3.871  0.00  0.00    +0.071 C 
ATOM      4  C   UNL     1     -34.047  24.351   1.384  0.00  0.00    +0.085 C 
ATOM      5  C   UNL     1     -33.955  25.576   3.953  0.00  0.00    +0.098 C 
ATOM      6  C   UNL     1     -33.381  25.514   1.565  0.00  0.00    +0.028 C 
ATOM      7  C   UNL     1     -33.818  26.424   5.189  0.00  0.00    +0.026 C 
ATOM      8  C   UNL     1     -32.686  26.297   0.485  0.00  0.00    +0.047 C 
ATOM      9  H   UNL     1     -32.759  26.881   2.942  0.00  0.00    +0.147 HD
ENDROOT
BRANCH   2  10
ATOM     10  C   UNL     1     -36.089  23.226   2.241  0.00  0.00    +0.023 C 
ATOM     11  C   UNL     1     -36.473  21.892   2.148  0.00  0.00    +0.144 C 
ATOM     12  C   UNL     1     -37.015  24.243   2.031  0.00  0.00    +0.003 C 
ATOM     13  C   UNL     1     -37.795  21.571   1.845  0.00  0.00    +0.048 C 
ATOM     14  C   UNL     1     -38.338  23.922   1.726  0.00  0.00    +0.024 C 
ATOM     15  C   UNL     1     -38.729  22.586   1.634  0.00  0.00    +0.145 C 
BRANCH  11  18
ATOM     16  O   UNL     1     -34.989  20.309   1.366  0.00  0.00    -0.126 OA
ATOM     17  O   UNL     1     -35.291  20.477   3.534  0.00  0.00    -0.126 OA
ATOM     18  N   UNL     1     -35.538  20.840   2.361  0.00  0.00    +0.058 N 
ENDBRANCH  11  18
BRANCH  15  21
ATOM     19  O   UNL     1     -40.875  23.186   1.040  0.00  0.00    -0.126 OA
ATOM     20  O   UNL     1     -40.430  21.058   1.341  0.00  0.00    -0.126 OA
ATOM     21  N   UNL     1     -40.075  22.261   1.323  0.00  0.00    +0.058 N 
ENDBRANCH  15  21
ENDBRANCH   2  10
BRANCH   3  23
ATOM     22  O   UNL     1     -36.530  24.282   5.290  0.00  0.00    -0.245 OA
ATOM     23  C   UNL     1     -35.420  23.877   4.996  0.00  0.00    +0.339 C 
BRANCH  23  24
ATOM     24  O   UNL     1     -34.696  22.903   5.599  0.00  0.00    -0.442 OA
ATOM     25  C   UNL     1     -35.443  22.037   6.460  0.00  0.00    +0.256 C 
ENDBRANCH  23  24
ENDBRANCH   3  23
BRANCH   4  27
ATOM     26  O   UNL     1     -35.021  24.219  -0.773  0.00  0.00    -0.245 OA
ATOM     27  C   UNL     1     -34.250  23.762   0.051  0.00  0.00    +0.342 C 
BRANCH  27  28
ATOM     28  O   UNL     1     -33.451  22.673  -0.062  0.00  0.00    -0.441 OA
ATOM     29  C   UNL     1     -32.277  22.862  -0.858  0.00  0.00    +0.256 C 
ENDBRANCH  27  28
ENDBRANCH   4  27
TORSDOF 7
ENDMDL
MODEL 2
REMARK VINA RESULT:      -5.6      2.571      5.542
REMARK  Name = 193578
REMARK  7 active torsions:
REMARK  status: ('A' for Active; 'I' for Inactive)
REMARK    1  A    between atoms: C_2  and  C_10
REMARK    2  A    between atoms: C_3  and  C_23
REMARK    3  A    between atoms: C_4  and  C_27
REMARK    4  A    between atoms: C_11  and  N_18
REMARK    5  A    between atoms: C_15  and  N_21
REMARK    6  A    between atoms: C_23  and  O_24
REMARK    7  A    between atoms: C_27  and  O_28
REMARK                            x       y       z     vdW  Elec       q    Type
REMARK                         _______ _______ _______ _____ _____    ______ ____
ROOT
ATOM      1  N   UNL     1     -35.532  21.441   4.124  0.00  0.00    -0.334 N 
ATOM      2  C   UNL     1     -34.760  23.890   2.929  0.00  0.00    +0.013 C 
ATOM      3  C   UNL     1     -35.083  22.624   2.124  0.00  0.00    +0.071 C 
ATOM      4  C   UNL     1     -35.063  23.740   4.424  0.00  0.00    +0.085 C 
ATOM      5  C   UNL     1     -35.430  21.473   2.741  0.00  0.00    +0.098 C 
ATOM      6  C   UNL     1     -35.401  22.543   4.953  0.00  0.00    +0.028 C 
ATOM      7  C   UNL     1     -35.727  20.167   2.054  0.00  0.00    +0.026 C 
ATOM      8  C   UNL     1     -35.665  22.276   6.410  0.00  0.00    +0.047 C 
ATOM      9  H   UNL     1     -35.710  20.570   4.548  0.00  0.00    +0.147 HD
ENDROOT
BRANCH   2  10
ATOM     10  C   UNL     1     -35.516  25.059   2.368  0.00  0.00    +0.023 C 
ATOM     11  C   UNL     1     -34.849  26.149   1.818  0.00  0.00    +0.144 C 
ATOM     12  C   UNL     1     -36.907  25.032   2.411  0.00  0.00    +0.003 C 
ATOM     13  C   UNL     1     -35.578  27.221   1.305  0.00  0.00    +0.048 C 
ATOM     14  C   UNL     1     -37.636  26.104   1.898  0.00  0.00    +0.024 C 
ATOM     15  C   UNL     1     -36.972  27.198   1.344  0.00  0.00    +0.145 C 
BRANCH  11  18
ATOM     16  O   UNL     1     -32.842  25.699   0.774  0.00  0.00    -0.126 OA
ATOM     17  O   UNL     1     -32.803  26.724   2.715  0.00  0.00    -0.126 OA
ATOM     18  N   UNL     1     -33.427  26.193   1.767  0.00  0.00    +0.058 N 
ENDBRANCH  11  18
BRANCH  15  21
ATOM     19  O   UNL     1     -37.210  29.438   0.850  0.00  0.00    -0.126 OA
ATOM     20  O   UNL     1     -38.857  28.076   0.349  0.00  0.00    -0.126 OA
ATOM     21  N   UNL     1     -37.715  28.289   0.823  0.00  0.00    +0.058 N 
ENDBRANCH  15  21
ENDBRANCH   2  10
BRANCH   3  23
ATOM     22  O   UNL     1     -36.051  22.771  -0.035  0.00  0.00    -0.245 OA
ATOM     23  C   UNL     1     -35.050  22.752   0.658  0.00  0.00    +0.339 C 
BRANCH  23  24
ATOM     24  O   UNL     1     -33.756  22.839   0.265  0.00  0.00    -0.442 OA
ATOM     25  C   UNL     1     -33.178  21.614  -0.194  0.00  0.00    +0.256 C 
ENDBRANCH  23  24
ENDBRANCH   3  23
BRANCH   4  27
ATOM     26  O   UNL     1     -36.002  25.529   5.662  0.00  0.00    -0.245 OA
ATOM     27  C   UNL     1     -35.011  24.969   5.233  0.00  0.00    +0.342 C 
BRANCH  27  28
ATOM     28  O   UNL     1     -33.712  25.324   5.388  0.00  0.00    -0.441 OA
ATOM     29  C   UNL     1     -33.496  26.498   6.178  0.00  0.00    +0.256 C 
ENDBRANCH  27  28
ENDBRANCH   4  27
TORSDOF 7
ENDMDL
MODEL 3
REMARK VINA RESULT:      -5.5      2.037      5.266
REMARK  Name = 193578
REMARK  7 active torsions:
REMARK  status: ('A' for Active; 'I' for Inactive)
REMARK    1  A    between atoms: C_2  and  C_10
REMARK    2  A    between atoms: C_3  and  C_23
REMARK    3  A    between atoms: C_4  and  C_27
REMARK    4  A    between atoms: C_11  and  N_18
REMARK    5  A    between atoms: C_15  and  N_21
REMARK    6  A    between atoms: C_23  and  O_24
REMARK    7  A    between atoms: C_27  and  O_28
REMARK                            x       y       z     vdW  Elec       q    Type
REMARK                         _______ _______ _______ _____ _____    ______ ____
ROOT
ATOM      1  N   UNL     1     -37.875  25.366   4.125  0.00  0.00    -0.334 N 
ATOM      2  C   UNL     1     -36.457  23.135   3.107  0.00  0.00    +0.013 C 
ATOM      3  C   UNL     1     -37.763  23.656   2.492  0.00  0.00    +0.071 C 
ATOM      4  C   UNL     1     -35.914  24.045   4.214  0.00  0.00    +0.085 C 
ATOM      5  C   UNL     1     -38.413  24.715   3.025  0.00  0.00    +0.098 C 
ATOM      6  C   UNL     1     -36.641  25.082   4.687  0.00  0.00    +0.028 C 
ATOM      7  C   UNL     1     -39.717  25.281   2.529  0.00  0.00    +0.026 C 
ATOM      8  C   UNL     1     -36.227  26.001   5.804  0.00  0.00    +0.047 C 
ATOM      9  H   UNL     1     -38.410  26.082   4.537  0.00  0.00    +0.147 HD
ENDROOT
BRANCH   2  10
ATOM     10  C   UNL     1     -35.421  22.960   2.035  0.00  0.00    +0.023 C 
ATOM     11  C   UNL     1     -34.995  21.694   1.647  0.00  0.00    +0.144 C 
ATOM     12  C   UNL     1     -34.891  24.098   1.433  0.00  0.00    +0.003 C 
ATOM     13  C   UNL     1     -34.031  21.563   0.649  0.00  0.00    +0.048 C 
ATOM     14  C   UNL     1     -33.927  23.967   0.434  0.00  0.00    +0.024 C 
ATOM     15  C   UNL     1     -33.497  22.699   0.041  0.00  0.00    +0.145 C 
BRANCH  11  18
ATOM     16  O   UNL     1     -36.377  19.848   1.624  0.00  0.00    -0.126 OA
ATOM     17  O   UNL     1     -35.128  20.195   3.396  0.00  0.00    -0.126 OA
ATOM     18  N   UNL     1     -35.527  20.521   2.253  0.00  0.00    +0.058 N 
ENDBRANCH  11  18
BRANCH  15  21
ATOM     19  O   UNL     1     -31.328  22.881  -0.719  0.00  0.00    -0.126 OA
ATOM     20  O   UNL     1     -32.862  22.140  -2.104  0.00  0.00    -0.126 OA
ATOM     21  N   UNL     1     -32.516  22.567  -0.976  0.00  0.00    +0.058 N 
ENDBRANCH  15  21
ENDBRANCH   2  10
BRANCH   3  23
ATOM     22  O   UNL     1     -38.731  21.872   1.266  0.00  0.00    -0.245 OA
ATOM     23  C   UNL     1     -38.228  22.981   1.270  0.00  0.00    +0.339 C 
BRANCH  23  24
ATOM     24  O   UNL     1     -37.996  23.799   0.215  0.00  0.00    -0.442 OA
ATOM     25  C   UNL     1     -37.535  23.144  -0.971  0.00  0.00    +0.256 C 
ENDBRANCH  23  24
ENDBRANCH   3  23
BRANCH   4  27
ATOM     26  O   UNL     1     -33.628  24.540   4.593  0.00  0.00    -0.245 OA
ATOM     27  C   UNL     1     -34.553  23.757   4.696  0.00  0.00    +0.342 C 
BRANCH  27  28
ATOM     28  O   UNL     1     -34.546  22.516   5.241  0.00  0.00    -0.441 OA
ATOM     29  C   UNL     1     -35.301  22.380   6.449  0.00  0.00    +0.256 C 
ENDBRANCH  27  28
ENDBRANCH   4  27
TORSDOF 7
ENDMDL
MODEL 4
REMARK VINA RESULT:      -5.5      2.509      3.925
REMARK  Name = 193578
REMARK  7 active torsions:
REMARK  status: ('A' for Active; 'I' for Inactive)
REMARK    1  A    between atoms: C_2  and  C_10
REMARK    2  A    between atoms: C_3  and  C_23
REMARK    3  A    between atoms: C_4  and  C_27
REMARK    4  A    between atoms: C_11  and  N_18
REMARK    5  A    between atoms: C_15  and  N_21
REMARK    6  A    between atoms: C_23  and  O_24
REMARK    7  A    between atoms: C_27  and  O_28
REMARK                            x       y       z     vdW  Elec       q    Type
REMARK                         _______ _______ _______ _____ _____    ______ ____
ROOT
ATOM      1  N   UNL     1     -35.530  23.681   5.278  0.00  0.00    -0.334 N 
ATOM      2  C   UNL     1     -36.156  23.456   2.525  0.00  0.00    +0.013 C 
ATOM      3  C   UNL     1     -35.688  22.273   3.382  0.00  0.00    +0.071 C 
ATOM      4  C   UNL     1     -36.412  24.724   3.346  0.00  0.00    +0.085 C 
ATOM      5  C   UNL     1     -35.384  22.434   4.689  0.00  0.00    +0.098 C 
ATOM      6  C   UNL     1     -36.070  24.793   4.652  0.00  0.00    +0.028 C 
ATOM      7  C   UNL     1     -34.879  21.355   5.609  0.00  0.00    +0.026 C 
ATOM      8  C   UNL     1     -36.227  26.002   5.533  0.00  0.00    +0.047 C 
ATOM      9  H   UNL     1     -35.226  23.784   6.208  0.00  0.00    +0.147 HD
ENDROOT
BRANCH   2  10
ATOM     10  C   UNL     1     -37.395  23.079   1.766  0.00  0.00    +0.023 C 
ATOM     11  C   UNL     1     -37.412  23.073   0.374  0.00  0.00    +0.144 C 
ATOM     12  C   UNL     1     -38.535  22.734   2.487  0.00  0.00    +0.003 C 
ATOM     13  C   UNL     1     -38.577  22.719  -0.303  0.00  0.00    +0.048 C 
ATOM     14  C   UNL     1     -39.701  22.379   1.809  0.00  0.00    +0.024 C 
ATOM     15  C   UNL     1     -39.722  22.371   0.414  0.00  0.00    +0.145 C 
BRANCH  11  18
ATOM     16  O   UNL     1     -35.440  22.523  -0.688  0.00  0.00    -0.126 OA
ATOM     17  O   UNL     1     -36.086  24.621  -0.706  0.00  0.00    -0.126 OA
ATOM     18  N   UNL     1     -36.255  23.423  -0.377  0.00  0.00    +0.058 N 
ENDBRANCH  11  18
BRANCH  15  21
ATOM     19  O   UNL     1     -41.361  22.782  -1.156  0.00  0.00    -0.126 OA
ATOM     20  O   UNL     1     -41.478  20.930   0.016  0.00  0.00    -0.126 OA
ATOM     21  N   UNL     1     -40.910  22.010  -0.275  0.00  0.00    +0.058 N 
ENDBRANCH  15  21
ENDBRANCH   2  10
BRANCH   3  23
ATOM     22  O   UNL     1     -36.487  20.094   2.895  0.00  0.00    -0.245 OA
ATOM     23  C   UNL     1     -35.647  20.958   2.721  0.00  0.00    +0.339 C 
BRANCH  23  24
ATOM     24  O   UNL     1     -34.549  20.912   1.928  0.00  0.00    -0.442 OA
ATOM     25  C   UNL     1     -34.176  19.604   1.484  0.00  0.00    +0.256 C 
ENDBRANCH  23  24
ENDBRANCH   3  23
BRANCH   4  27
ATOM     26  O   UNL     1     -38.270  26.085   2.786  0.00  0.00    -0.245 OA
ATOM     27  C   UNL     1     -37.087  25.833   2.652  0.00  0.00    +0.342 C 
BRANCH  27  28
ATOM     28  O   UNL     1     -36.174  26.474   1.882  0.00  0.00    -0.441 OA
ATOM     29  C   UNL     1     -36.607  27.728   1.347  0.00  0.00    +0.256 C 
ENDBRANCH  27  28
ENDBRANCH   4  27
TORSDOF 7
ENDMDL
MODEL 5
REMARK VINA RESULT:      -5.4      2.765      5.150
REMARK  Name = 193578
REMARK  7 active torsions:
REMARK  status: ('A' for Active; 'I' for Inactive)
REMARK    1  A    between atoms: C_2  and  C_10
REMARK    2  A    between atoms: C_3  and  C_23
REMARK    3  A    between atoms: C_4  and  C_27
REMARK    4  A    between atoms: C_11  and  N_18
REMARK    5  A    between atoms: C_15  and  N_21
REMARK    6  A    between atoms: C_23  and  O_24
REMARK    7  A    between atoms: C_27  and  O_28
REMARK                            x       y       z     vdW  Elec       q    Type
REMARK                         _______ _______ _______ _____ _____    ______ ____
ROOT
ATOM      1  N   UNL     1     -35.092  29.252   2.030  0.00  0.00    -0.334 N 
ATOM      2  C   UNL     1     -35.774  26.656   2.936  0.00  0.00    +0.013 C 
ATOM      3  C   UNL     1     -36.550  27.396   1.839  0.00  0.00    +0.071 C 
ATOM      4  C   UNL     1     -34.499  27.391   3.365  0.00  0.00    +0.085 C 
ATOM      5  C   UNL     1     -36.196  28.643   1.453  0.00  0.00    +0.098 C 
ATOM      6  C   UNL     1     -34.231  28.642   2.928  0.00  0.00    +0.028 C 
ATOM      7  C   UNL     1     -36.909  29.473   0.419  0.00  0.00    +0.026 C 
ATOM      8  C   UNL     1     -33.041  29.470   3.328  0.00  0.00    +0.047 C 
ATOM      9  H   UNL     1     -34.908  30.187   1.785  0.00  0.00    +0.147 HD
ENDROOT
BRANCH   2  10
ATOM     10  C   UNL     1     -35.433  25.269   2.474  0.00  0.00    +0.023 C 
ATOM     11  C   UNL     1     -35.921  24.149   3.141  0.00  0.00    +0.144 C 
ATOM     12  C   UNL     1     -34.614  25.124   1.358  0.00  0.00    +0.003 C 
ATOM     13  C   UNL     1     -35.587  22.874   2.689  0.00  0.00    +0.048 C 
ATOM     14  C   UNL     1     -34.281  23.848   0.906  0.00  0.00    +0.024 C 
ATOM     15  C   UNL     1     -34.768  22.722   1.570  0.00  0.00    +0.145 C 
BRANCH  11  18
ATOM     16  O   UNL     1     -36.239  24.239   5.424  0.00  0.00    -0.126 OA
ATOM     17  O   UNL     1     -37.991  24.435   4.116  0.00  0.00    -0.126 OA
ATOM     18  N   UNL     1     -36.759  24.281   4.284  0.00  0.00    +0.058 N 
ENDBRANCH  11  18
BRANCH  15  21
ATOM     19  O   UNL     1     -34.906  20.424   1.699  0.00  0.00    -0.126 OA
ATOM     20  O   UNL     1     -33.657  21.310   0.125  0.00  0.00    -0.126 OA
ATOM     21  N   UNL     1     -34.427  21.424   1.109  0.00  0.00    +0.058 N 
ENDBRANCH  15  21
ENDBRANCH   2  10
BRANCH   3  23
ATOM     22  O   UNL     1     -37.543  26.092   0.127  0.00  0.00    -0.245 OA
ATOM     23  C   UNL     1     -37.650  26.657   1.200  0.00  0.00    +0.339 C 
BRANCH  23  24
ATOM     24  O   UNL     1     -38.739  26.730   2.004  0.00  0.00    -0.442 OA
ATOM     25  C   UNL     1     -39.921  26.116   1.482  0.00  0.00    +0.256 C 
ENDBRANCH  23  24
ENDBRANCH   3  23
BRANCH   4  27
ATOM     26  O   UNL     1     -32.570  26.093   3.824  0.00  0.00    -0.245 OA
ATOM     27  C   UNL     1     -33.572  26.648   4.234  0.00  0.00    +0.342 C 
BRANCH  27  28
ATOM     28  O   UNL     1     -34.036  26.707   5.506  0.00  0.00    -0.441 OA
ATOM     29  C   UNL     1     -33.039  26.938   6.506  0.00  0.00    +0.256 C 
ENDBRANCH  27  28
ENDBRANCH   4  27
TORSDOF 7
ENDMDL
MODEL 6
REMARK VINA RESULT:      -5.4      2.619      4.156
REMARK  Name = 193578
REMARK  7 active torsions:
REMARK  status: ('A' for Active; 'I' for Inactive)
REMARK    1  A    between atoms: C_2  and  C_10
REMARK    2  A    between atoms: C_3  and  C_23
REMARK    3  A    between atoms: C_4  and  C_27
REMARK    4  A    between atoms: C_11  and  N_18
REMARK    5  A    between atoms: C_15  and  N_21
REMARK    6  A    between atoms: C_23  and  O_24
REMARK    7  A    between atoms: C_27  and  O_28
REMARK                            x       y       z     vdW  Elec       q    Type
REMARK                         _______ _______ _______ _____ _____    ______ ____
ROOT
ATOM      1  N   UNL     1     -34.401  24.412   6.000  0.00  0.00    -0.334 N 
ATOM      2  C   UNL     1     -34.995  24.720   3.248  0.00  0.00    +0.013 C 
ATOM      3  C   UNL     1     -35.413  23.493   4.068  0.00  0.00    +0.071 C 
ATOM      4  C   UNL     1     -34.378  25.830   4.106  0.00  0.00    +0.085 C 
ATOM      5  C   UNL     1     -35.090  23.383   5.376  0.00  0.00    +0.098 C 
ATOM      6  C   UNL     1     -34.086  25.625   5.410  0.00  0.00    +0.028 C 
ATOM      7  C   UNL     1     -35.413  22.210   6.262  0.00  0.00    +0.026 C 
ATOM      8  C   UNL     1     -33.432  26.625   6.325  0.00  0.00    +0.047 C 
ATOM      9  H   UNL     1     -34.112  24.269   6.930  0.00  0.00    +0.147 HD
ENDROOT
BRANCH   2  10
ATOM     10  C   UNL     1     -36.176  25.256   2.491  0.00  0.00    +0.023 C 
ATOM     11  C   UNL     1     -36.193  25.266   1.100  0.00  0.00    +0.144 C 
ATOM     12  C   UNL     1     -37.260  25.746   3.214  0.00  0.00    +0.003 C 
ATOM     13  C   UNL     1     -37.304  25.770   0.425  0.00  0.00    +0.048 C 
ATOM     14  C   UNL     1     -38.371  26.250   2.538  0.00  0.00    +0.024 C 
ATOM     15  C   UNL     1     -38.394  26.261   1.144  0.00  0.00    +0.145 C 
BRANCH  11  18
ATOM     16  O   UNL     1     -34.207  25.571  -0.032  0.00  0.00    -0.126 OA
ATOM     17  O   UNL     1     -35.042  23.544   0.085  0.00  0.00    -0.126 OA
ATOM     18  N   UNL     1     -35.093  24.768   0.347  0.00  0.00    +0.058 N 
ENDBRANCH  11  18
BRANCH  15  21
ATOM     19  O   UNL     1     -39.673  26.503  -0.760  0.00  0.00    -0.126 OA
ATOM     20  O   UNL     1     -40.346  27.487   1.083  0.00  0.00    -0.126 OA
ATOM     21  N   UNL     1     -39.525  26.775   0.457  0.00  0.00    +0.058 N 
ENDBRANCH  15  21
ENDBRANCH   2  10
BRANCH   3  23
ATOM     22  O   UNL     1     -37.444  22.484   3.375  0.00  0.00    -0.245 OA
ATOM     23  C   UNL     1     -36.227  22.483   3.371  0.00  0.00    +0.339 C 
BRANCH  23  24
ATOM     24  O   UNL     1     -35.391  21.607   2.762  0.00  0.00    -0.442 OA
ATOM     25  C   UNL     1     -36.022  20.442   2.222  0.00  0.00    +0.256 C 
ENDBRANCH  23  24
ENDBRANCH   3  23
BRANCH   4  27
ATOM     26  O   UNL     1     -34.859  28.108   3.665  0.00  0.00    -0.245 OA
ATOM     27  C   UNL     1     -34.167  27.130   3.449  0.00  0.00    +0.342 C 
BRANCH  27  28
ATOM     28  O   UNL     1     -33.111  27.018   2.608  0.00  0.00    -0.441 OA
ATOM     29  C   UNL     1     -31.948  27.759   2.993  0.00  0.00    +0.256 C 
ENDBRANCH  27  28
ENDBRANCH   4  27
TORSDOF 7
ENDMDL
MODEL 7
REMARK VINA RESULT:      -5.3      2.524      5.329
REMARK  Name = 193578
REMARK  7 active torsions:
REMARK  status: ('A' for Active; 'I' for Inactive)
REMARK    1  A    between atoms: C_2  and  C_10
REMARK    2  A    between atoms: C_3  and  C_23
REMARK    3  A    between atoms: C_4  and  C_27
REMARK    4  A    between atoms: C_11  and  N_18
REMARK    5  A    between atoms: C_15  and  N_21
REMARK    6  A    between atoms: C_23  and  O_24
REMARK    7  A    between atoms: C_27  and  O_28
REMARK                            x       y       z     vdW  Elec       q    Type
REMARK                         _______ _______ _______ _____ _____    ______ ____
ROOT
ATOM      1  N   UNL     1     -35.549  21.190   3.764  0.00  0.00    -0.334 N 
ATOM      2  C   UNL     1     -36.057  23.685   2.524  0.00  0.00    +0.013 C 
ATOM      3  C   UNL     1     -36.235  22.339   1.811  0.00  0.00    +0.071 C 
ATOM      4  C   UNL     1     -35.744  23.535   4.017  0.00  0.00    +0.085 C 
ATOM      5  C   UNL     1     -35.963  21.174   2.441  0.00  0.00    +0.098 C 
ATOM      6  C   UNL     1     -35.481  22.324   4.558  0.00  0.00    +0.028 C 
ATOM      7  C   UNL     1     -36.063  19.803   1.826  0.00  0.00    +0.026 C 
ATOM      8  C   UNL     1     -35.111  22.072   5.993  0.00  0.00    +0.047 C 
ATOM      9  H   UNL     1     -35.284  20.334   4.169  0.00  0.00    +0.147 HD
ENDROOT
BRANCH   2  10
ATOM     10  C   UNL     1     -37.287  24.527   2.341  0.00  0.00    +0.023 C 
ATOM     11  C   UNL     1     -37.230  25.749   1.679  0.00  0.00    +0.144 C 
ATOM     12  C   UNL     1     -38.493  24.057   2.853  0.00  0.00    +0.003 C 
ATOM     13  C   UNL     1     -38.388  26.509   1.525  0.00  0.00    +0.048 C 
ATOM     14  C   UNL     1     -39.653  24.817   2.698  0.00  0.00    +0.024 C 
ATOM     15  C   UNL     1     -39.601  26.043   2.034  0.00  0.00    +0.145 C 
BRANCH  11  18
ATOM     16  O   UNL     1     -35.287  26.977   1.872  0.00  0.00    -0.126 OA
ATOM     17  O   UNL     1     -35.678  25.930  -0.018  0.00  0.00    -0.126 OA
ATOM     18  N   UNL     1     -36.004  26.243   1.151  0.00  0.00    +0.058 N 
ENDBRANCH  11  18
BRANCH  15  21
ATOM     19  O   UNL     1     -41.407  27.183   2.903  0.00  0.00    -0.126 OA
ATOM     20  O   UNL     1     -41.168  27.110   0.722  0.00  0.00    -0.126 OA
ATOM     21  N   UNL     1     -40.781  26.815   1.878  0.00  0.00    +0.058 N 
ENDBRANCH  15  21
ENDBRANCH   2  10
BRANCH   3  23
ATOM     22  O   UNL     1     -37.920  22.107   0.160  0.00  0.00    -0.245 OA
ATOM     23  C   UNL     1     -36.769  22.386   0.440  0.00  0.00    +0.339 C 
BRANCH  23  24
ATOM     24  O   UNL     1     -35.776  22.782  -0.392  0.00  0.00    -0.442 OA
ATOM     25  C   UNL     1     -35.592  21.962  -1.550  0.00  0.00    +0.256 C 
ENDBRANCH  23  24
ENDBRANCH   3  23
BRANCH   4  27
ATOM     26  O   UNL     1     -36.751  25.078   5.507  0.00  0.00    -0.245 OA
ATOM     27  C   UNL     1     -35.792  24.762   4.827  0.00  0.00    +0.342 C 
BRANCH  27  28
ATOM     28  O   UNL     1     -34.622  25.426   4.668  0.00  0.00    -0.441 OA
ATOM     29  C   UNL     1     -34.128  26.074   5.844  0.00  0.00    +0.256 C 
ENDBRANCH  27  28
ENDBRANCH   4  27
TORSDOF 7
ENDMDL
MODEL 8
REMARK VINA RESULT:      -5.3      2.357      3.134
REMARK  Name = 193578
REMARK  7 active torsions:
REMARK  status: ('A' for Active; 'I' for Inactive)
REMARK    1  A    between atoms: C_2  and  C_10
REMARK    2  A    between atoms: C_3  and  C_23
REMARK    3  A    between atoms: C_4  and  C_27
REMARK    4  A    between atoms: C_11  and  N_18
REMARK    5  A    between atoms: C_15  and  N_21
REMARK    6  A    between atoms: C_23  and  O_24
REMARK    7  A    between atoms: C_27  and  O_28
REMARK                            x       y       z     vdW  Elec       q    Type
REMARK                         _______ _______ _______ _____ _____    ______ ____
ROOT
ATOM      1  N   UNL     1     -32.066  25.527   1.092  0.00  0.00    -0.334 N 
ATOM      2  C   UNL     1     -34.320  24.650   2.565  0.00  0.00    +0.013 C 
ATOM      3  C   UNL     1     -33.455  25.847   2.981  0.00  0.00    +0.071 C 
ATOM      4  C   UNL     1     -33.942  24.090   1.190  0.00  0.00    +0.085 C 
ATOM      5  C   UNL     1     -32.377  26.217   2.254  0.00  0.00    +0.098 C 
ATOM      6  C   UNL     1     -32.840  24.521   0.537  0.00  0.00    +0.028 C 
ATOM      7  C   UNL     1     -31.440  27.345   2.591  0.00  0.00    +0.026 C 
ATOM      8  C   UNL     1     -32.351  24.001  -0.787  0.00  0.00    +0.047 C 
ATOM      9  H   UNL     1     -31.232  25.769   0.628  0.00  0.00    +0.147 HD
ENDROOT
BRANCH   2  10
ATOM     10  C   UNL     1     -35.771  25.038   2.579  0.00  0.00    +0.023 C 
ATOM     11  C   UNL     1     -36.668  24.429   3.451  0.00  0.00    +0.144 C 
ATOM     12  C   UNL     1     -36.202  26.024   1.697  0.00  0.00    +0.003 C 
ATOM     13  C   UNL     1     -38.009  24.810   3.441  0.00  0.00    +0.048 C 
ATOM     14  C   UNL     1     -37.543  26.405   1.687  0.00  0.00    +0.024 C 
ATOM     15  C   UNL     1     -38.447  25.799   2.559  0.00  0.00    +0.145 C 
BRANCH  11  18
ATOM     16  O   UNL     1     -35.977  23.742   5.541  0.00  0.00    -0.126 OA
ATOM     17  O   UNL     1     -36.148  22.238   3.951  0.00  0.00    -0.126 OA
ATOM     18  N   UNL     1     -36.243  23.419   4.359  0.00  0.00    +0.058 N 
ENDBRANCH  11  18
BRANCH  15  21
ATOM     19  O   UNL     1     -40.591  25.697   3.402  0.00  0.00    -0.126 OA
ATOM     20  O   UNL     1     -40.204  27.009   1.685  0.00  0.00    -0.126 OA
ATOM     21  N   UNL     1     -39.813  26.187   2.548  0.00  0.00    +0.058 N 
ENDBRANCH  15  21
ENDBRANCH   2  10
BRANCH   3  23
ATOM     22  O   UNL     1     -34.509  27.646   4.111  0.00  0.00    -0.245 OA
ATOM     23  C   UNL     1     -33.897  26.595   4.169  0.00  0.00    +0.339 C 
BRANCH  23  24
ATOM     24  O   UNL     1     -33.504  25.914   5.274  0.00  0.00    -0.442 OA
ATOM     25  C   UNL     1     -33.224  26.725   6.419  0.00  0.00    +0.256 C 
ENDBRANCH  23  24
ENDBRANCH   3  23
BRANCH   4  27
ATOM     26  O   UNL     1     -35.628  23.356  -0.306  0.00  0.00    -0.245 OA
ATOM     27  C   UNL     1     -34.864  23.101   0.606  0.00  0.00    +0.342 C 
BRANCH  27  28
ATOM     28  O   UNL     1     -34.694  21.924   1.254  0.00  0.00    -0.441 OA
ATOM     29  C   UNL     1     -33.994  20.920   0.513  0.00  0.00    +0.256 C 
ENDBRANCH  27  28
ENDBRANCH   4  27
TORSDOF 7
ENDMDL
MODEL 9
REMARK VINA RESULT:      -5.2      2.125      5.987
REMARK  Name = 193578
REMARK  7 active torsions:
REMARK  status: ('A' for Active; 'I' for Inactive)
REMARK    1  A    between atoms: C_2  and  C_10
REMARK    2  A    between atoms: C_3  and  C_23
REMARK    3  A    between atoms: C_4  and  C_27
REMARK    4  A    between atoms: C_11  and  N_18
REMARK    5  A    between atoms: C_15  and  N_21
REMARK    6  A    between atoms: C_23  and  O_24
REMARK    7  A    between atoms: C_27  and  O_28
REMARK                            x       y       z     vdW  Elec       q    Type
REMARK                         _______ _______ _______ _____ _____    ______ ____
ROOT
ATOM      1  N   UNL     1     -38.565  21.212   0.794  0.00  0.00    -0.334 N 
ATOM      2  C   UNL     1     -36.853  22.442   2.686  0.00  0.00    +0.013 C 
ATOM      3  C   UNL     1     -36.489  21.157   1.931  0.00  0.00    +0.071 C 
ATOM      4  C   UNL     1     -38.155  23.079   2.188  0.00  0.00    +0.085 C 
ATOM      5  C   UNL     1     -37.348  20.597   1.050  0.00  0.00    +0.098 C 
ATOM      6  C   UNL     1     -38.954  22.440   1.304  0.00  0.00    +0.028 C 
ATOM      7  C   UNL     1     -37.111  19.321   0.287  0.00  0.00    +0.026 C 
ATOM      8  C   UNL     1     -40.273  22.950   0.794  0.00  0.00    +0.047 C 
ATOM      9  H   UNL     1     -39.200  20.740   0.209  0.00  0.00    +0.147 HD
ENDROOT
BRANCH   2  10
ATOM     10  C   UNL     1     -35.727  23.430   2.584  0.00  0.00    +0.023 C 
ATOM     11  C   UNL     1     -35.093  23.916   3.723  0.00  0.00    +0.144 C 
ATOM     12  C   UNL     1     -35.331  23.855   1.320  0.00  0.00    +0.003 C 
ATOM     13  C   UNL     1     -34.051  24.833   3.598  0.00  0.00    +0.048 C 
ATOM     14  C   UNL     1     -34.288  24.773   1.194  0.00  0.00    +0.024 C 
ATOM     15  C   UNL     1     -33.647  25.261   2.333  0.00  0.00    +0.145 C 
BRANCH  11  18
ATOM     16  O   UNL     1     -36.300  24.195   5.669  0.00  0.00    -0.126 OA
ATOM     17  O   UNL     1     -35.011  22.428   5.484  0.00  0.00    -0.126 OA
ATOM     18  N   UNL     1     -35.487  23.491   5.023  0.00  0.00    +0.058 N 
ENDBRANCH  11  18
BRANCH  15  21
ATOM     19  O   UNL     1     -32.384  26.736   1.088  0.00  0.00    -0.126 OA
ATOM     20  O   UNL     1     -31.879  26.456   3.206  0.00  0.00    -0.126 OA
ATOM     21  N   UNL     1     -32.586  26.196   2.204  0.00  0.00    +0.058 N 
ENDBRANCH  15  21
ENDBRANCH   2  10
BRANCH   3  23
ATOM     22  O   UNL     1     -34.791  20.155   3.248  0.00  0.00    -0.245 OA
ATOM     23  C   UNL     1     -35.145  20.609   2.175  0.00  0.00    +0.339 C 
BRANCH  23  24
ATOM     24  O   UNL     1     -34.428  20.709   1.029  0.00  0.00    -0.442 OA
ATOM     25  C   UNL     1     -33.437  19.694   0.843  0.00  0.00    +0.256 C 
ENDBRANCH  23  24
ENDBRANCH   3  23
BRANCH   4  27
ATOM     26  O   UNL     1     -38.798  24.663   3.830  0.00  0.00    -0.245 OA
ATOM     27  C   UNL     1     -38.458  24.431   2.684  0.00  0.00    +0.342 C 
BRANCH  27  28
ATOM     28  O   UNL     1     -38.291  25.309   1.665  0.00  0.00    -0.441 OA
ATOM     29  C   UNL     1     -37.672  26.547   2.027  0.00  0.00    +0.256 C 
ENDBRANCH  27  28
ENDBRANCH   4  27
TORSDOF 7
ENDMDL
