MODEL 1
REMARK VINA RESULT:      -6.2      0.000      0.000
REMARK  Name = 192787
REMARK  5 active torsions:
REMARK  status: ('A' for Active; 'I' for Inactive)
REMARK    1  A    between atoms: N_1  and  N_2
REMARK    2  A    between atoms: N_1  and  C_8
REMARK    3  A    between atoms: N_2  and  C_17
REMARK    4  A    between atoms: C_15  and  S_21
REMARK    5  A    between atoms: C_16  and  O_25
REMARK                            x       y       z     vdW  Elec       q    Type
REMARK                         _______ _______ _______ _____ _____    ______ ____
ROOT
ATOM      1  N   UNL     1     -34.056  27.093   5.074  0.00  0.00    -0.144 NA
ENDROOT
BRANCH   1   5
ATOM      2 CL   UNL     1     -35.165  22.274   6.378  0.00  0.00    -0.082 Cl
ATOM      3  C   UNL     1     -36.764  24.903   3.822  0.00  0.00    +0.148 C 
ATOM      4  C   UNL     1     -35.946  26.020   3.990  0.00  0.00    +0.168 C 
ATOM      5  C   UNL     1     -34.889  25.976   4.895  0.00  0.00    +0.121 C 
ATOM      6  C   UNL     1     -36.523  23.745   4.561  0.00  0.00    +0.033 C 
ATOM      7  C   UNL     1     -34.645  24.821   5.635  0.00  0.00    +0.032 C 
ATOM      8  C   UNL     1     -35.464  23.704   5.467  0.00  0.00    +0.061 C 
BRANCH   3   9
ATOM      9  S   UNL     1     -38.100  24.928   2.692  0.00  0.00    +0.045 S 
ATOM     10  O   UNL     1     -38.887  26.328   2.993  0.00  0.00    -0.065 OA
ATOM     11  O   UNL     1     -37.547  25.028   1.351  0.00  0.00    -0.065 OA
ATOM     12  O   UNL     1     -38.978  23.828   3.055  0.00  0.00    -0.065 OA
ENDBRANCH   3   9
BRANCH   4  13
ATOM     13  O   UNL     1     -36.177  27.156   3.269  0.00  0.00    -0.503 OA
ATOM     14  H   UNL     1     -36.920  27.206   2.701  0.00  0.00    +0.292 HD
ENDBRANCH   4  13
ENDBRANCH   1   5
BRANCH   1  15
ATOM     15  N   UNL     1     -32.893  26.810   4.717  0.00  0.00    -0.094 NA
BRANCH  15  21
ATOM     16  O   UNL     1     -31.603  28.880   6.136  0.00  0.00    -0.273 OA
ATOM     17  O   UNL     1     -33.236  27.281   1.953  0.00  0.00    -0.273 OA
ATOM     18  O   UNL     1     -33.862  31.643   3.246  0.00  0.00    -0.252 OA
ATOM     19  N   UNL     1     -32.716  30.249   4.668  0.00  0.00    -0.238 N 
ATOM     20  N   UNL     1     -33.521  29.462   2.610  0.00  0.00    -0.238 N 
ATOM     21  C   UNL     1     -32.251  27.936   4.035  0.00  0.00    +0.247 C 
ATOM     22  C   UNL     1     -32.153  29.044   5.046  0.00  0.00    +0.256 C 
ATOM     23  C   UNL     1     -33.040  28.175   2.777  0.00  0.00    +0.256 C 
ATOM     24  C   UNL     1     -33.394  30.528   3.489  0.00  0.00    +0.312 C 
ATOM     25  H   UNL     1     -32.624  30.993   5.306  0.00  0.00    +0.159 HD
ATOM     26  H   UNL     1     -34.006  29.641   1.772  0.00  0.00    +0.159 HD
ENDBRANCH  15  21
ENDBRANCH   1  15
TORSDOF 5
ENDMDL
MODEL 2
REMARK VINA RESULT:      -6.2      3.642      5.200
REMARK  Name = 192787
REMARK  5 active torsions:
REMARK  status: ('A' for Active; 'I' for Inactive)
REMARK    1  A    between atoms: N_1  and  N_2
REMARK    2  A    between atoms: N_1  and  C_8
REMARK    3  A    between atoms: N_2  and  C_17
REMARK    4  A    between atoms: C_15  and  S_21
REMARK    5  A    between atoms: C_16  and  O_25
REMARK                            x       y       z     vdW  Elec       q    Type
REMARK                         _______ _______ _______ _____ _____    ______ ____
ROOT
ATOM      1  N   UNL     1     -37.546  23.975   3.851  0.00  0.00    -0.144 NA
ENDROOT
BRANCH   1   5
ATOM      2 CL   UNL     1     -40.365  21.499   0.376  0.00  0.00    -0.082 Cl
ATOM      3  C   UNL     1     -40.310  25.255   1.748  0.00  0.00    +0.148 C 
ATOM      4  C   UNL     1     -39.279  25.217   2.687  0.00  0.00    +0.168 C 
ATOM      5  C   UNL     1     -38.587  24.029   2.909  0.00  0.00    +0.121 C 
ATOM      6  C   UNL     1     -40.646  24.106   1.035  0.00  0.00    +0.033 C 
ATOM      7  C   UNL     1     -38.921  22.878   2.198  0.00  0.00    +0.032 C 
ATOM      8  C   UNL     1     -39.951  22.918   1.259  0.00  0.00    +0.061 C 
BRANCH   3   9
ATOM      9  S   UNL     1     -41.197  26.733   1.448  0.00  0.00    +0.045 S 
ATOM     10  O   UNL     1     -41.608  27.293   2.927  0.00  0.00    -0.065 OA
ATOM     11  O   UNL     1     -40.276  27.697   0.868  0.00  0.00    -0.065 OA
ATOM     12  O   UNL     1     -42.416  26.357   0.751  0.00  0.00    -0.065 OA
ENDBRANCH   3   9
BRANCH   4  13
ATOM     13  O   UNL     1     -38.945  26.339   3.389  0.00  0.00    -0.503 OA
ATOM     14  H   UNL     1     -39.059  27.184   3.000  0.00  0.00    +0.292 HD
ENDBRANCH   4  13
ENDBRANCH   1   5
BRANCH   1  15
ATOM     15  N   UNL     1     -36.821  22.985   3.618  0.00  0.00    -0.094 NA
BRANCH  15  21
ATOM     16  O   UNL     1     -35.944  22.566   6.267  0.00  0.00    -0.273 OA
ATOM     17  O   UNL     1     -34.973  24.303   1.935  0.00  0.00    -0.273 OA
ATOM     18  O   UNL     1     -33.876  26.632   5.737  0.00  0.00    -0.252 OA
ATOM     19  N   UNL     1     -34.893  24.585   5.980  0.00  0.00    -0.238 N 
ATOM     20  N   UNL     1     -34.416  25.441   3.848  0.00  0.00    -0.238 N 
ATOM     21  C   UNL     1     -35.435  23.227   4.024  0.00  0.00    +0.247 C 
ATOM     22  C   UNL     1     -35.456  23.411   5.515  0.00  0.00    +0.256 C 
ATOM     23  C   UNL     1     -34.931  24.354   3.165  0.00  0.00    +0.256 C 
ATOM     24  C   UNL     1     -34.358  25.620   5.224  0.00  0.00    +0.312 C 
ATOM     25  H   UNL     1     -34.866  24.701   6.958  0.00  0.00    +0.159 HD
ATOM     26  H   UNL     1     -34.049  26.169   3.297  0.00  0.00    +0.159 HD
ENDBRANCH  15  21
ENDBRANCH   1  15
TORSDOF 5
ENDMDL
MODEL 3
REMARK VINA RESULT:      -6.1      1.161      1.558
REMARK  Name = 192787
REMARK  5 active torsions:
REMARK  status: ('A' for Active; 'I' for Inactive)
REMARK    1  A    between atoms: N_1  and  N_2
REMARK    2  A    between atoms: N_1  and  C_8
REMARK    3  A    between atoms: N_2  and  C_17
REMARK    4  A    between atoms: C_15  and  S_21
REMARK    5  A    between atoms: C_16  and  O_25
REMARK                            x       y       z     vdW  Elec       q    Type
REMARK                         _______ _______ _______ _____ _____    ______ ____
ROOT
ATOM      1  N   UNL     1     -33.956  27.108   4.425  0.00  0.00    -0.144 NA
ENDROOT
BRANCH   1   5
ATOM      2 CL   UNL     1     -35.147  22.495   6.283  0.00  0.00    -0.082 Cl
ATOM      3  C   UNL     1     -36.891  24.981   3.680  0.00  0.00    +0.148 C 
ATOM      4  C   UNL     1     -36.005  26.058   3.654  0.00  0.00    +0.168 C 
ATOM      5  C   UNL     1     -34.857  26.031   4.441  0.00  0.00    +0.121 C 
ATOM      6  C   UNL     1     -36.626  23.880   4.493  0.00  0.00    +0.033 C 
ATOM      7  C   UNL     1     -34.589  24.932   5.256  0.00  0.00    +0.032 C 
ATOM      8  C   UNL     1     -35.475  23.855   5.281  0.00  0.00    +0.061 C 
BRANCH   3   9
ATOM      9  S   UNL     1     -38.343  24.986   2.703  0.00  0.00    +0.045 S 
ATOM     10  O   UNL     1     -39.067  26.416   3.022  0.00  0.00    -0.065 OA
ATOM     11  O   UNL     1     -37.939  25.015   1.306  0.00  0.00    -0.065 OA
ATOM     12  O   UNL     1     -39.194  23.923   3.210  0.00  0.00    -0.065 OA
ENDBRANCH   3   9
BRANCH   4  13
ATOM     13  O   UNL     1     -36.260  27.139   2.860  0.00  0.00    -0.503 OA
ATOM     14  H   UNL     1     -37.041  27.639   2.988  0.00  0.00    +0.292 HD
ENDBRANCH   4  13
ENDBRANCH   1   5
BRANCH   1  15
ATOM     15  N   UNL     1     -33.469  27.231   3.282  0.00  0.00    -0.094 NA
BRANCH  15  21
ATOM     16  O   UNL     1     -30.681  27.377   3.686  0.00  0.00    -0.273 OA
ATOM     17  O   UNL     1     -34.779  29.721   3.030  0.00  0.00    -0.273 OA
ATOM     18  O   UNL     1     -31.696  31.133   6.126  0.00  0.00    -0.252 OA
ATOM     19  N   UNL     1     -31.198  29.268   4.879  0.00  0.00    -0.238 N 
ATOM     20  N   UNL     1     -33.216  30.420   4.557  0.00  0.00    -0.238 N 
ATOM     21  C   UNL     1     -32.731  28.488   3.144  0.00  0.00    +0.247 C 
ATOM     22  C   UNL     1     -31.450  28.312   3.912  0.00  0.00    +0.256 C 
ATOM     23  C   UNL     1     -33.675  29.583   3.556  0.00  0.00    +0.256 C 
ATOM     24  C   UNL     1     -32.013  30.331   5.245  0.00  0.00    +0.312 C 
ATOM     25  H   UNL     1     -30.345  29.186   5.363  0.00  0.00    +0.159 HD
ATOM     26  H   UNL     1     -33.810  31.165   4.810  0.00  0.00    +0.159 HD
ENDBRANCH  15  21
ENDBRANCH   1  15
TORSDOF 5
ENDMDL
MODEL 4
REMARK VINA RESULT:      -6.0      4.610      6.525
REMARK  Name = 192787
REMARK  5 active torsions:
REMARK  status: ('A' for Active; 'I' for Inactive)
REMARK    1  A    between atoms: N_1  and  N_2
REMARK    2  A    between atoms: N_1  and  C_8
REMARK    3  A    between atoms: N_2  and  C_17
REMARK    4  A    between atoms: C_15  and  S_21
REMARK    5  A    between atoms: C_16  and  O_25
REMARK                            x       y       z     vdW  Elec       q    Type
REMARK                         _______ _______ _______ _____ _____    ______ ____
ROOT
ATOM      1  N   UNL     1     -38.166  24.334   3.690  0.00  0.00    -0.144 NA
ENDROOT
BRANCH   1   5
ATOM      2 CL   UNL     1     -40.802  22.158  -0.114  0.00  0.00    -0.082 Cl
ATOM      3  C   UNL     1     -41.124  25.615   1.871  0.00  0.00    +0.148 C 
ATOM      4  C   UNL     1     -40.065  25.542   2.776  0.00  0.00    +0.168 C 
ATOM      5  C   UNL     1     -39.237  24.422   2.785  0.00  0.00    +0.121 C 
ATOM      6  C   UNL     1     -41.352  24.570   0.978  0.00  0.00    +0.033 C 
ATOM      7  C   UNL     1     -39.463  23.374   1.894  0.00  0.00    +0.032 C 
ATOM      8  C   UNL     1     -40.522  23.449   0.990  0.00  0.00    +0.061 C 
BRANCH   3   9
ATOM      9  S   UNL     1     -42.181  27.010   1.836  0.00  0.00    +0.045 S 
ATOM     10  O   UNL     1     -43.293  26.673   0.687  0.00  0.00    -0.065 OA
ATOM     11  O   UNL     1     -42.885  27.067   3.107  0.00  0.00    -0.065 OA
ATOM     12  O   UNL     1     -41.381  28.132   1.377  0.00  0.00    -0.065 OA
ENDBRANCH   3   9
BRANCH   4  13
ATOM     13  O   UNL     1     -39.837  26.563   3.652  0.00  0.00    -0.503 OA
ATOM     14  H   UNL     1     -39.057  27.078   3.578  0.00  0.00    +0.292 HD
ENDBRANCH   4  13
ENDBRANCH   1   5
BRANCH   1  15
ATOM     15  N   UNL     1     -37.188  24.971   3.246  0.00  0.00    -0.094 NA
BRANCH  15  21
ATOM     16  O   UNL     1     -35.987  22.853   1.821  0.00  0.00    -0.273 OA
ATOM     17  O   UNL     1     -36.017  25.551   5.750  0.00  0.00    -0.273 OA
ATOM     18  O   UNL     1     -35.378  21.010   5.983  0.00  0.00    -0.252 OA
ATOM     19  N   UNL     1     -35.663  21.955   3.908  0.00  0.00    -0.238 N 
ATOM     20  N   UNL     1     -35.680  23.283   5.842  0.00  0.00    -0.238 N 
ATOM     21  C   UNL     1     -35.920  24.373   3.668  0.00  0.00    +0.247 C 
ATOM     22  C   UNL     1     -35.864  23.010   3.036  0.00  0.00    +0.256 C 
ATOM     23  C   UNL     1     -35.882  24.474   5.168  0.00  0.00    +0.256 C 
ATOM     24  C   UNL     1     -35.557  22.015   5.291  0.00  0.00    +0.312 C 
ATOM     25  H   UNL     1     -35.586  21.061   3.502  0.00  0.00    +0.159 HD
ATOM     26  H   UNL     1     -35.614  23.342   6.823  0.00  0.00    +0.159 HD
ENDBRANCH  15  21
ENDBRANCH   1  15
TORSDOF 5
ENDMDL
MODEL 5
REMARK VINA RESULT:      -6.0      3.838      6.869
REMARK  Name = 192787
REMARK  5 active torsions:
REMARK  status: ('A' for Active; 'I' for Inactive)
REMARK    1  A    between atoms: N_1  and  N_2
REMARK    2  A    between atoms: N_1  and  C_8
REMARK    3  A    between atoms: N_2  and  C_17
REMARK    4  A    between atoms: C_15  and  S_21
REMARK    5  A    between atoms: C_16  and  O_25
REMARK                            x       y       z     vdW  Elec       q    Type
REMARK                         _______ _______ _______ _____ _____    ______ ____
ROOT
ATOM      1  N   UNL     1     -36.901  24.115   1.827  0.00  0.00    -0.144 NA
ENDROOT
BRANCH   1   5
ATOM      2 CL   UNL     1     -35.542  22.278   6.402  0.00  0.00    -0.082 Cl
ATOM      3  C   UNL     1     -34.477  25.486   4.264  0.00  0.00    +0.148 C 
ATOM      4  C   UNL     1     -35.252  25.350   3.112  0.00  0.00    +0.168 C 
ATOM      5  C   UNL     1     -36.114  24.265   2.981  0.00  0.00    +0.121 C 
ATOM      6  C   UNL     1     -34.566  24.536   5.280  0.00  0.00    +0.033 C 
ATOM      7  C   UNL     1     -36.205  23.313   3.995  0.00  0.00    +0.032 C 
ATOM      8  C   UNL     1     -35.430  23.450   5.146  0.00  0.00    +0.061 C 
BRANCH   3   9
ATOM      9  S   UNL     1     -33.384  26.839   4.458  0.00  0.00    +0.045 S 
ATOM     10  O   UNL     1     -34.246  28.152   4.006  0.00  0.00    -0.065 OA
ATOM     11  O   UNL     1     -33.099  26.982   5.877  0.00  0.00    -0.065 OA
ATOM     12  O   UNL     1     -32.308  26.651   3.498  0.00  0.00    -0.065 OA
ENDBRANCH   3   9
BRANCH   4  13
ATOM     13  O   UNL     1     -35.169  26.277   2.114  0.00  0.00    -0.503 OA
ATOM     14  H   UNL     1     -35.515  26.083   1.265  0.00  0.00    +0.292 HD
ENDBRANCH   4  13
ENDBRANCH   1   5
BRANCH   1  15
ATOM     15  N   UNL     1     -37.679  25.086   1.721  0.00  0.00    -0.094 NA
BRANCH  15  21
ATOM     16  O   UNL     1     -39.719  24.464   3.568  0.00  0.00    -0.273 OA
ATOM     17  O   UNL     1     -38.247  24.419  -0.965  0.00  0.00    -0.273 OA
ATOM     18  O   UNL     1     -40.412  20.811   0.874  0.00  0.00    -0.252 OA
ATOM     19  N   UNL     1     -40.074  22.658   2.199  0.00  0.00    -0.238 N 
ATOM     20  N   UNL     1     -39.348  22.635  -0.032  0.00  0.00    -0.238 N 
ATOM     21  C   UNL     1     -39.013  24.662   1.290  0.00  0.00    +0.247 C 
ATOM     22  C   UNL     1     -39.625  23.940   2.458  0.00  0.00    +0.256 C 
ATOM     23  C   UNL     1     -38.825  23.915  -0.001  0.00  0.00    +0.256 C 
ATOM     24  C   UNL     1     -39.978  21.958   1.003  0.00  0.00    +0.312 C 
ATOM     25  H   UNL     1     -40.511  22.188   2.946  0.00  0.00    +0.159 HD
ATOM     26  H   UNL     1     -39.265  22.149  -0.885  0.00  0.00    +0.159 HD
ENDBRANCH  15  21
ENDBRANCH   1  15
TORSDOF 5
ENDMDL
MODEL 6
REMARK VINA RESULT:      -6.0      4.246      7.235
REMARK  Name = 192787
REMARK  5 active torsions:
REMARK  status: ('A' for Active; 'I' for Inactive)
REMARK    1  A    between atoms: N_1  and  N_2
REMARK    2  A    between atoms: N_1  and  C_8
REMARK    3  A    between atoms: N_2  and  C_17
REMARK    4  A    between atoms: C_15  and  S_21
REMARK    5  A    between atoms: C_16  and  O_25
REMARK                            x       y       z     vdW  Elec       q    Type
REMARK                         _______ _______ _______ _____ _____    ______ ____
ROOT
ATOM      1  N   UNL     1     -36.856  23.522   1.965  0.00  0.00    -0.144 NA
ENDROOT
BRANCH   1   5
ATOM      2 CL   UNL     1     -35.441  22.057   6.655  0.00  0.00    -0.082 Cl
ATOM      3  C   UNL     1     -34.598  25.219   4.356  0.00  0.00    +0.148 C 
ATOM      4  C   UNL     1     -35.338  24.957   3.202  0.00  0.00    +0.168 C 
ATOM      5  C   UNL     1     -36.106  23.799   3.120  0.00  0.00    +0.121 C 
ATOM      6  C   UNL     1     -34.630  24.322   5.423  0.00  0.00    +0.033 C 
ATOM      7  C   UNL     1     -36.139  22.900   4.184  0.00  0.00    +0.032 C 
ATOM      8  C   UNL     1     -35.400  23.163   5.337  0.00  0.00    +0.061 C 
BRANCH   3   9
ATOM      9  S   UNL     1     -33.623  26.666   4.490  0.00  0.00    +0.045 S 
ATOM     10  O   UNL     1     -32.447  26.493   3.368  0.00  0.00    -0.065 OA
ATOM     11  O   UNL     1     -34.442  27.796   4.079  0.00  0.00    -0.065 OA
ATOM     12  O   UNL     1     -33.004  26.635   5.804  0.00  0.00    -0.065 OA
ENDBRANCH   3   9
BRANCH   4  13
ATOM     13  O   UNL     1     -35.311  25.832   2.155  0.00  0.00    -0.503 OA
ATOM     14  H   UNL     1     -34.798  26.614   2.212  0.00  0.00    +0.292 HD
ENDBRANCH   4  13
ENDBRANCH   1   5
BRANCH   1  15
ATOM     15  N   UNL     1     -36.127  22.975   1.112  0.00  0.00    -0.094 NA
BRANCH  15  21
ATOM     16  O   UNL     1     -37.703  23.801  -1.077  0.00  0.00    -0.273 OA
ATOM     17  O   UNL     1     -36.446  20.272   1.870  0.00  0.00    -0.273 OA
ATOM     18  O   UNL     1     -40.833  20.942   0.688  0.00  0.00    -0.252 OA
ATOM     19  N   UNL     1     -39.248  22.349  -0.201  0.00  0.00    -0.238 N 
ATOM     20  N   UNL     1     -38.630  20.613   1.251  0.00  0.00    -0.238 N 
ATOM     21  C   UNL     1     -36.878  22.021   0.293  0.00  0.00    +0.247 C 
ATOM     22  C   UNL     1     -37.959  22.811  -0.391  0.00  0.00    +0.256 C 
ATOM     23  C   UNL     1     -37.276  20.897   1.209  0.00  0.00    +0.256 C 
ATOM     24  C   UNL     1     -39.650  21.276   0.583  0.00  0.00    +0.312 C 
ATOM     25  H   UNL     1     -39.961  22.835  -0.675  0.00  0.00    +0.159 HD
ATOM     26  H   UNL     1     -38.899  19.854   1.818  0.00  0.00    +0.159 HD
ENDBRANCH  15  21
ENDBRANCH   1  15
TORSDOF 5
ENDMDL
MODEL 7
REMARK VINA RESULT:      -6.0      4.705      6.599
REMARK  Name = 192787
REMARK  5 active torsions:
REMARK  status: ('A' for Active; 'I' for Inactive)
REMARK    1  A    between atoms: N_1  and  N_2
REMARK    2  A    between atoms: N_1  and  C_8
REMARK    3  A    between atoms: N_2  and  C_17
REMARK    4  A    between atoms: C_15  and  S_21
REMARK    5  A    between atoms: C_16  and  O_25
REMARK                            x       y       z     vdW  Elec       q    Type
REMARK                         _______ _______ _______ _____ _____    ______ ____
ROOT
ATOM      1  N   UNL     1     -38.118  24.415   3.754  0.00  0.00    -0.144 NA
ENDROOT
BRANCH   1   5
ATOM      2 CL   UNL     1     -42.245  27.052   2.284  0.00  0.00    -0.082 Cl
ATOM      3  C   UNL     1     -40.569  23.619   1.098  0.00  0.00    +0.148 C 
ATOM      4  C   UNL     1     -39.466  23.516   1.945  0.00  0.00    +0.168 C 
ATOM      5  C   UNL     1     -39.225  24.506   2.894  0.00  0.00    +0.121 C 
ATOM      6  C   UNL     1     -41.428  24.713   1.203  0.00  0.00    +0.033 C 
ATOM      7  C   UNL     1     -40.081  25.600   3.001  0.00  0.00    +0.032 C 
ATOM      8  C   UNL     1     -41.184  25.703   2.154  0.00  0.00    +0.061 C 
BRANCH   3   9
ATOM      9  S   UNL     1     -40.899  22.391  -0.104  0.00  0.00    +0.045 S 
ATOM     10  O   UNL     1     -40.797  20.971   0.698  0.00  0.00    -0.065 OA
ATOM     11  O   UNL     1     -42.281  22.543  -0.530  0.00  0.00    -0.065 OA
ATOM     12  O   UNL     1     -39.813  22.446  -1.068  0.00  0.00    -0.065 OA
ENDBRANCH   3   9
BRANCH   4  13
ATOM     13  O   UNL     1     -38.622  22.448   1.847  0.00  0.00    -0.503 OA
ATOM     14  H   UNL     1     -37.992  22.411   1.155  0.00  0.00    +0.292 HD
ENDBRANCH   4  13
ENDBRANCH   1   5
BRANCH   1  15
ATOM     15  N   UNL     1     -37.152  25.036   3.262  0.00  0.00    -0.094 NA
BRANCH  15  21
ATOM     16  O   UNL     1     -35.783  23.054   1.793  0.00  0.00    -0.273 OA
ATOM     17  O   UNL     1     -36.116  25.552   5.839  0.00  0.00    -0.273 OA
ATOM     18  O   UNL     1     -35.247  21.044   5.887  0.00  0.00    -0.252 OA
ATOM     19  N   UNL     1     -35.498  22.073   3.848  0.00  0.00    -0.238 N 
ATOM     20  N   UNL     1     -35.663  23.303   5.839  0.00  0.00    -0.238 N 
ATOM     21  C   UNL     1     -35.873  24.483   3.710  0.00  0.00    +0.247 C 
ATOM     22  C   UNL     1     -35.718  23.157   3.019  0.00  0.00    +0.256 C 
ATOM     23  C   UNL     1     -35.901  24.513   5.214  0.00  0.00    +0.256 C 
ATOM     24  C   UNL     1     -35.451  22.070   5.236  0.00  0.00    +0.312 C 
ATOM     25  H   UNL     1     -35.357  21.205   3.405  0.00  0.00    +0.159 HD
ATOM     26  H   UNL     1     -35.641  23.316   6.824  0.00  0.00    +0.159 HD
ENDBRANCH  15  21
ENDBRANCH   1  15
TORSDOF 5
ENDMDL
MODEL 8
REMARK VINA RESULT:      -5.9      1.581      2.348
REMARK  Name = 192787
REMARK  5 active torsions:
REMARK  status: ('A' for Active; 'I' for Inactive)
REMARK    1  A    between atoms: N_1  and  N_2
REMARK    2  A    between atoms: N_1  and  C_8
REMARK    3  A    between atoms: N_2  and  C_17
REMARK    4  A    between atoms: C_15  and  S_21
REMARK    5  A    between atoms: C_16  and  O_25
REMARK                            x       y       z     vdW  Elec       q    Type
REMARK                         _______ _______ _______ _____ _____    ______ ____
ROOT
ATOM      1  N   UNL     1     -33.718  27.017   5.725  0.00  0.00    -0.144 NA
ENDROOT
BRANCH   1   5
ATOM      2 CL   UNL     1     -35.074  22.095   6.007  0.00  0.00    -0.082 Cl
ATOM      3  C   UNL     1     -36.274  25.187   3.773  0.00  0.00    +0.148 C 
ATOM      4  C   UNL     1     -35.466  26.225   4.237  0.00  0.00    +0.168 C 
ATOM      5  C   UNL     1     -34.539  25.983   5.248  0.00  0.00    +0.121 C 
ATOM      6  C   UNL     1     -36.153  23.911   4.320  0.00  0.00    +0.033 C 
ATOM      7  C   UNL     1     -34.416  24.708   5.798  0.00  0.00    +0.032 C 
ATOM      8  C   UNL     1     -35.224  23.671   5.333  0.00  0.00    +0.061 C 
BRANCH   3   9
ATOM      9  S   UNL     1     -37.448  25.461   2.504  0.00  0.00    +0.045 S 
ATOM     10  O   UNL     1     -36.610  26.170   1.293  0.00  0.00    -0.065 OA
ATOM     11  O   UNL     1     -37.888  24.164   2.016  0.00  0.00    -0.065 OA
ATOM     12  O   UNL     1     -38.405  26.426   3.019  0.00  0.00    -0.065 OA
ENDBRANCH   3   9
BRANCH   4  13
ATOM     13  O   UNL     1     -35.580  27.477   3.705  0.00  0.00    -0.503 OA
ATOM     14  H   UNL     1     -35.733  28.211   4.265  0.00  0.00    +0.292 HD
ENDBRANCH   4  13
ENDBRANCH   1   5
BRANCH   1  15
ATOM     15  N   UNL     1     -32.820  27.260   4.891  0.00  0.00    -0.094 NA
BRANCH  15  21
ATOM     16  O   UNL     1     -33.803  29.559   3.584  0.00  0.00    -0.273 OA
ATOM     17  O   UNL     1     -30.383  27.614   6.275  0.00  0.00    -0.273 OA
ATOM     18  O   UNL     1     -29.365  30.455   2.814  0.00  0.00    -0.252 OA
ATOM     19  N   UNL     1     -31.581  30.010   3.229  0.00  0.00    -0.238 N 
ATOM     20  N   UNL     1     -29.898  29.051   4.553  0.00  0.00    -0.238 N 
ATOM     21  C   UNL     1     -32.232  28.584   5.103  0.00  0.00    +0.247 C 
ATOM     22  C   UNL     1     -32.625  29.417   3.915  0.00  0.00    +0.256 C 
ATOM     23  C   UNL     1     -30.770  28.361   5.375  0.00  0.00    +0.256 C 
ATOM     24  C   UNL     1     -30.223  29.881   3.489  0.00  0.00    +0.312 C 
ATOM     25  H   UNL     1     -31.828  30.589   2.472  0.00  0.00    +0.159 HD
ATOM     26  H   UNL     1     -28.938  28.943   4.745  0.00  0.00    +0.159 HD
ENDBRANCH  15  21
ENDBRANCH   1  15
TORSDOF 5
ENDMDL
MODEL 9
REMARK VINA RESULT:      -5.9      3.836      5.361
REMARK  Name = 192787
REMARK  5 active torsions:
REMARK  status: ('A' for Active; 'I' for Inactive)
REMARK    1  A    between atoms: N_1  and  N_2
REMARK    2  A    between atoms: N_1  and  C_8
REMARK    3  A    between atoms: N_2  and  C_17
REMARK    4  A    between atoms: C_15  and  S_21
REMARK    5  A    between atoms: C_16  and  O_25
REMARK                            x       y       z     vdW  Elec       q    Type
REMARK                         _______ _______ _______ _____ _____    ______ ____
ROOT
ATOM      1  N   UNL     1     -35.976  23.275   2.988  0.00  0.00    -0.144 NA
ENDROOT
BRANCH   1   5
ATOM      2 CL   UNL     1     -34.314  18.870   0.992  0.00  0.00    -0.082 Cl
ATOM      3  C   UNL     1     -37.734  20.926   0.732  0.00  0.00    +0.148 C 
ATOM      4  C   UNL     1     -37.480  22.036   1.538  0.00  0.00    +0.168 C 
ATOM      5  C   UNL     1     -36.247  22.163   2.173  0.00  0.00    +0.121 C 
ATOM      6  C   UNL     1     -36.756  19.948   0.563  0.00  0.00    +0.033 C 
ATOM      7  C   UNL     1     -35.267  21.186   2.008  0.00  0.00    +0.032 C 
ATOM      8  C   UNL     1     -35.523  20.077   1.201  0.00  0.00    +0.061 C 
BRANCH   3   9
ATOM      9  S   UNL     1     -39.274  20.738  -0.080  0.00  0.00    +0.045 S 
ATOM     10  O   UNL     1     -40.398  20.926   1.091  0.00  0.00    -0.065 OA
ATOM     11  O   UNL     1     -39.430  21.851  -1.003  0.00  0.00    -0.065 OA
ATOM     12  O   UNL     1     -39.335  19.365  -0.551  0.00  0.00    -0.065 OA
ENDBRANCH   3   9
BRANCH   4  13
ATOM     13  O   UNL     1     -38.434  22.997   1.706  0.00  0.00    -0.503 OA
ATOM     14  H   UNL     1     -38.786  23.162   2.558  0.00  0.00    +0.292 HD
ENDBRANCH   4  13
ENDBRANCH   1   5
BRANCH   1  15
ATOM     15  N   UNL     1     -36.778  23.299   3.945  0.00  0.00    -0.094 NA
BRANCH  15  21
ATOM     16  O   UNL     1     -38.153  25.632   3.158  0.00  0.00    -0.273 OA
ATOM     17  O   UNL     1     -34.878  23.661   6.004  0.00  0.00    -0.273 OA
ATOM     18  O   UNL     1     -34.147  27.718   3.983  0.00  0.00    -0.252 OA
ATOM     19  N   UNL     1     -36.154  26.668   3.600  0.00  0.00    -0.238 N 
ATOM     20  N   UNL     1     -34.541  25.697   5.000  0.00  0.00    -0.238 N 
ATOM     21  C   UNL     1     -36.677  24.550   4.699  0.00  0.00    +0.247 C 
ATOM     22  C   UNL     1     -37.075  25.648   3.752  0.00  0.00    +0.256 C 
ATOM     23  C   UNL     1     -35.298  24.577   5.296  0.00  0.00    +0.256 C 
ATOM     24  C   UNL     1     -34.897  26.762   4.184  0.00  0.00    +0.312 C 
ATOM     25  H   UNL     1     -36.419  27.411   3.012  0.00  0.00    +0.159 HD
ATOM     26  H   UNL     1     -33.649  25.744   5.416  0.00  0.00    +0.159 HD
ENDBRANCH  15  21
ENDBRANCH   1  15
TORSDOF 5
ENDMDL
