MODEL 1
REMARK VINA RESULT:      -5.9      0.000      0.000
REMARK  Name = 6024
REMARK  8 active torsions:
REMARK  status: ('A' for Active; 'I' for Inactive)
REMARK    1  A    between atoms: CA_5  and  N_11
REMARK    2  A    between atoms: CA_7  and  C_21
REMARK    3  A    between atoms: C_8  and  C_24
REMARK    4  A    between atoms: C_12  and  C_14
REMARK    5  A    between atoms: C_14  and  C_16
REMARK    6  A    between atoms: C_21  and  O_22
REMARK    7  A    between atoms: C_24  and  O_25
REMARK    8  A    between atoms: O_25  and  C_27
REMARK                            x       y       z     vdW  Elec       q    Type
REMARK                         _______ _______ _______ _____ _____    ______ ____
ROOT
ATOM      1  S   UNL     1     -35.617  22.222   3.520  0.00  0.00    -0.114 S 
ATOM      2  O   UNL     1     -38.501  24.183   0.447  0.00  0.00    -0.273 OA
ATOM      3  N   UNL     1     -37.533  23.790   2.560  0.00  0.00    -0.242 N 
ATOM      4  C   UNL     1     -37.333  22.417   2.989  0.00  0.00    +0.155 C 
ATOM      5  CA  UNL     1     -37.650  22.017   1.530  0.00  0.00    +0.178 C 
ATOM      6  C   UNL     1     -38.034  23.512   1.337  0.00  0.00    +0.251 C 
ATOM      7  CA  UNL     1     -37.233  24.870   3.325  0.00  0.00    +0.127 C 
ATOM      8  C   UNL     1     -36.454  24.761   4.429  0.00  0.00    +0.030 C 
ATOM      9  C   UNL     1     -35.771  23.462   4.851  0.00  0.00    +0.086 C 
ENDROOT
BRANCH   5  11
ATOM     10  O   UNL     1     -37.403  19.478   0.179  0.00  0.00    -0.275 OA
ATOM     11  N   UNL     1     -36.552  21.580   0.670  0.00  0.00    -0.296 N 
ATOM     12  C   UNL     1     -36.523  20.328   0.059  0.00  0.00    +0.228 C 
ATOM     13  H   UNL     1     -35.800  22.197   0.514  0.00  0.00    +0.150 HD
BRANCH  12  14
ATOM     14  C   UNL     1     -35.296  20.099  -0.800  0.00  0.00    +0.118 C 
BRANCH  14  16
ATOM     15  S   UNL     1     -33.980  17.675  -0.718  0.00  0.00    -0.090 S 
ATOM     16  C   UNL     1     -34.341  19.201  -0.063  0.00  0.00    +0.016 C 
ATOM     17  C   UNL     1     -33.697  19.455   1.112  0.00  0.00    +0.003 C 
ATOM     18  C   UNL     1     -32.872  18.359   1.496  0.00  0.00    +0.007 C 
ATOM     19  C   UNL     1     -32.933  17.323   0.590  0.00  0.00    +0.035 C 
ENDBRANCH  14  16
ENDBRANCH  12  14
ENDBRANCH   5  11
BRANCH   7  21
ATOM     20  OXT UNL     1     -37.138  26.909   2.108  0.00  0.00    -0.244 OA
ATOM     21  C   UNL     1     -37.737  26.173   2.868  0.00  0.00    +0.352 C 
BRANCH  21  22
ATOM     22  O   UNL     1     -38.944  26.405   3.419  0.00  0.00    -0.476 OA
ATOM     23  H   UNL     1     -39.274  27.280   3.470  0.00  0.00    +0.295 HD
ENDBRANCH  21  22
ENDBRANCH   7  21
BRANCH   8  24
ATOM     24  C   UNL     1     -36.143  25.897   5.374  0.00  0.00    +0.233 C 
BRANCH  24  25
ATOM     25  O   UNL     1     -35.170  26.739   4.791  0.00  0.00    -0.444 OA
BRANCH  25  27
ATOM     26  O   UNL     1     -33.117  25.945   4.091  0.00  0.00    -0.250 OA
ATOM     27  C   UNL     1     -33.863  26.364   4.966  0.00  0.00    +0.318 C 
ATOM     28  C   UNL     1     -33.461  26.540   6.399  0.00  0.00    +0.121 C 
ENDBRANCH  25  27
ENDBRANCH  24  25
ENDBRANCH   8  24
TORSDOF 8
ENDMDL
MODEL 2
REMARK VINA RESULT:      -5.7      2.840      7.619
REMARK  Name = 6024
REMARK  8 active torsions:
REMARK  status: ('A' for Active; 'I' for Inactive)
REMARK    1  A    between atoms: CA_5  and  N_11
REMARK    2  A    between atoms: CA_7  and  C_21
REMARK    3  A    between atoms: C_8  and  C_24
REMARK    4  A    between atoms: C_12  and  C_14
REMARK    5  A    between atoms: C_14  and  C_16
REMARK    6  A    between atoms: C_21  and  O_22
REMARK    7  A    between atoms: C_24  and  O_25
REMARK    8  A    between atoms: O_25  and  C_27
REMARK                            x       y       z     vdW  Elec       q    Type
REMARK                         _______ _______ _______ _____ _____    ______ ____
ROOT
ATOM      1  S   UNL     1     -35.896  24.799   2.319  0.00  0.00    -0.114 S 
ATOM      2  O   UNL     1     -35.149  21.243   5.218  0.00  0.00    -0.273 OA
ATOM      3  N   UNL     1     -36.058  22.357   3.350  0.00  0.00    -0.242 N 
ATOM      4  C   UNL     1     -36.624  23.681   3.538  0.00  0.00    +0.155 C 
ATOM      5  CA  UNL     1     -35.960  23.661   4.933  0.00  0.00    +0.178 C 
ATOM      6  C   UNL     1     -35.642  22.171   4.621  0.00  0.00    +0.251 C 
ATOM      7  CA  UNL     1     -36.059  21.699   2.163  0.00  0.00    +0.127 C 
ATOM      8  C   UNL     1     -36.322  22.339   0.999  0.00  0.00    +0.030 C 
ATOM      9  C   UNL     1     -36.539  23.847   0.899  0.00  0.00    +0.086 C 
ENDROOT
BRANCH   5  11
ATOM     10  O   UNL     1     -35.876  26.408   5.817  0.00  0.00    -0.275 OA
ATOM     11  N   UNL     1     -34.769  24.479   5.154  0.00  0.00    -0.296 N 
ATOM     12  C   UNL     1     -34.831  25.803   5.583  0.00  0.00    +0.228 C 
ATOM     13  H   UNL     1     -33.884  24.078   4.992  0.00  0.00    +0.150 HD
BRANCH  12  14
ATOM     14  C   UNL     1     -33.472  26.450   5.759  0.00  0.00    +0.118 C 
BRANCH  14  16
ATOM     15  S   UNL     1     -32.012  28.583   4.794  0.00  0.00    -0.090 S 
ATOM     16  C   UNL     1     -33.238  27.416   4.632  0.00  0.00    +0.016 C 
ATOM     17  C   UNL     1     -33.905  27.490   3.445  0.00  0.00    +0.003 C 
ATOM     18  C   UNL     1     -33.395  28.541   2.630  0.00  0.00    +0.007 C 
ATOM     19  C   UNL     1     -32.363  29.217   3.243  0.00  0.00    +0.035 C 
ENDBRANCH  14  16
ENDBRANCH  12  14
ENDBRANCH   5  11
BRANCH   7  21
ATOM     20  OXT UNL     1     -34.574  19.850   2.004  0.00  0.00    -0.244 OA
ATOM     21  C   UNL     1     -35.697  20.274   2.190  0.00  0.00    +0.352 C 
BRANCH  21  22
ATOM     22  O   UNL     1     -36.795  19.538   2.450  0.00  0.00    -0.476 OA
ATOM     23  H   UNL     1     -37.646  19.921   2.364  0.00  0.00    +0.295 HD
ENDBRANCH  21  22
ENDBRANCH   7  21
BRANCH   8  24
ATOM     24  C   UNL     1     -36.422  21.664  -0.348  0.00  0.00    +0.233 C 
BRANCH  24  25
ATOM     25  O   UNL     1     -37.768  21.667  -0.775  0.00  0.00    -0.444 OA
BRANCH  25  27
ATOM     26  O   UNL     1     -38.303  19.498  -0.186  0.00  0.00    -0.250 OA
ATOM     27  C   UNL     1     -38.573  20.690  -0.246  0.00  0.00    +0.318 C 
ATOM     28  C   UNL     1     -39.850  21.288   0.259  0.00  0.00    +0.121 C 
ENDBRANCH  25  27
ENDBRANCH  24  25
ENDBRANCH   8  24
TORSDOF 8
ENDMDL
MODEL 3
REMARK VINA RESULT:      -5.6      2.401      3.485
REMARK  Name = 6024
REMARK  8 active torsions:
REMARK  status: ('A' for Active; 'I' for Inactive)
REMARK    1  A    between atoms: CA_5  and  N_11
REMARK    2  A    between atoms: CA_7  and  C_21
REMARK    3  A    between atoms: C_8  and  C_24
REMARK    4  A    between atoms: C_12  and  C_14
REMARK    5  A    between atoms: C_14  and  C_16
REMARK    6  A    between atoms: C_21  and  O_22
REMARK    7  A    between atoms: C_24  and  O_25
REMARK    8  A    between atoms: O_25  and  C_27
REMARK                            x       y       z     vdW  Elec       q    Type
REMARK                         _______ _______ _______ _____ _____    ______ ____
ROOT
ATOM      1  S   UNL     1     -35.299  23.934   4.223  0.00  0.00    -0.114 S 
ATOM      2  O   UNL     1     -37.960  26.837   1.753  0.00  0.00    -0.273 OA
ATOM      3  N   UNL     1     -36.347  26.214   3.355  0.00  0.00    -0.242 N 
ATOM      4  C   UNL     1     -36.655  25.127   4.266  0.00  0.00    +0.155 C 
ATOM      5  CA  UNL     1     -37.862  24.828   3.349  0.00  0.00    +0.178 C 
ATOM      6  C   UNL     1     -37.489  26.160   2.638  0.00  0.00    +0.251 C 
ATOM      7  CA  UNL     1     -35.193  26.929   3.397  0.00  0.00    +0.127 C 
ATOM      8  C   UNL     1     -34.118  26.497   4.099  0.00  0.00    +0.030 C 
ATOM      9  C   UNL     1     -34.066  25.147   4.810  0.00  0.00    +0.086 C 
ENDROOT
BRANCH   5  11
ATOM     10  O   UNL     1     -40.051  23.105   2.593  0.00  0.00    -0.275 OA
ATOM     11  N   UNL     1     -37.801  23.661   2.471  0.00  0.00    -0.296 N 
ATOM     12  C   UNL     1     -38.919  22.888   2.164  0.00  0.00    +0.228 C 
ATOM     13  H   UNL     1     -36.933  23.410   2.078  0.00  0.00    +0.150 HD
BRANCH  12  14
ATOM     14  C   UNL     1     -38.623  21.738   1.222  0.00  0.00    +0.118 C 
BRANCH  14  16
ATOM     15  S   UNL     1     -36.078  21.814   0.158  0.00  0.00    -0.090 S 
ATOM     16  C   UNL     1     -37.179  21.344   1.366  0.00  0.00    +0.016 C 
ATOM     17  C   UNL     1     -36.607  20.630   2.376  0.00  0.00    +0.003 C 
ATOM     18  C   UNL     1     -35.209  20.457   2.159  0.00  0.00    +0.007 C 
ATOM     19  C   UNL     1     -34.790  21.051   0.989  0.00  0.00    +0.035 C 
ENDBRANCH  14  16
ENDBRANCH  12  14
ENDBRANCH   5  11
BRANCH   7  21
ATOM     20  OXT UNL     1     -34.935  28.187   1.397  0.00  0.00    -0.244 OA
ATOM     21  C   UNL     1     -35.142  28.160   2.594  0.00  0.00    +0.352 C 
BRANCH  21  22
ATOM     22  O   UNL     1     -35.358  29.224   3.392  0.00  0.00    -0.476 OA
ATOM     23  H   UNL     1     -34.969  29.256   4.243  0.00  0.00    +0.295 HD
ENDBRANCH  21  22
ENDBRANCH   7  21
BRANCH   8  24
ATOM     24  C   UNL     1     -32.832  27.271   4.261  0.00  0.00    +0.233 C 
BRANCH  24  25
ATOM     25  O   UNL     1     -32.960  28.172   5.341  0.00  0.00    -0.444 OA
BRANCH  25  27
ATOM     26  O   UNL     1     -30.891  27.719   6.263  0.00  0.00    -0.250 OA
ATOM     27  C   UNL     1     -31.802  28.494   6.001  0.00  0.00    +0.318 C 
ATOM     28  C   UNL     1     -31.800  29.947   6.366  0.00  0.00    +0.121 C 
ENDBRANCH  25  27
ENDBRANCH  24  25
ENDBRANCH   8  24
TORSDOF 8
ENDMDL
MODEL 4
REMARK VINA RESULT:      -5.6      4.544      7.551
REMARK  Name = 6024
REMARK  8 active torsions:
REMARK  status: ('A' for Active; 'I' for Inactive)
REMARK    1  A    between atoms: CA_5  and  N_11
REMARK    2  A    between atoms: CA_7  and  C_21
REMARK    3  A    between atoms: C_8  and  C_24
REMARK    4  A    between atoms: C_12  and  C_14
REMARK    5  A    between atoms: C_14  and  C_16
REMARK    6  A    between atoms: C_21  and  O_22
REMARK    7  A    between atoms: C_24  and  O_25
REMARK    8  A    between atoms: O_25  and  C_27
REMARK                            x       y       z     vdW  Elec       q    Type
REMARK                         _______ _______ _______ _____ _____    ______ ____
ROOT
ATOM      1  S   UNL     1     -36.689  27.383   1.135  0.00  0.00    -0.114 S 
ATOM      2  O   UNL     1     -34.675  30.669   3.733  0.00  0.00    -0.273 OA
ATOM      3  N   UNL     1     -35.601  29.715   1.787  0.00  0.00    -0.242 N 
ATOM      4  C   UNL     1     -35.202  28.370   1.414  0.00  0.00    +0.155 C 
ATOM      5  CA  UNL     1     -34.567  28.273   2.819  0.00  0.00    +0.178 C 
ATOM      6  C   UNL     1     -34.887  29.791   2.930  0.00  0.00    +0.251 C 
ATOM      7  CA  UNL     1     -36.449  30.481   1.054  0.00  0.00    +0.127 C 
ATOM      8  C   UNL     1     -37.218  29.946   0.074  0.00  0.00    +0.030 C 
ATOM      9  C   UNL     1     -37.277  28.450  -0.224  0.00  0.00    +0.086 C 
ENDROOT
BRANCH   5  11
ATOM     10  O   UNL     1     -33.371  26.229   4.470  0.00  0.00    -0.275 OA
ATOM     11  N   UNL     1     -35.233  27.459   3.834  0.00  0.00    -0.296 N 
ATOM     12  C   UNL     1     -34.568  26.492   4.584  0.00  0.00    +0.228 C 
ATOM     13  H   UNL     1     -36.195  27.600   3.995  0.00  0.00    +0.150 HD
BRANCH  12  14
ATOM     14  C   UNL     1     -35.454  25.783   5.587  0.00  0.00    +0.118 C 
BRANCH  14  16
ATOM     15  S   UNL     1     -36.089  23.859   3.714  0.00  0.00    -0.090 S 
ATOM     16  C   UNL     1     -35.511  24.320   5.245  0.00  0.00    +0.016 C 
ATOM     17  C   UNL     1     -35.149  23.266   6.029  0.00  0.00    +0.003 C 
ATOM     18  C   UNL     1     -35.348  22.027   5.354  0.00  0.00    +0.007 C 
ATOM     19  C   UNL     1     -35.856  22.204   4.086  0.00  0.00    +0.035 C 
ENDBRANCH  14  16
ENDBRANCH  12  14
ENDBRANCH   5  11
BRANCH   7  21
ATOM     20  OXT UNL     1     -35.746  32.751   1.067  0.00  0.00    -0.244 OA
ATOM     21  C   UNL     1     -36.545  31.903   1.413  0.00  0.00    +0.352 C 
BRANCH  21  22
ATOM     22  O   UNL     1     -37.640  32.101   2.172  0.00  0.00    -0.476 OA
ATOM     23  H   UNL     1     -38.323  32.665   1.869  0.00  0.00    +0.295 HD
ENDBRANCH  21  22
ENDBRANCH   7  21
BRANCH   8  24
ATOM     24  C   UNL     1     -38.122  30.741  -0.836  0.00  0.00    +0.233 C 
BRANCH  24  25
ATOM     25  O   UNL     1     -39.455  30.303  -0.670  0.00  0.00    -0.444 OA
BRANCH  25  27
ATOM     26  O   UNL     1     -40.165  31.678   1.045  0.00  0.00    -0.250 OA
ATOM     27  C   UNL     1     -40.312  31.188  -0.067  0.00  0.00    +0.318 C 
ATOM     28  C   UNL     1     -41.472  31.482  -0.969  0.00  0.00    +0.121 C 
ENDBRANCH  25  27
ENDBRANCH  24  25
ENDBRANCH   8  24
TORSDOF 8
ENDMDL
MODEL 5
REMARK VINA RESULT:      -5.6      4.204      7.953
REMARK  Name = 6024
REMARK  8 active torsions:
REMARK  status: ('A' for Active; 'I' for Inactive)
REMARK    1  A    between atoms: CA_5  and  N_11
REMARK    2  A    between atoms: CA_7  and  C_21
REMARK    3  A    between atoms: C_8  and  C_24
REMARK    4  A    between atoms: C_12  and  C_14
REMARK    5  A    between atoms: C_14  and  C_16
REMARK    6  A    between atoms: C_21  and  O_22
REMARK    7  A    between atoms: C_24  and  O_25
REMARK    8  A    between atoms: O_25  and  C_27
REMARK                            x       y       z     vdW  Elec       q    Type
REMARK                         _______ _______ _______ _____ _____    ______ ____
ROOT
ATOM      1  S   UNL     1     -33.654  26.324   3.773  0.00  0.00    -0.114 S 
ATOM      2  O   UNL     1     -36.833  28.864   1.525  0.00  0.00    -0.273 OA
ATOM      3  N   UNL     1     -35.701  26.904   2.184  0.00  0.00    -0.242 N 
ATOM      4  C   UNL     1     -34.249  26.901   2.168  0.00  0.00    +0.155 C 
ATOM      5  CA  UNL     1     -34.344  28.432   1.980  0.00  0.00    +0.178 C 
ATOM      6  C   UNL     1     -35.870  28.188   1.801  0.00  0.00    +0.251 C 
ATOM      7  CA  UNL     1     -36.454  25.825   2.517  0.00  0.00    +0.127 C 
ATOM      8  C   UNL     1     -35.913  24.751   3.141  0.00  0.00    +0.030 C 
ATOM      9  C   UNL     1     -34.461  24.694   3.611  0.00  0.00    +0.086 C 
ENDROOT
BRANCH   5  11
ATOM     10  O   UNL     1     -32.164  30.316   2.159  0.00  0.00    -0.275 OA
ATOM     11  N   UNL     1     -34.019  29.297   3.112  0.00  0.00    -0.296 N 
ATOM     12  C   UNL     1     -32.940  30.178   3.104  0.00  0.00    +0.228 C 
ATOM     13  H   UNL     1     -34.587  29.256   3.916  0.00  0.00    +0.150 HD
BRANCH  12  14
ATOM     14  C   UNL     1     -32.805  30.986   4.379  0.00  0.00    +0.118 C 
BRANCH  14  16
ATOM     15  S   UNL     1     -30.096  31.036   4.906  0.00  0.00    -0.090 S 
ATOM     16  C   UNL     1     -31.663  30.438   5.189  0.00  0.00    +0.016 C 
ATOM     17  C   UNL     1     -31.713  29.484   6.161  0.00  0.00    +0.003 C 
ATOM     18  C   UNL     1     -30.420  29.228   6.702  0.00  0.00    +0.007 C 
ATOM     19  C   UNL     1     -29.448  30.004   6.108  0.00  0.00    +0.035 C 
ENDBRANCH  14  16
ENDBRANCH  12  14
ENDBRANCH   5  11
BRANCH   7  21
ATOM     20  OXT UNL     1     -38.398  25.567   1.174  0.00  0.00    -0.244 OA
ATOM     21  C   UNL     1     -37.893  25.900   2.229  0.00  0.00    +0.352 C 
BRANCH  21  22
ATOM     22  O   UNL     1     -38.540  26.390   3.304  0.00  0.00    -0.476 OA
ATOM     23  H   UNL     1     -39.111  27.126   3.211  0.00  0.00    +0.295 HD
ENDBRANCH  21  22
ENDBRANCH   7  21
BRANCH   8  24
ATOM     24  C   UNL     1     -36.664  23.483   3.471  0.00  0.00    +0.233 C 
BRANCH  24  25
ATOM     25  O   UNL     1     -36.380  23.103   4.802  0.00  0.00    -0.444 OA
BRANCH  25  27
ATOM     26  O   UNL     1     -35.422  21.120   4.104  0.00  0.00    -0.250 OA
ATOM     27  C   UNL     1     -35.617  21.974   4.959  0.00  0.00    +0.318 C 
ATOM     28  C   UNL     1     -35.043  21.925   6.342  0.00  0.00    +0.121 C 
ENDBRANCH  25  27
ENDBRANCH  24  25
ENDBRANCH   8  24
TORSDOF 8
ENDMDL
MODEL 6
REMARK VINA RESULT:      -5.5      2.497      3.150
REMARK  Name = 6024
REMARK  8 active torsions:
REMARK  status: ('A' for Active; 'I' for Inactive)
REMARK    1  A    between atoms: CA_5  and  N_11
REMARK    2  A    between atoms: CA_7  and  C_21
REMARK    3  A    between atoms: C_8  and  C_24
REMARK    4  A    between atoms: C_12  and  C_14
REMARK    5  A    between atoms: C_14  and  C_16
REMARK    6  A    between atoms: C_21  and  O_22
REMARK    7  A    between atoms: C_24  and  O_25
REMARK    8  A    between atoms: O_25  and  C_27
REMARK                            x       y       z     vdW  Elec       q    Type
REMARK                         _______ _______ _______ _____ _____    ______ ____
ROOT
ATOM      1  S   UNL     1     -34.754  24.335   1.764  0.00  0.00    -0.114 S 
ATOM      2  O   UNL     1     -39.102  23.165   2.918  0.00  0.00    -0.273 OA
ATOM      3  N   UNL     1     -37.230  24.580   2.691  0.00  0.00    -0.242 N 
ATOM      4  C   UNL     1     -35.931  24.087   3.111  0.00  0.00    +0.155 C 
ATOM      5  CA  UNL     1     -36.594  22.693   3.196  0.00  0.00    +0.178 C 
ATOM      6  C   UNL     1     -37.929  23.454   2.952  0.00  0.00    +0.251 C 
ATOM      7  CA  UNL     1     -37.442  25.832   2.210  0.00  0.00    +0.127 C 
ATOM      8  C   UNL     1     -36.415  26.619   1.811  0.00  0.00    +0.030 C 
ATOM      9  C   UNL     1     -34.963  26.149   1.768  0.00  0.00    +0.086 C 
ENDROOT
BRANCH   5  11
ATOM     10  O   UNL     1     -34.986  20.313   3.483  0.00  0.00    -0.275 OA
ATOM     11  N   UNL     1     -36.286  21.708   2.161  0.00  0.00    -0.296 N 
ATOM     12  C   UNL     1     -35.496  20.585   2.398  0.00  0.00    +0.228 C 
ATOM     13  H   UNL     1     -36.654  21.843   1.256  0.00  0.00    +0.150 HD
BRANCH  12  14
ATOM     14  C   UNL     1     -35.325  19.695   1.184  0.00  0.00    +0.118 C 
BRANCH  14  16
ATOM     15  S   UNL     1     -32.968  20.662   0.123  0.00  0.00    -0.090 S 
ATOM     16  C   UNL     1     -33.858  19.469   0.944  0.00  0.00    +0.016 C 
ATOM     17  C   UNL     1     -33.111  18.389   1.311  0.00  0.00    +0.003 C 
ATOM     18  C   UNL     1     -31.752  18.539   0.907  0.00  0.00    +0.007 C 
ATOM     19  C   UNL     1     -31.537  19.731   0.249  0.00  0.00    +0.035 C 
ENDBRANCH  14  16
ENDBRANCH  12  14
ENDBRANCH   5  11
BRANCH   7  21
ATOM     20  OXT UNL     1     -39.447  26.320   1.030  0.00  0.00    -0.244 OA
ATOM     21  C   UNL     1     -38.840  26.269   2.082  0.00  0.00    +0.352 C 
BRANCH  21  22
ATOM     22  O   UNL     1     -39.320  26.596   3.298  0.00  0.00    -0.476 OA
ATOM     23  H   UNL     1     -40.053  27.174   3.370  0.00  0.00    +0.295 HD
ENDBRANCH  21  22
ENDBRANCH   7  21
BRANCH   8  24
ATOM     24  C   UNL     1     -36.561  28.047   1.343  0.00  0.00    +0.233 C 
BRANCH  24  25
ATOM     25  O   UNL     1     -35.647  28.865   2.043  0.00  0.00    -0.444 OA
BRANCH  25  27
ATOM     26  O   UNL     1     -36.847  30.755   1.474  0.00  0.00    -0.250 OA
ATOM     27  C   UNL     1     -35.946  30.203   2.091  0.00  0.00    +0.318 C 
ATOM     28  C   UNL     1     -35.007  30.911   3.019  0.00  0.00    +0.121 C 
ENDBRANCH  25  27
ENDBRANCH  24  25
ENDBRANCH   8  24
TORSDOF 8
ENDMDL
MODEL 7
REMARK VINA RESULT:      -5.5      3.402      5.227
REMARK  Name = 6024
REMARK  8 active torsions:
REMARK  status: ('A' for Active; 'I' for Inactive)
REMARK    1  A    between atoms: CA_5  and  N_11
REMARK    2  A    between atoms: CA_7  and  C_21
REMARK    3  A    between atoms: C_8  and  C_24
REMARK    4  A    between atoms: C_12  and  C_14
REMARK    5  A    between atoms: C_14  and  C_16
REMARK    6  A    between atoms: C_21  and  O_22
REMARK    7  A    between atoms: C_24  and  O_25
REMARK    8  A    between atoms: O_25  and  C_27
REMARK                            x       y       z     vdW  Elec       q    Type
REMARK                         _______ _______ _______ _____ _____    ______ ____
ROOT
ATOM      1  S   UNL     1     -35.912  24.611   1.401  0.00  0.00    -0.114 S 
ATOM      2  O   UNL     1     -35.938  23.103   5.798  0.00  0.00    -0.273 OA
ATOM      3  N   UNL     1     -35.110  24.236   3.904  0.00  0.00    -0.242 N 
ATOM      4  C   UNL     1     -35.114  23.550   2.625  0.00  0.00    +0.155 C 
ATOM      5  CA  UNL     1     -36.011  22.491   3.306  0.00  0.00    +0.178 C 
ATOM      6  C   UNL     1     -35.696  23.255   4.623  0.00  0.00    +0.251 C 
ATOM      7  CA  UNL     1     -34.614  25.487   4.087  0.00  0.00    +0.127 C 
ATOM      8  C   UNL     1     -34.354  26.305   3.038  0.00  0.00    +0.030 C 
ATOM      9  C   UNL     1     -34.679  25.945   1.590  0.00  0.00    +0.086 C 
ENDROOT
BRANCH   5  11
ATOM     10  O   UNL     1     -37.334  20.695   1.473  0.00  0.00    -0.275 OA
ATOM     11  N   UNL     1     -37.434  22.463   2.974  0.00  0.00    -0.296 N 
ATOM     12  C   UNL     1     -37.982  21.553   2.072  0.00  0.00    +0.228 C 
ATOM     13  H   UNL     1     -38.034  23.114   3.406  0.00  0.00    +0.150 HD
BRANCH  12  14
ATOM     14  C   UNL     1     -39.479  21.697   1.895  0.00  0.00    +0.118 C 
BRANCH  14  16
ATOM     15  S   UNL     1     -39.251  23.369  -0.289  0.00  0.00    -0.090 S 
ATOM     16  C   UNL     1     -39.775  23.044   1.295  0.00  0.00    +0.016 C 
ATOM     17  C   UNL     1     -40.435  24.087   1.875  0.00  0.00    +0.003 C 
ATOM     18  C   UNL     1     -40.519  25.201   0.990  0.00  0.00    +0.007 C 
ATOM     19  C   UNL     1     -39.914  24.946  -0.222  0.00  0.00    +0.035 C 
ENDBRANCH  14  16
ENDBRANCH  12  14
ENDBRANCH   5  11
BRANCH   7  21
ATOM     20  OXT UNL     1     -33.360  26.010   6.036  0.00  0.00    -0.244 OA
ATOM     21  C   UNL     1     -34.435  25.938   5.474  0.00  0.00    +0.352 C 
BRANCH  21  22
ATOM     22  O   UNL     1     -35.635  26.250   6.002  0.00  0.00    -0.476 OA
ATOM     23  H   UNL     1     -36.186  26.874   5.574  0.00  0.00    +0.295 HD
ENDBRANCH  21  22
ENDBRANCH   7  21
BRANCH   8  24
ATOM     24  C   UNL     1     -33.728  27.674   3.153  0.00  0.00    +0.233 C 
BRANCH  24  25
ATOM     25  O   UNL     1     -34.742  28.636   3.363  0.00  0.00    -0.444 OA
BRANCH  25  27
ATOM     26  O   UNL     1     -34.627  29.452   1.205  0.00  0.00    -0.250 OA
ATOM     27  C   UNL     1     -34.871  29.598   2.395  0.00  0.00    +0.318 C 
ATOM     28  C   UNL     1     -35.363  30.878   3.000  0.00  0.00    +0.121 C 
ENDBRANCH  25  27
ENDBRANCH  24  25
ENDBRANCH   8  24
TORSDOF 8
ENDMDL
MODEL 8
REMARK VINA RESULT:      -5.5      3.979      8.035
REMARK  Name = 6024
REMARK  8 active torsions:
REMARK  status: ('A' for Active; 'I' for Inactive)
REMARK    1  A    between atoms: CA_5  and  N_11
REMARK    2  A    between atoms: CA_7  and  C_21
REMARK    3  A    between atoms: C_8  and  C_24
REMARK    4  A    between atoms: C_12  and  C_14
REMARK    5  A    between atoms: C_14  and  C_16
REMARK    6  A    between atoms: C_21  and  O_22
REMARK    7  A    between atoms: C_24  and  O_25
REMARK    8  A    between atoms: O_25  and  C_27
REMARK                            x       y       z     vdW  Elec       q    Type
REMARK                         _______ _______ _______ _____ _____    ______ ____
ROOT
ATOM      1  S   UNL     1     -33.057  25.659   2.246  0.00  0.00    -0.114 S 
ATOM      2  O   UNL     1     -36.268  26.045   5.585  0.00  0.00    -0.273 OA
ATOM      3  N   UNL     1     -35.412  25.485   3.462  0.00  0.00    -0.242 N 
ATOM      4  C   UNL     1     -34.592  26.458   2.763  0.00  0.00    +0.155 C 
ATOM      5  CA  UNL     1     -34.546  27.234   4.099  0.00  0.00    +0.178 C 
ATOM      6  C   UNL     1     -35.604  26.205   4.587  0.00  0.00    +0.251 C 
ATOM      7  CA  UNL     1     -35.753  24.277   2.945  0.00  0.00    +0.127 C 
ATOM      8  C   UNL     1     -35.118  23.765   1.863  0.00  0.00    +0.030 C 
ATOM      9  C   UNL     1     -33.918  24.436   1.198  0.00  0.00    +0.086 C 
ENDROOT
BRANCH   5  11
ATOM     10  O   UNL     1     -32.883  29.494   4.778  0.00  0.00    -0.275 OA
ATOM     11  N   UNL     1     -33.309  27.215   4.877  0.00  0.00    -0.296 N 
ATOM     12  C   UNL     1     -32.572  28.365   5.154  0.00  0.00    +0.228 C 
ATOM     13  H   UNL     1     -32.982  26.352   5.222  0.00  0.00    +0.150 HD
BRANCH  12  14
ATOM     14  C   UNL     1     -31.335  28.108   5.990  0.00  0.00    +0.118 C 
BRANCH  14  16
ATOM     15  S   UNL     1     -29.235  29.897   5.929  0.00  0.00    -0.090 S 
ATOM     16  C   UNL     1     -30.129  28.619   5.252  0.00  0.00    +0.016 C 
ATOM     17  C   UNL     1     -29.633  28.179   4.061  0.00  0.00    +0.003 C 
ATOM     18  C   UNL     1     -28.472  28.914   3.682  0.00  0.00    +0.007 C 
ATOM     19  C   UNL     1     -28.145  29.879   4.608  0.00  0.00    +0.035 C 
ENDBRANCH  14  16
ENDBRANCH  12  14
ENDBRANCH   5  11
BRANCH   7  21
ATOM     20  OXT UNL     1     -37.989  23.650   3.449  0.00  0.00    -0.244 OA
ATOM     21  C   UNL     1     -36.798  23.520   3.650  0.00  0.00    +0.352 C 
BRANCH  21  22
ATOM     22  O   UNL     1     -36.223  22.680   4.533  0.00  0.00    -0.476 OA
ATOM     23  H   UNL     1     -35.586  23.002   5.138  0.00  0.00    +0.295 HD
ENDBRANCH  21  22
ENDBRANCH   7  21
BRANCH   8  24
ATOM     24  C   UNL     1     -35.492  22.471   1.181  0.00  0.00    +0.233 C 
BRANCH  24  25
ATOM     25  O   UNL     1     -34.435  21.545   1.323  0.00  0.00    -0.444 OA
BRANCH  25  27
ATOM     26  O   UNL     1     -35.541  20.269   2.899  0.00  0.00    -0.250 OA
ATOM     27  C   UNL     1     -34.734  20.383   1.986  0.00  0.00    +0.318 C 
ATOM     28  C   UNL     1     -33.925  19.248   1.434  0.00  0.00    +0.121 C 
ENDBRANCH  25  27
ENDBRANCH  24  25
ENDBRANCH   8  24
TORSDOF 8
ENDMDL
MODEL 9
REMARK VINA RESULT:      -5.4      3.395      5.005
REMARK  Name = 6024
REMARK  8 active torsions:
REMARK  status: ('A' for Active; 'I' for Inactive)
REMARK    1  A    between atoms: CA_5  and  N_11
REMARK    2  A    between atoms: CA_7  and  C_21
REMARK    3  A    between atoms: C_8  and  C_24
REMARK    4  A    between atoms: C_12  and  C_14
REMARK    5  A    between atoms: C_14  and  C_16
REMARK    6  A    between atoms: C_21  and  O_22
REMARK    7  A    between atoms: C_24  and  O_25
REMARK    8  A    between atoms: O_25  and  C_27
REMARK                            x       y       z     vdW  Elec       q    Type
REMARK                         _______ _______ _______ _____ _____    ______ ____
ROOT
ATOM      1  S   UNL     1     -35.913  24.541   1.405  0.00  0.00    -0.114 S 
ATOM      2  O   UNL     1     -36.054  23.047   5.804  0.00  0.00    -0.273 OA
ATOM      3  N   UNL     1     -35.193  24.202   3.938  0.00  0.00    -0.242 N 
ATOM      4  C   UNL     1     -35.126  23.512   2.663  0.00  0.00    +0.155 C 
ATOM      5  CA  UNL     1     -36.011  22.425   3.314  0.00  0.00    +0.178 C 
ATOM      6  C   UNL     1     -35.772  23.204   4.639  0.00  0.00    +0.251 C 
ATOM      7  CA  UNL     1     -34.749  25.470   4.133  0.00  0.00    +0.127 C 
ATOM      8  C   UNL     1     -34.476  26.293   3.092  0.00  0.00    +0.030 C 
ATOM      9  C   UNL     1     -34.734  25.917   1.634  0.00  0.00    +0.086 C 
ENDROOT
BRANCH   5  11
ATOM     10  O   UNL     1     -37.194  20.604   1.412  0.00  0.00    -0.275 OA
ATOM     11  N   UNL     1     -37.419  22.347   2.928  0.00  0.00    -0.296 N 
ATOM     12  C   UNL     1     -37.897  21.428   1.996  0.00  0.00    +0.228 C 
ATOM     13  H   UNL     1     -38.058  22.969   3.345  0.00  0.00    +0.150 HD
BRANCH  12  14
ATOM     14  C   UNL     1     -39.391  21.518   1.764  0.00  0.00    +0.118 C 
BRANCH  14  16
ATOM     15  S   UNL     1     -39.203  23.165  -0.442  0.00  0.00    -0.090 S 
ATOM     16  C   UNL     1     -39.714  22.851   1.149  0.00  0.00    +0.016 C 
ATOM     17  C   UNL     1     -40.389  23.890   1.718  0.00  0.00    +0.003 C 
ATOM     18  C   UNL     1     -40.497  24.990   0.820  0.00  0.00    +0.007 C 
ATOM     19  C   UNL     1     -39.894  24.730  -0.392  0.00  0.00    +0.035 C 
ENDBRANCH  14  16
ENDBRANCH  12  14
ENDBRANCH   5  11
BRANCH   7  21
ATOM     20  OXT UNL     1     -33.598  25.963   6.154  0.00  0.00    -0.244 OA
ATOM     21  C   UNL     1     -34.638  25.932   5.525  0.00  0.00    +0.352 C 
BRANCH  21  22
ATOM     22  O   UNL     1     -35.853  26.303   5.971  0.00  0.00    -0.476 OA
ATOM     23  H   UNL     1     -36.460  25.655   6.270  0.00  0.00    +0.295 HD
ENDBRANCH  21  22
ENDBRANCH   7  21
BRANCH   8  24
ATOM     24  C   UNL     1     -33.903  27.683   3.224  0.00  0.00    +0.233 C 
BRANCH  24  25
ATOM     25  O   UNL     1     -32.498  27.601   3.342  0.00  0.00    -0.444 OA
BRANCH  25  27
ATOM     26  O   UNL     1     -32.523  28.978   5.197  0.00  0.00    -0.250 OA
ATOM     27  C   UNL     1     -31.924  28.392   4.304  0.00  0.00    +0.318 C 
ATOM     28  C   UNL     1     -30.438  28.444   4.114  0.00  0.00    +0.121 C 
ENDBRANCH  25  27
ENDBRANCH  24  25
ENDBRANCH   8  24
TORSDOF 8
ENDMDL
