MODEL 1
REMARK VINA RESULT:      -6.5      0.000      0.000
REMARK  Name = 194170
REMARK  11 active torsions:
REMARK  status: ('A' for Active; 'I' for Inactive)
REMARK    1  A    between atoms: C_2  and  C_10
REMARK    2  A    between atoms: C_3  and  C_23
REMARK    3  A    between atoms: C_4  and  O_8
REMARK    4  A    between atoms: C_10  and  N_11
REMARK    5  A    between atoms: N_11  and  C_13
REMARK    6  A    between atoms: C_16  and  C_20
REMARK    7  A    between atoms: C_20  and  O_21
REMARK    8  A    between atoms: C_23  and  O_24
REMARK    9  A    between atoms: O_24  and  P_25
REMARK   10  A    between atoms: P_25  and  O_27
REMARK   11  A    between atoms: P_25  and  O_29
REMARK                            x       y       z     vdW  Elec       q    Type
REMARK                         _______ _______ _______ _____ _____    ______ ____
ROOT
ATOM      1  N   UNL     1     -34.863  27.203   0.905  0.00  0.00    -0.245 NA
ATOM      2  C   UNL     1     -35.771  26.488   3.441  0.00  0.00    +0.032 C 
ATOM      3  C   UNL     1     -34.410  26.605   3.204  0.00  0.00    +0.028 C 
ATOM      4  C   UNL     1     -36.681  26.724   2.424  0.00  0.00    +0.144 C 
ATOM      5  C   UNL     1     -36.180  27.077   1.182  0.00  0.00    +0.093 C 
ATOM      6  C   UNL     1     -34.009  26.963   1.926  0.00  0.00    +0.097 C 
ATOM      7  C   UNL     1     -37.112  27.343   0.045  0.00  0.00    +0.055 C 
ENDROOT
BRANCH   4   8
ATOM      8  O   UNL     1     -38.019  26.614   2.636  0.00  0.00    -0.505 OA
ATOM      9  H   UNL     1     -38.343  26.037   3.298  0.00  0.00    +0.292 HD
ENDBRANCH   4   8
BRANCH   2  10
ATOM     10  C   UNL     1     -36.263  26.102   4.808  0.00  0.00    +0.117 C 
BRANCH  10  11
ATOM     11  N   UNL     1     -36.948  24.847   4.759  0.00  0.00    -0.329 N 
ATOM     12  H   UNL     1     -37.930  24.849   4.699  0.00  0.00    +0.147 HD
BRANCH  11  13
ATOM     13  C   UNL     1     -36.276  23.608   4.795  0.00  0.00    +0.045 C 
ATOM     14  C   UNL     1     -36.310  22.764   3.684  0.00  0.00    +0.021 C 
ATOM     15  C   UNL     1     -35.580  23.224   5.940  0.00  0.00    +0.014 C 
ATOM     16  C   UNL     1     -35.647  21.537   3.720  0.00  0.00    +0.077 C 
ATOM     17  C   UNL     1     -34.916  21.998   5.976  0.00  0.00    +0.001 C 
ATOM     18  C   UNL     1     -34.950  21.154   4.865  0.00  0.00    +0.007 C 
BRANCH  16  20
ATOM     19  O   UNL     1     -34.878  20.676   1.624  0.00  0.00    -0.245 OA
ATOM     20  C   UNL     1     -35.682  20.658   2.562  0.00  0.00    +0.338 C 
BRANCH  20  21
ATOM     21  O   UNL     1     -36.720  19.779   2.608  0.00  0.00    -0.477 OA
ATOM     22  H   UNL     1     -37.006  19.434   3.430  0.00  0.00    +0.295 HD
ENDBRANCH  20  21
ENDBRANCH  16  20
ENDBRANCH  11  13
ENDBRANCH  10  11
ENDBRANCH   2  10
BRANCH   3  23
ATOM     23  C   UNL     1     -33.392  26.364   4.265  0.00  0.00    +0.181 C 
BRANCH  23  24
ATOM     24  O   UNL     1     -33.427  27.430   5.207  0.00  0.00    -0.268 OA
BRANCH  24  25
ATOM     25  P   UNL     1     -32.061  28.245   5.491  0.00  0.00    +0.473 P 
ATOM     26  O   UNL     1     -32.235  29.717   5.731  0.00  0.00    -0.227 OA
BRANCH  25  27
ATOM     27  O   UNL     1     -31.112  27.856   4.241  0.00  0.00    -0.303 OA
ATOM     28  H   UNL     1     -31.083  26.891   4.146  0.00  0.00    +0.222 HD
ENDBRANCH  25  27
BRANCH  25  29
ATOM     29  O   UNL     1     -31.407  27.426   6.723  0.00  0.00    -0.303 OA
ATOM     30  H   UNL     1     -31.969  27.521   7.509  0.00  0.00    +0.222 HD
ENDBRANCH  25  29
ENDBRANCH  24  25
ENDBRANCH  23  24
ENDBRANCH   3  23
TORSDOF 11
ENDMDL
MODEL 2
REMARK VINA RESULT:      -6.5      4.013      5.799
REMARK  Name = 194170
REMARK  11 active torsions:
REMARK  status: ('A' for Active; 'I' for Inactive)
REMARK    1  A    between atoms: C_2  and  C_10
REMARK    2  A    between atoms: C_3  and  C_23
REMARK    3  A    between atoms: C_4  and  O_8
REMARK    4  A    between atoms: C_10  and  N_11
REMARK    5  A    between atoms: N_11  and  C_13
REMARK    6  A    between atoms: C_16  and  C_20
REMARK    7  A    between atoms: C_20  and  O_21
REMARK    8  A    between atoms: C_23  and  O_24
REMARK    9  A    between atoms: O_24  and  P_25
REMARK   10  A    between atoms: P_25  and  O_27
REMARK   11  A    between atoms: P_25  and  O_29
REMARK                            x       y       z     vdW  Elec       q    Type
REMARK                         _______ _______ _______ _____ _____    ______ ____
ROOT
ATOM      1  N   UNL     1     -41.387  23.754   0.903  0.00  0.00    -0.245 NA
ATOM      2  C   UNL     1     -39.155  25.223   1.695  0.00  0.00    +0.032 C 
ATOM      3  C   UNL     1     -38.995  23.933   1.211  0.00  0.00    +0.028 C 
ATOM      4  C   UNL     1     -40.419  25.784   1.788  0.00  0.00    +0.144 C 
ATOM      5  C   UNL     1     -41.495  25.014   1.381  0.00  0.00    +0.093 C 
ATOM      6  C   UNL     1     -40.136  23.245   0.830  0.00  0.00    +0.097 C 
ATOM      7  C   UNL     1     -42.882  25.564   1.457  0.00  0.00    +0.055 C 
ENDROOT
BRANCH   4   8
ATOM      8  O   UNL     1     -40.596  27.046   2.260  0.00  0.00    -0.505 OA
ATOM      9  H   UNL     1     -39.859  27.612   2.374  0.00  0.00    +0.292 HD
ENDBRANCH   4   8
BRANCH   2  10
ATOM     10  C   UNL     1     -37.953  26.017   2.123  0.00  0.00    +0.117 C 
BRANCH  10  11
ATOM     11  N   UNL     1     -37.812  25.986   3.546  0.00  0.00    -0.329 N 
ATOM     12  H   UNL     1     -38.527  26.377   4.098  0.00  0.00    +0.147 HD
BRANCH  11  13
ATOM     13  C   UNL     1     -36.693  25.423   4.193  0.00  0.00    +0.045 C 
ATOM     14  C   UNL     1     -36.680  24.064   4.507  0.00  0.00    +0.021 C 
ATOM     15  C   UNL     1     -35.599  26.224   4.519  0.00  0.00    +0.014 C 
ATOM     16  C   UNL     1     -35.572  23.507   5.147  0.00  0.00    +0.077 C 
ATOM     17  C   UNL     1     -34.492  25.667   5.159  0.00  0.00    +0.001 C 
ATOM     18  C   UNL     1     -34.479  24.308   5.473  0.00  0.00    +0.007 C 
BRANCH  16  20
ATOM     19  O   UNL     1     -35.054  21.199   4.783  0.00  0.00    -0.245 OA
ATOM     20  C   UNL     1     -35.559  22.089   5.474  0.00  0.00    +0.338 C 
BRANCH  20  21
ATOM     21  O   UNL     1     -36.176  21.823   6.659  0.00  0.00    -0.477 OA
ATOM     22  H   UNL     1     -36.905  22.343   6.934  0.00  0.00    +0.295 HD
ENDBRANCH  20  21
ENDBRANCH  16  20
ENDBRANCH  11  13
ENDBRANCH  10  11
ENDBRANCH   2  10
BRANCH   3  23
ATOM     23  C   UNL     1     -37.659  23.287   1.091  0.00  0.00    +0.181 C 
BRANCH  23  24
ATOM     24  O   UNL     1     -37.644  22.085   1.852  0.00  0.00    -0.268 OA
BRANCH  24  25
ATOM     25  P   UNL     1     -36.530  20.969   1.499  0.00  0.00    +0.473 P 
ATOM     26  O   UNL     1     -36.563  20.461   0.086  0.00  0.00    -0.227 OA
BRANCH  25  27
ATOM     27  O   UNL     1     -36.735  19.844   2.642  0.00  0.00    -0.303 OA
ATOM     28  H   UNL     1     -37.001  20.271   3.471  0.00  0.00    +0.222 HD
ENDBRANCH  25  27
BRANCH  25  29
ATOM     29  O   UNL     1     -35.150  21.692   1.932  0.00  0.00    -0.303 OA
ATOM     30  H   UNL     1     -34.753  21.213   2.676  0.00  0.00    +0.222 HD
ENDBRANCH  25  29
ENDBRANCH  24  25
ENDBRANCH  23  24
ENDBRANCH   3  23
TORSDOF 11
ENDMDL
MODEL 3
REMARK VINA RESULT:      -6.2      3.652      5.557
REMARK  Name = 194170
REMARK  11 active torsions:
REMARK  status: ('A' for Active; 'I' for Inactive)
REMARK    1  A    between atoms: C_2  and  C_10
REMARK    2  A    between atoms: C_3  and  C_23
REMARK    3  A    between atoms: C_4  and  O_8
REMARK    4  A    between atoms: C_10  and  N_11
REMARK    5  A    between atoms: N_11  and  C_13
REMARK    6  A    between atoms: C_16  and  C_20
REMARK    7  A    between atoms: C_20  and  O_21
REMARK    8  A    between atoms: C_23  and  O_24
REMARK    9  A    between atoms: O_24  and  P_25
REMARK   10  A    between atoms: P_25  and  O_27
REMARK   11  A    between atoms: P_25  and  O_29
REMARK                            x       y       z     vdW  Elec       q    Type
REMARK                         _______ _______ _______ _____ _____    ______ ____
ROOT
ATOM      1  N   UNL     1     -38.405  26.299  -0.637  0.00  0.00    -0.245 NA
ATOM      2  C   UNL     1     -38.093  25.810   2.089  0.00  0.00    +0.032 C 
ATOM      3  C   UNL     1     -38.871  24.958   1.320  0.00  0.00    +0.028 C 
ATOM      4  C   UNL     1     -37.471  26.904   1.509  0.00  0.00    +0.144 C 
ATOM      5  C   UNL     1     -37.656  27.103   0.151  0.00  0.00    +0.093 C 
ATOM      6  C   UNL     1     -38.994  25.245  -0.031  0.00  0.00    +0.097 C 
ATOM      7  C   UNL     1     -37.011  28.266  -0.531  0.00  0.00    +0.055 C 
ENDROOT
BRANCH   4   8
ATOM      8  O   UNL     1     -36.704  27.751   2.246  0.00  0.00    -0.505 OA
ATOM      9  H   UNL     1     -36.062  28.287   1.825  0.00  0.00    +0.292 HD
ENDBRANCH   4   8
BRANCH   2  10
ATOM     10  C   UNL     1     -37.924  25.548   3.559  0.00  0.00    +0.117 C 
BRANCH  10  11
ATOM     11  N   UNL     1     -36.553  25.281   3.866  0.00  0.00    -0.329 N 
ATOM     12  H   UNL     1     -35.905  26.020   3.811  0.00  0.00    +0.147 HD
BRANCH  11  13
ATOM     13  C   UNL     1     -36.087  24.004   4.243  0.00  0.00    +0.045 C 
ATOM     14  C   UNL     1     -36.062  22.968   3.309  0.00  0.00    +0.021 C 
ATOM     15  C   UNL     1     -35.653  23.777   5.549  0.00  0.00    +0.014 C 
ATOM     16  C   UNL     1     -35.602  21.704   3.683  0.00  0.00    +0.077 C 
ATOM     17  C   UNL     1     -35.194  22.514   5.922  0.00  0.00    +0.001 C 
ATOM     18  C   UNL     1     -35.168  21.478   4.988  0.00  0.00    +0.007 C 
BRANCH  16  20
ATOM     19  O   UNL     1     -34.643  20.378   1.938  0.00  0.00    -0.245 OA
ATOM     20  C   UNL     1     -35.575  20.624   2.709  0.00  0.00    +0.338 C 
BRANCH  20  21
ATOM     21  O   UNL     1     -36.715  19.879   2.728  0.00  0.00    -0.477 OA
ATOM     22  H   UNL     1     -36.967  19.389   1.971  0.00  0.00    +0.295 HD
ENDBRANCH  20  21
ENDBRANCH  16  20
ENDBRANCH  11  13
ENDBRANCH  10  11
ENDBRANCH   2  10
BRANCH   3  23
ATOM     23  C   UNL     1     -39.559  23.769   1.896  0.00  0.00    +0.181 C 
BRANCH  23  24
ATOM     24  O   UNL     1     -39.996  22.918   0.843  0.00  0.00    -0.268 OA
BRANCH  24  25
ATOM     25  P   UNL     1     -39.436  21.402   0.801  0.00  0.00    +0.473 P 
ATOM     26  O   UNL     1     -40.231  20.452  -0.047  0.00  0.00    -0.227 OA
BRANCH  25  27
ATOM     27  O   UNL     1     -39.309  20.995   2.361  0.00  0.00    -0.303 OA
ATOM     28  H   UNL     1     -39.224  20.031   2.437  0.00  0.00    +0.222 HD
ENDBRANCH  25  27
BRANCH  25  29
ATOM     29  O   UNL     1     -37.898  21.602   0.343  0.00  0.00    -0.303 OA
ATOM     30  H   UNL     1     -37.311  21.164   0.979  0.00  0.00    +0.222 HD
ENDBRANCH  25  29
ENDBRANCH  24  25
ENDBRANCH  23  24
ENDBRANCH   3  23
TORSDOF 11
ENDMDL
MODEL 4
REMARK VINA RESULT:      -6.2      4.504      6.376
REMARK  Name = 194170
REMARK  11 active torsions:
REMARK  status: ('A' for Active; 'I' for Inactive)
REMARK    1  A    between atoms: C_2  and  C_10
REMARK    2  A    between atoms: C_3  and  C_23
REMARK    3  A    between atoms: C_4  and  O_8
REMARK    4  A    between atoms: C_10  and  N_11
REMARK    5  A    between atoms: N_11  and  C_13
REMARK    6  A    between atoms: C_16  and  C_20
REMARK    7  A    between atoms: C_20  and  O_21
REMARK    8  A    between atoms: C_23  and  O_24
REMARK    9  A    between atoms: O_24  and  P_25
REMARK   10  A    between atoms: P_25  and  O_27
REMARK   11  A    between atoms: P_25  and  O_29
REMARK                            x       y       z     vdW  Elec       q    Type
REMARK                         _______ _______ _______ _____ _____    ______ ____
ROOT
ATOM      1  N   UNL     1     -41.861  26.795   0.523  0.00  0.00    -0.245 NA
ATOM      2  C   UNL     1     -40.251  25.415   2.330  0.00  0.00    +0.032 C 
ATOM      3  C   UNL     1     -40.248  25.056   0.991  0.00  0.00    +0.028 C 
ATOM      4  C   UNL     1     -41.050  26.456   2.774  0.00  0.00    +0.144 C 
ATOM      5  C   UNL     1     -41.832  27.111   1.837  0.00  0.00    +0.093 C 
ATOM      6  C   UNL     1     -41.067  25.773   0.133  0.00  0.00    +0.097 C 
ATOM      7  C   UNL     1     -42.715  28.241   2.256  0.00  0.00    +0.055 C 
ENDROOT
BRANCH   4   8
ATOM      8  O   UNL     1     -41.067  26.824   4.083  0.00  0.00    -0.505 OA
ATOM      9  H   UNL     1     -40.477  27.482   4.392  0.00  0.00    +0.292 HD
ENDBRANCH   4   8
BRANCH   2  10
ATOM     10  C   UNL     1     -39.383  24.672   3.307  0.00  0.00    +0.117 C 
BRANCH  10  11
ATOM     11  N   UNL     1     -38.186  25.409   3.576  0.00  0.00    -0.329 N 
ATOM     12  H   UNL     1     -38.153  26.360   3.326  0.00  0.00    +0.147 HD
BRANCH  11  13
ATOM     13  C   UNL     1     -37.051  24.830   4.181  0.00  0.00    +0.045 C 
ATOM     14  C   UNL     1     -36.801  23.466   4.034  0.00  0.00    +0.021 C 
ATOM     15  C   UNL     1     -36.179  25.622   4.929  0.00  0.00    +0.014 C 
ATOM     16  C   UNL     1     -35.679  22.894   4.634  0.00  0.00    +0.077 C 
ATOM     17  C   UNL     1     -35.057  25.050   5.527  0.00  0.00    +0.001 C 
ATOM     18  C   UNL     1     -34.808  23.685   5.380  0.00  0.00    +0.007 C 
BRANCH  16  20
ATOM     19  O   UNL     1     -35.347  20.868   3.404  0.00  0.00    -0.245 OA
ATOM     20  C   UNL     1     -35.418  21.471   4.479  0.00  0.00    +0.338 C 
BRANCH  20  21
ATOM     21  O   UNL     1     -35.252  20.841   5.675  0.00  0.00    -0.477 OA
ATOM     22  H   UNL     1     -35.019  21.334   6.437  0.00  0.00    +0.295 HD
ENDBRANCH  20  21
ENDBRANCH  16  20
ENDBRANCH  11  13
ENDBRANCH  10  11
ENDBRANCH   2  10
BRANCH   3  23
ATOM     23  C   UNL     1     -39.406  23.946   0.465  0.00  0.00    +0.181 C 
BRANCH  23  24
ATOM     24  O   UNL     1     -40.161  22.739   0.460  0.00  0.00    -0.268 OA
BRANCH  24  25
ATOM     25  P   UNL     1     -39.462  21.396   1.026  0.00  0.00    +0.473 P 
ATOM     26  O   UNL     1     -37.989  21.510   1.294  0.00  0.00    -0.227 OA
BRANCH  25  27
ATOM     27  O   UNL     1     -39.884  20.261  -0.045  0.00  0.00    -0.303 OA
ATOM     28  H   UNL     1     -40.188  19.470   0.426  0.00  0.00    +0.222 HD
ENDBRANCH  25  27
BRANCH  25  29
ATOM     29  O   UNL     1     -40.365  21.042   2.319  0.00  0.00    -0.303 OA
ATOM     30  H   UNL     1     -40.710  21.861   2.708  0.00  0.00    +0.222 HD
ENDBRANCH  25  29
ENDBRANCH  24  25
ENDBRANCH  23  24
ENDBRANCH   3  23
TORSDOF 11
ENDMDL
MODEL 5
REMARK VINA RESULT:      -6.1      3.627      6.915
REMARK  Name = 194170
REMARK  11 active torsions:
REMARK  status: ('A' for Active; 'I' for Inactive)
REMARK    1  A    between atoms: C_2  and  C_10
REMARK    2  A    between atoms: C_3  and  C_23
REMARK    3  A    between atoms: C_4  and  O_8
REMARK    4  A    between atoms: C_10  and  N_11
REMARK    5  A    between atoms: N_11  and  C_13
REMARK    6  A    between atoms: C_16  and  C_20
REMARK    7  A    between atoms: C_20  and  O_21
REMARK    8  A    between atoms: C_23  and  O_24
REMARK    9  A    between atoms: O_24  and  P_25
REMARK   10  A    between atoms: P_25  and  O_27
REMARK   11  A    between atoms: P_25  and  O_29
REMARK                            x       y       z     vdW  Elec       q    Type
REMARK                         _______ _______ _______ _____ _____    ______ ____
ROOT
ATOM      1  N   UNL     1     -38.938  19.388  -0.417  0.00  0.00    -0.245 NA
ATOM      2  C   UNL     1     -36.810  20.734   0.777  0.00  0.00    +0.032 C 
ATOM      3  C   UNL     1     -37.979  21.417   0.482  0.00  0.00    +0.028 C 
ATOM      4  C   UNL     1     -36.694  19.385   0.481  0.00  0.00    +0.144 C 
ATOM      5  C   UNL     1     -37.779  18.762  -0.112  0.00  0.00    +0.093 C 
ATOM      6  C   UNL     1     -39.008  20.703  -0.112  0.00  0.00    +0.097 C 
ATOM      7  C   UNL     1     -37.714  17.309  -0.455  0.00  0.00    +0.055 C 
ENDROOT
BRANCH   4   8
ATOM      8  O   UNL     1     -35.556  18.697   0.762  0.00  0.00    -0.505 OA
ATOM      9  H   UNL     1     -35.605  17.861   1.180  0.00  0.00    +0.292 HD
ENDBRANCH   4   8
BRANCH   2  10
ATOM     10  C   UNL     1     -35.661  21.458   1.421  0.00  0.00    +0.117 C 
BRANCH  10  11
ATOM     11  N   UNL     1     -35.541  21.084   2.797  0.00  0.00    -0.329 N 
ATOM     12  H   UNL     1     -35.454  20.130   3.019  0.00  0.00    +0.147 HD
BRANCH  11  13
ATOM     13  C   UNL     1     -35.543  22.025   3.848  0.00  0.00    +0.045 C 
ATOM     14  C   UNL     1     -35.904  23.349   3.598  0.00  0.00    +0.021 C 
ATOM     15  C   UNL     1     -35.183  21.632   5.137  0.00  0.00    +0.014 C 
ATOM     16  C   UNL     1     -35.906  24.279   4.638  0.00  0.00    +0.077 C 
ATOM     17  C   UNL     1     -35.186  22.561   6.176  0.00  0.00    +0.001 C 
ATOM     18  C   UNL     1     -35.547  23.885   5.926  0.00  0.00    +0.007 C 
BRANCH  16  20
ATOM     19  O   UNL     1     -36.486  26.149   3.262  0.00  0.00    -0.245 OA
ATOM     20  C   UNL     1     -36.284  25.660   4.378  0.00  0.00    +0.338 C 
BRANCH  20  21
ATOM     21  O   UNL     1     -36.399  26.391   5.521  0.00  0.00    -0.477 OA
ATOM     22  H   UNL     1     -36.939  26.083   6.222  0.00  0.00    +0.295 HD
ENDBRANCH  20  21
ENDBRANCH  16  20
ENDBRANCH  11  13
ENDBRANCH  10  11
ENDBRANCH   2  10
BRANCH   3  23
ATOM     23  C   UNL     1     -38.154  22.866   0.782  0.00  0.00    +0.181 C 
BRANCH  23  24
ATOM     24  O   UNL     1     -38.982  23.016   1.929  0.00  0.00    -0.268 OA
BRANCH  24  25
ATOM     25  P   UNL     1     -39.645  24.463   2.210  0.00  0.00    +0.473 P 
ATOM     26  O   UNL     1     -41.084  24.594   1.799  0.00  0.00    -0.227 OA
BRANCH  25  27
ATOM     27  O   UNL     1     -38.627  25.499   1.502  0.00  0.00    -0.303 OA
ATOM     28  H   UNL     1     -38.958  26.404   1.612  0.00  0.00    +0.222 HD
ENDBRANCH  25  27
BRANCH  25  29
ATOM     29  O   UNL     1     -39.364  24.684   3.787  0.00  0.00    -0.303 OA
ATOM     30  H   UNL     1     -39.122  23.837   4.194  0.00  0.00    +0.222 HD
ENDBRANCH  25  29
ENDBRANCH  24  25
ENDBRANCH  23  24
ENDBRANCH   3  23
TORSDOF 11
ENDMDL
MODEL 6
REMARK VINA RESULT:      -6.1      2.450      4.587
REMARK  Name = 194170
REMARK  11 active torsions:
REMARK  status: ('A' for Active; 'I' for Inactive)
REMARK    1  A    between atoms: C_2  and  C_10
REMARK    2  A    between atoms: C_3  and  C_23
REMARK    3  A    between atoms: C_4  and  O_8
REMARK    4  A    between atoms: C_10  and  N_11
REMARK    5  A    between atoms: N_11  and  C_13
REMARK    6  A    between atoms: C_16  and  C_20
REMARK    7  A    between atoms: C_20  and  O_21
REMARK    8  A    between atoms: C_23  and  O_24
REMARK    9  A    between atoms: O_24  and  P_25
REMARK   10  A    between atoms: P_25  and  O_27
REMARK   11  A    between atoms: P_25  and  O_29
REMARK                            x       y       z     vdW  Elec       q    Type
REMARK                         _______ _______ _______ _____ _____    ______ ____
ROOT
ATOM      1  N   UNL     1     -35.795  28.750   0.849  0.00  0.00    -0.245 NA
ATOM      2  C   UNL     1     -35.688  27.171   3.143  0.00  0.00    +0.032 C 
ATOM      3  C   UNL     1     -36.698  26.970   2.215  0.00  0.00    +0.028 C 
ATOM      4  C   UNL     1     -34.732  28.153   2.936  0.00  0.00    +0.144 C 
ATOM      5  C   UNL     1     -34.829  28.910   1.781  0.00  0.00    +0.093 C 
ATOM      6  C   UNL     1     -36.707  27.782   1.091  0.00  0.00    +0.097 C 
ATOM      7  C   UNL     1     -33.827  29.984   1.503  0.00  0.00    +0.055 C 
ENDROOT
BRANCH   4   8
ATOM      8  O   UNL     1     -33.734  28.365   3.834  0.00  0.00    -0.505 OA
ATOM      9  H   UNL     1     -33.883  28.210   4.746  0.00  0.00    +0.292 HD
ENDBRANCH   4   8
BRANCH   2  10
ATOM     10  C   UNL     1     -35.628  26.320   4.381  0.00  0.00    +0.117 C 
BRANCH  10  11
ATOM     11  N   UNL     1     -34.631  25.304   4.244  0.00  0.00    -0.329 N 
ATOM     12  H   UNL     1     -33.719  25.572   3.986  0.00  0.00    +0.147 HD
BRANCH  11  13
ATOM     13  C   UNL     1     -34.897  23.936   4.460  0.00  0.00    +0.045 C 
ATOM     14  C   UNL     1     -35.187  23.103   3.379  0.00  0.00    +0.021 C 
ATOM     15  C   UNL     1     -34.872  23.416   5.754  0.00  0.00    +0.014 C 
ATOM     16  C   UNL     1     -35.451  21.750   3.594  0.00  0.00    +0.077 C 
ATOM     17  C   UNL     1     -35.135  22.064   5.968  0.00  0.00    +0.001 C 
ATOM     18  C   UNL     1     -35.425  21.231   4.887  0.00  0.00    +0.007 C 
BRANCH  16  20
ATOM     19  O   UNL     1     -35.282  20.992   1.331  0.00  0.00    -0.245 OA
ATOM     20  C   UNL     1     -35.752  20.881   2.467  0.00  0.00    +0.338 C 
BRANCH  20  21
ATOM     21  O   UNL     1     -36.633  19.895   2.793  0.00  0.00    -0.477 OA
ATOM     22  H   UNL     1     -37.182  19.986   3.546  0.00  0.00    +0.295 HD
ENDBRANCH  20  21
ENDBRANCH  16  20
ENDBRANCH  11  13
ENDBRANCH  10  11
ENDBRANCH   2  10
BRANCH   3  23
ATOM     23  C   UNL     1     -37.747  25.928   2.391  0.00  0.00    +0.181 C 
BRANCH  23  24
ATOM     24  O   UNL     1     -39.030  26.504   2.170  0.00  0.00    -0.268 OA
BRANCH  24  25
ATOM     25  P   UNL     1     -40.311  25.813   2.873  0.00  0.00    +0.473 P 
ATOM     26  O   UNL     1     -41.294  25.185   1.928  0.00  0.00    -0.227 OA
BRANCH  25  27
ATOM     27  O   UNL     1     -40.909  26.980   3.818  0.00  0.00    -0.303 OA
ATOM     28  H   UNL     1     -40.372  27.782   3.720  0.00  0.00    +0.222 HD
ENDBRANCH  25  27
BRANCH  25  29
ATOM     29  O   UNL     1     -39.631  24.792   3.928  0.00  0.00    -0.303 OA
ATOM     30  H   UNL     1     -40.211  24.026   4.056  0.00  0.00    +0.222 HD
ENDBRANCH  25  29
ENDBRANCH  24  25
ENDBRANCH  23  24
ENDBRANCH   3  23
TORSDOF 11
ENDMDL
MODEL 7
REMARK VINA RESULT:      -6.1      3.453      5.014
REMARK  Name = 194170
REMARK  11 active torsions:
REMARK  status: ('A' for Active; 'I' for Inactive)
REMARK    1  A    between atoms: C_2  and  C_10
REMARK    2  A    between atoms: C_3  and  C_23
REMARK    3  A    between atoms: C_4  and  O_8
REMARK    4  A    between atoms: C_10  and  N_11
REMARK    5  A    between atoms: N_11  and  C_13
REMARK    6  A    between atoms: C_16  and  C_20
REMARK    7  A    between atoms: C_20  and  O_21
REMARK    8  A    between atoms: C_23  and  O_24
REMARK    9  A    between atoms: O_24  and  P_25
REMARK   10  A    between atoms: P_25  and  O_27
REMARK   11  A    between atoms: P_25  and  O_29
REMARK                            x       y       z     vdW  Elec       q    Type
REMARK                         _______ _______ _______ _____ _____    ______ ____
ROOT
ATOM      1  N   UNL     1     -38.313  24.427   1.794  0.00  0.00    -0.245 NA
ATOM      2  C   UNL     1     -36.557  22.442   2.653  0.00  0.00    +0.032 C 
ATOM      3  C   UNL     1     -36.164  23.771   2.684  0.00  0.00    +0.028 C 
ATOM      4  C   UNL     1     -37.819  22.096   2.196  0.00  0.00    +0.144 C 
ATOM      5  C   UNL     1     -38.654  23.119   1.781  0.00  0.00    +0.093 C 
ATOM      6  C   UNL     1     -37.074  24.720   2.246  0.00  0.00    +0.097 C 
ATOM      7  C   UNL     1     -40.027  22.809   1.278  0.00  0.00    +0.055 C 
ENDROOT
BRANCH   4   8
ATOM      8  O   UNL     1     -38.224  20.799   2.158  0.00  0.00    -0.505 OA
ATOM      9  H   UNL     1     -37.644  20.136   1.839  0.00  0.00    +0.292 HD
ENDBRANCH   4   8
BRANCH   2  10
ATOM     10  C   UNL     1     -35.612  21.369   3.116  0.00  0.00    +0.117 C 
BRANCH  10  11
ATOM     11  N   UNL     1     -35.448  20.373   2.103  0.00  0.00    -0.329 N 
ATOM     12  H   UNL     1     -36.212  19.790   1.888  0.00  0.00    +0.147 HD
BRANCH  11  13
ATOM     13  C   UNL     1     -34.240  20.188   1.399  0.00  0.00    +0.045 C 
ATOM     14  C   UNL     1     -33.559  18.973   1.491  0.00  0.00    +0.021 C 
ATOM     15  C   UNL     1     -33.725  21.218   0.612  0.00  0.00    +0.014 C 
ATOM     16  C   UNL     1     -32.363  18.791   0.795  0.00  0.00    +0.077 C 
ATOM     17  C   UNL     1     -32.531  21.035  -0.083  0.00  0.00    +0.001 C 
ATOM     18  C   UNL     1     -31.849  19.821   0.009  0.00  0.00    +0.007 C 
BRANCH  16  20
ATOM     19  O   UNL     1     -32.118  16.419   0.599  0.00  0.00    -0.245 OA
ATOM     20  C   UNL     1     -31.653  17.525   0.890  0.00  0.00    +0.338 C 
BRANCH  20  21
ATOM     21  O   UNL     1     -30.379  17.677   1.346  0.00  0.00    -0.477 OA
ATOM     22  H   UNL     1     -30.020  17.058   1.950  0.00  0.00    +0.295 HD
ENDBRANCH  20  21
ENDBRANCH  16  20
ENDBRANCH  11  13
ENDBRANCH  10  11
ENDBRANCH   2  10
BRANCH   3  23
ATOM     23  C   UNL     1     -34.819  24.193   3.168  0.00  0.00    +0.181 C 
BRANCH  23  24
ATOM     24  O   UNL     1     -34.877  25.545   3.608  0.00  0.00    -0.268 OA
BRANCH  24  25
ATOM     25  P   UNL     1     -35.001  25.829   5.194  0.00  0.00    +0.473 P 
ATOM     26  O   UNL     1     -33.881  26.635   5.786  0.00  0.00    -0.227 OA
BRANCH  25  27
ATOM     27  O   UNL     1     -35.207  24.359   5.834  0.00  0.00    -0.303 OA
ATOM     28  H   UNL     1     -35.449  24.445   6.770  0.00  0.00    +0.222 HD
ENDBRANCH  25  27
BRANCH  25  29
ATOM     29  O   UNL     1     -36.467  26.500   5.322  0.00  0.00    -0.303 OA
ATOM     30  H   UNL     1     -36.955  26.371   4.495  0.00  0.00    +0.222 HD
ENDBRANCH  25  29
ENDBRANCH  24  25
ENDBRANCH  23  24
ENDBRANCH   3  23
TORSDOF 11
ENDMDL
MODEL 8
REMARK VINA RESULT:      -6.1      4.492      8.186
REMARK  Name = 194170
REMARK  11 active torsions:
REMARK  status: ('A' for Active; 'I' for Inactive)
REMARK    1  A    between atoms: C_2  and  C_10
REMARK    2  A    between atoms: C_3  and  C_23
REMARK    3  A    between atoms: C_4  and  O_8
REMARK    4  A    between atoms: C_10  and  N_11
REMARK    5  A    between atoms: N_11  and  C_13
REMARK    6  A    between atoms: C_16  and  C_20
REMARK    7  A    between atoms: C_20  and  O_21
REMARK    8  A    between atoms: C_23  and  O_24
REMARK    9  A    between atoms: O_24  and  P_25
REMARK   10  A    between atoms: P_25  and  O_27
REMARK   11  A    between atoms: P_25  and  O_29
REMARK                            x       y       z     vdW  Elec       q    Type
REMARK                         _______ _______ _______ _____ _____    ______ ____
ROOT
ATOM      1  N   UNL     1     -35.478  21.103   3.762  0.00  0.00    -0.245 NA
ATOM      2  C   UNL     1     -36.882  23.458   3.265  0.00  0.00    +0.032 C 
ATOM      3  C   UNL     1     -36.821  22.473   2.291  0.00  0.00    +0.028 C 
ATOM      4  C   UNL     1     -36.247  23.278   4.484  0.00  0.00    +0.144 C 
ATOM      5  C   UNL     1     -35.563  22.090   4.682  0.00  0.00    +0.093 C 
ATOM      6  C   UNL     1     -36.110  21.321   2.588  0.00  0.00    +0.097 C 
ATOM      7  C   UNL     1     -34.859  21.838   5.976  0.00  0.00    +0.055 C 
ENDROOT
BRANCH   4   8
ATOM      8  O   UNL     1     -36.295  24.231   5.451  0.00  0.00    -0.505 OA
ATOM      9  H   UNL     1     -37.004  24.242   6.064  0.00  0.00    +0.292 HD
ENDBRANCH   4   8
BRANCH   2  10
ATOM     10  C   UNL     1     -37.639  24.730   2.999  0.00  0.00    +0.117 C 
BRANCH  10  11
ATOM     11  N   UNL     1     -38.884  24.728   3.702  0.00  0.00    -0.329 N 
ATOM     12  H   UNL     1     -38.913  24.347   4.609  0.00  0.00    +0.147 HD
BRANCH  11  13
ATOM     13  C   UNL     1     -40.075  25.246   3.151  0.00  0.00    +0.045 C 
ATOM     14  C   UNL     1     -40.816  26.193   3.858  0.00  0.00    +0.021 C 
ATOM     15  C   UNL     1     -40.512  24.811   1.900  0.00  0.00    +0.014 C 
ATOM     16  C   UNL     1     -41.994  26.705   3.313  0.00  0.00    +0.077 C 
ATOM     17  C   UNL     1     -41.689  25.323   1.355  0.00  0.00    +0.001 C 
ATOM     18  C   UNL     1     -42.430  26.271   2.063  0.00  0.00    +0.007 C 
BRANCH  16  20
ATOM     19  O   UNL     1     -43.975  27.625   4.289  0.00  0.00    -0.245 OA
ATOM     20  C   UNL     1     -42.766  27.694   4.050  0.00  0.00    +0.338 C 
BRANCH  20  21
ATOM     21  O   UNL     1     -42.004  28.742   4.468  0.00  0.00    -0.477 OA
ATOM     22  H   UNL     1     -41.192  28.930   4.042  0.00  0.00    +0.295 HD
ENDBRANCH  20  21
ENDBRANCH  16  20
ENDBRANCH  11  13
ENDBRANCH  10  11
ENDBRANCH   2  10
BRANCH   3  23
ATOM     23  C   UNL     1     -37.487  22.620   0.967  0.00  0.00    +0.181 C 
BRANCH  23  24
ATOM     24  O   UNL     1     -38.007  21.360   0.556  0.00  0.00    -0.268 OA
BRANCH  24  25
ATOM     25  P   UNL     1     -39.601  21.228   0.327  0.00  0.00    +0.473 P 
ATOM     26  O   UNL     1     -40.223  22.336  -0.473  0.00  0.00    -0.227 OA
BRANCH  25  27
ATOM     27  O   UNL     1     -40.191  21.037   1.820  0.00  0.00    -0.303 OA
ATOM     28  H   UNL     1     -39.670  21.567   2.443  0.00  0.00    +0.222 HD
ENDBRANCH  25  27
BRANCH  25  29
ATOM     29  O   UNL     1     -39.747  19.754  -0.323  0.00  0.00    -0.303 OA
ATOM     30  H   UNL     1     -39.105  19.155   0.089  0.00  0.00    +0.222 HD
ENDBRANCH  25  29
ENDBRANCH  24  25
ENDBRANCH  23  24
ENDBRANCH   3  23
TORSDOF 11
ENDMDL
MODEL 9
REMARK VINA RESULT:      -6.1      3.212      6.115
REMARK  Name = 194170
REMARK  11 active torsions:
REMARK  status: ('A' for Active; 'I' for Inactive)
REMARK    1  A    between atoms: C_2  and  C_10
REMARK    2  A    between atoms: C_3  and  C_23
REMARK    3  A    between atoms: C_4  and  O_8
REMARK    4  A    between atoms: C_10  and  N_11
REMARK    5  A    between atoms: N_11  and  C_13
REMARK    6  A    between atoms: C_16  and  C_20
REMARK    7  A    between atoms: C_20  and  O_21
REMARK    8  A    between atoms: C_23  and  O_24
REMARK    9  A    between atoms: O_24  and  P_25
REMARK   10  A    between atoms: P_25  and  O_27
REMARK   11  A    between atoms: P_25  and  O_29
REMARK                            x       y       z     vdW  Elec       q    Type
REMARK                         _______ _______ _______ _____ _____    ______ ____
ROOT
ATOM      1  N   UNL     1     -40.925  23.346   1.096  0.00  0.00    -0.245 NA
ATOM      2  C   UNL     1     -38.851  25.081   1.771  0.00  0.00    +0.032 C 
ATOM      3  C   UNL     1     -38.584  23.738   1.555  0.00  0.00    +0.028 C 
ATOM      4  C   UNL     1     -40.144  25.565   1.654  0.00  0.00    +0.144 C 
ATOM      5  C   UNL     1     -41.139  24.663   1.315  0.00  0.00    +0.093 C 
ATOM      6  C   UNL     1     -39.649  22.916   1.222  0.00  0.00    +0.097 C 
ATOM      7  C   UNL     1     -42.553  25.125   1.174  0.00  0.00    +0.055 C 
ENDROOT
BRANCH   4   8
ATOM      8  O   UNL     1     -40.427  26.878   1.861  0.00  0.00    -0.505 OA
ATOM      9  H   UNL     1     -40.308  27.254   2.711  0.00  0.00    +0.292 HD
ENDBRANCH   4   8
BRANCH   2  10
ATOM     10  C   UNL     1     -37.734  26.018   2.136  0.00  0.00    +0.117 C 
BRANCH  10  11
ATOM     11  N   UNL     1     -37.601  26.112   3.557  0.00  0.00    -0.329 N 
ATOM     12  H   UNL     1     -38.372  26.426   4.082  0.00  0.00    +0.147 HD
BRANCH  11  13
ATOM     13  C   UNL     1     -36.413  25.775   4.238  0.00  0.00    +0.045 C 
ATOM     14  C   UNL     1     -35.318  26.638   4.198  0.00  0.00    +0.021 C 
ATOM     15  C   UNL     1     -36.332  24.579   4.951  0.00  0.00    +0.014 C 
ATOM     16  C   UNL     1     -34.142  26.304   4.872  0.00  0.00    +0.077 C 
ATOM     17  C   UNL     1     -35.158  24.246   5.625  0.00  0.00    +0.001 C 
ATOM     18  C   UNL     1     -34.062  25.109   5.585  0.00  0.00    +0.007 C 
BRANCH  16  20
ATOM     19  O   UNL     1     -32.785  28.124   5.625  0.00  0.00    -0.245 OA
ATOM     20  C   UNL     1     -33.000  27.204   4.831  0.00  0.00    +0.338 C 
BRANCH  20  21
ATOM     21  O   UNL     1     -32.158  26.928   3.797  0.00  0.00    -0.477 OA
ATOM     22  H   UNL     1     -31.802  26.067   3.700  0.00  0.00    +0.295 HD
ENDBRANCH  20  21
ENDBRANCH  16  20
ENDBRANCH  11  13
ENDBRANCH  10  11
ENDBRANCH   2  10
BRANCH   3  23
ATOM     23  C   UNL     1     -37.211  23.170   1.668  0.00  0.00    +0.181 C 
BRANCH  23  24
ATOM     24  O   UNL     1     -37.210  22.122   2.631  0.00  0.00    -0.268 OA
BRANCH  24  25
ATOM     25  P   UNL     1     -35.978  21.076   2.622  0.00  0.00    +0.473 P 
ATOM     26  O   UNL     1     -34.857  21.419   1.684  0.00  0.00    -0.227 OA
BRANCH  25  27
ATOM     27  O   UNL     1     -36.688  19.647   2.356  0.00  0.00    -0.303 OA
ATOM     28  H   UNL     1     -36.230  18.959   2.864  0.00  0.00    +0.222 HD
ENDBRANCH  25  27
BRANCH  25  29
ATOM     29  O   UNL     1     -35.563  21.000   4.183  0.00  0.00    -0.303 OA
ATOM     30  H   UNL     1     -36.333  21.208   4.733  0.00  0.00    +0.222 HD
ENDBRANCH  25  29
ENDBRANCH  24  25
ENDBRANCH  23  24
ENDBRANCH   3  23
TORSDOF 11
ENDMDL
