MODEL 1
REMARK VINA RESULT:      -6.4      0.000      0.000
REMARK  Name = 5646
REMARK  4 active torsions:
REMARK  status: ('A' for Active; 'I' for Inactive)
REMARK    1  A    between atoms: C_8  and  C_19
REMARK    2  A    between atoms: C_11  and  O_24
REMARK    3  A    between atoms: C_14  and  C_22
REMARK    4  A    between atoms: C_16  and  O_26
REMARK                            x       y       z     vdW  Elec       q    Type
REMARK                         _______ _______ _______ _____ _____    ______ ____
ROOT
ATOM      1  O   UNL     1     -34.481  23.450   0.940  0.00  0.00    -0.457 OA
ATOM      2  O   UNL     1     -38.025  23.212   3.397  0.00  0.00    -0.294 OA
ATOM      3  O   UNL     1     -37.918  20.524  -0.472  0.00  0.00    -0.290 OA
ATOM      4  C   UNL     1     -35.883  22.422   2.602  0.00  0.00    +0.128 C 
ATOM      5  C   UNL     1     -35.169  23.629   3.130  0.00  0.00    +0.059 A 
ATOM      6  C   UNL     1     -35.510  22.525   1.135  0.00  0.00    +0.135 C 
ATOM      7  C   UNL     1     -37.401  22.462   2.647  0.00  0.00    +0.175 C 
ATOM      8  C   UNL     1     -38.115  21.455   1.745  0.00  0.00    +0.177 C 
ATOM      9  C   UNL     1     -34.348  24.144   2.122  0.00  0.00    +0.150 A 
ATOM     10  C   UNL     1     -35.343  21.143   3.248  0.00  0.00    +0.020 C 
ATOM     11  C   UNL     1     -35.170  24.201   4.390  0.00  0.00    +0.132 A 
ATOM     12  C   UNL     1     -36.169  21.973   0.113  0.00  0.00    +0.072 C 
ATOM     13  C   UNL     1     -37.432  21.246   0.397  0.00  0.00    +0.189 C 
ATOM     14  C   UNL     1     -33.522  25.231   2.320  0.00  0.00    +0.102 A 
ATOM     15  C   UNL     1     -34.344  25.309   4.612  0.00  0.00    +0.045 A 
ATOM     16  C   UNL     1     -33.528  25.818   3.587  0.00  0.00    +0.138 A 
ATOM     17  C   UNL     1     -34.324  25.954   5.963  0.00  0.00    +0.037 C 
ENDROOT
BRANCH   8  19
ATOM     18  O   UNL     1     -40.449  21.119   2.112  0.00  0.00    -0.295 OA
ATOM     19  C   UNL     1     -39.567  21.785   1.571  0.00  0.00    +0.165 C 
ATOM     20  C   UNL     1     -39.892  22.973   0.706  0.00  0.00    +0.073 C 
ENDBRANCH   8  19
BRANCH  14  22
ATOM     21  O   UNL     1     -31.464  25.508   1.203  0.00  0.00    -0.291 OA
ATOM     22  C   UNL     1     -32.687  25.743   1.244  0.00  0.00    +0.179 C 
ATOM     23  C   UNL     1     -33.300  26.587   0.132  0.00  0.00    +0.077 C 
ENDBRANCH  14  22
BRANCH  11  24
ATOM     24  O   UNL     1     -35.933  23.691   5.391  0.00  0.00    -0.506 OA
ATOM     25  H   UNL     1     -36.296  22.831   5.312  0.00  0.00    +0.292 HD
ENDBRANCH  11  24
BRANCH  16  26
ATOM     26  O   UNL     1     -32.731  26.900   3.835  0.00  0.00    -0.506 OA
ATOM     27  H   UNL     1     -32.899  27.445   4.578  0.00  0.00    +0.292 HD
ENDBRANCH  16  26
TORSDOF 4
ENDMDL
MODEL 2
REMARK VINA RESULT:      -6.2      2.677      5.590
REMARK  Name = 5646
REMARK  4 active torsions:
REMARK  status: ('A' for Active; 'I' for Inactive)
REMARK    1  A    between atoms: C_8  and  C_19
REMARK    2  A    between atoms: C_11  and  O_24
REMARK    3  A    between atoms: C_14  and  C_22
REMARK    4  A    between atoms: C_16  and  O_26
REMARK                            x       y       z     vdW  Elec       q    Type
REMARK                         _______ _______ _______ _____ _____    ______ ____
ROOT
ATOM      1  O   UNL     1     -35.955  24.128   1.039  0.00  0.00    -0.457 OA
ATOM      2  O   UNL     1     -34.824  27.017   4.042  0.00  0.00    -0.294 OA
ATOM      3  O   UNL     1     -35.839  28.677  -0.249  0.00  0.00    -0.290 OA
ATOM      4  C   UNL     1     -36.425  25.812   2.691  0.00  0.00    +0.128 C 
ATOM      5  C   UNL     1     -36.056  24.498   3.309  0.00  0.00    +0.059 A 
ATOM      6  C   UNL     1     -36.136  25.499   1.234  0.00  0.00    +0.135 C 
ATOM      7  C   UNL     1     -35.541  26.996   3.043  0.00  0.00    +0.175 C 
ATOM      8  C   UNL     1     -35.648  28.201   2.108  0.00  0.00    +0.177 C 
ATOM      9  C   UNL     1     -35.838  23.565   2.290  0.00  0.00    +0.150 A 
ATOM     10  C   UNL     1     -37.902  26.132   2.932  0.00  0.00    +0.020 C 
ATOM     11  C   UNL     1     -35.977  24.113   4.636  0.00  0.00    +0.132 A 
ATOM     12  C   UNL     1     -35.891  26.390   0.270  0.00  0.00    +0.072 C 
ATOM     13  C   UNL     1     -35.812  27.826   0.638  0.00  0.00    +0.189 C 
ATOM     14  C   UNL     1     -35.529  22.245   2.546  0.00  0.00    +0.102 A 
ATOM     15  C   UNL     1     -35.660  22.780   4.919  0.00  0.00    +0.045 A 
ATOM     16  C   UNL     1     -35.439  21.855   3.883  0.00  0.00    +0.138 A 
ATOM     17  C   UNL     1     -35.565  22.332   6.344  0.00  0.00    +0.037 C 
ENDROOT
BRANCH   8  19
ATOM     18  O   UNL     1     -33.369  28.888   1.954  0.00  0.00    -0.295 OA
ATOM     19  C   UNL     1     -34.517  29.165   2.300  0.00  0.00    +0.165 C 
ATOM     20  C   UNL     1     -34.853  30.487   2.934  0.00  0.00    +0.073 C 
ENDBRANCH   8  19
BRANCH  14  22
ATOM     21  O   UNL     1     -36.152  20.445   1.155  0.00  0.00    -0.291 OA
ATOM     22  C   UNL     1     -35.303  21.305   1.458  0.00  0.00    +0.179 C 
ATOM     23  C   UNL     1     -34.005  21.355   0.659  0.00  0.00    +0.077 C 
ENDBRANCH  14  22
BRANCH  11  24
ATOM     24  O   UNL     1     -36.222  24.997   5.638  0.00  0.00    -0.506 OA
ATOM     25  H   UNL     1     -36.306  25.910   5.446  0.00  0.00    +0.292 HD
ENDBRANCH  11  24
BRANCH  16  26
ATOM     26  O   UNL     1     -35.133  20.560   4.191  0.00  0.00    -0.506 OA
ATOM     27  H   UNL     1     -34.283  20.220   3.996  0.00  0.00    +0.292 HD
ENDBRANCH  16  26
TORSDOF 4
ENDMDL
MODEL 3
REMARK VINA RESULT:      -6.1      2.511      4.288
REMARK  Name = 5646
REMARK  4 active torsions:
REMARK  status: ('A' for Active; 'I' for Inactive)
REMARK    1  A    between atoms: C_8  and  C_19
REMARK    2  A    between atoms: C_11  and  O_24
REMARK    3  A    between atoms: C_14  and  C_22
REMARK    4  A    between atoms: C_16  and  O_26
REMARK                            x       y       z     vdW  Elec       q    Type
REMARK                         _______ _______ _______ _____ _____    ______ ____
ROOT
ATOM      1  O   UNL     1     -33.654  25.558   5.176  0.00  0.00    -0.457 OA
ATOM      2  O   UNL     1     -35.878  24.275   1.703  0.00  0.00    -0.294 OA
ATOM      3  O   UNL     1     -35.314  21.129   5.165  0.00  0.00    -0.290 OA
ATOM      4  C   UNL     1     -35.682  25.083   3.972  0.00  0.00    +0.128 C 
ATOM      5  C   UNL     1     -35.047  26.367   3.530  0.00  0.00    +0.059 A 
ATOM      6  C   UNL     1     -34.594  24.564   4.893  0.00  0.00    +0.135 C 
ATOM      7  C   UNL     1     -35.866  24.018   2.906  0.00  0.00    +0.175 C 
ATOM      8  C   UNL     1     -36.105  22.599   3.424  0.00  0.00    +0.177 C 
ATOM      9  C   UNL     1     -33.901  26.592   4.300  0.00  0.00    +0.150 A 
ATOM     10  C   UNL     1     -36.992  25.352   4.718  0.00  0.00    +0.020 C 
ATOM     11  C   UNL     1     -35.452  27.299   2.591  0.00  0.00    +0.132 A 
ATOM     12  C   UNL     1     -34.412  23.292   5.259  0.00  0.00    +0.072 C 
ATOM     13  C   UNL     1     -35.291  22.253   4.667  0.00  0.00    +0.189 C 
ATOM     14  C   UNL     1     -33.125  27.723   4.161  0.00  0.00    +0.102 A 
ATOM     15  C   UNL     1     -34.676  28.452   2.430  0.00  0.00    +0.045 A 
ATOM     16  C   UNL     1     -33.523  28.662   3.208  0.00  0.00    +0.138 A 
ATOM     17  C   UNL     1     -35.084  29.480   1.421  0.00  0.00    +0.037 C 
ENDROOT
BRANCH   8  19
ATOM     18  O   UNL     1     -34.803  21.248   1.950  0.00  0.00    -0.295 OA
ATOM     19  C   UNL     1     -35.921  21.569   2.351  0.00  0.00    +0.165 C 
ATOM     20  C   UNL     1     -37.171  20.946   1.789  0.00  0.00    +0.073 C 
ENDBRANCH   8  19
BRANCH  14  22
ATOM     21  O   UNL     1     -30.792  27.833   4.489  0.00  0.00    -0.291 OA
ATOM     22  C   UNL     1     -31.935  27.919   4.976  0.00  0.00    +0.179 C 
ATOM     23  C   UNL     1     -32.067  28.235   6.462  0.00  0.00    +0.077 C 
ENDBRANCH  14  22
BRANCH  11  24
ATOM     24  O   UNL     1     -36.582  27.114   1.861  0.00  0.00    -0.506 OA
ATOM     25  H   UNL     1     -37.025  27.850   1.488  0.00  0.00    +0.292 HD
ENDBRANCH  11  24
BRANCH  16  26
ATOM     26  O   UNL     1     -32.787  29.799   3.028  0.00  0.00    -0.506 OA
ATOM     27  H   UNL     1     -32.931  30.541   3.580  0.00  0.00    +0.292 HD
ENDBRANCH  16  26
TORSDOF 4
ENDMDL
MODEL 4
REMARK VINA RESULT:      -6.1      2.872      4.815
REMARK  Name = 5646
REMARK  4 active torsions:
REMARK  status: ('A' for Active; 'I' for Inactive)
REMARK    1  A    between atoms: C_8  and  C_19
REMARK    2  A    between atoms: C_11  and  O_24
REMARK    3  A    between atoms: C_14  and  C_22
REMARK    4  A    between atoms: C_16  and  O_26
REMARK                            x       y       z     vdW  Elec       q    Type
REMARK                         _______ _______ _______ _____ _____    ______ ____
ROOT
ATOM      1  O   UNL     1     -35.928  27.581   2.588  0.00  0.00    -0.457 OA
ATOM      2  O   UNL     1     -33.488  24.580   4.508  0.00  0.00    -0.294 OA
ATOM      3  O   UNL     1     -37.883  23.341   3.344  0.00  0.00    -0.290 OA
ATOM      4  C   UNL     1     -34.513  25.636   2.590  0.00  0.00    +0.128 C 
ATOM      5  C   UNL     1     -33.738  26.903   2.792  0.00  0.00    +0.059 A 
ATOM      6  C   UNL     1     -35.925  26.186   2.666  0.00  0.00    +0.135 C 
ATOM      7  C   UNL     1     -34.412  24.600   3.696  0.00  0.00    +0.175 C 
ATOM      8  C   UNL     1     -35.504  23.529   3.699  0.00  0.00    +0.177 C 
ATOM      9  C   UNL     1     -34.621  27.986   2.738  0.00  0.00    +0.150 A 
ATOM     10  C   UNL     1     -34.204  25.020   1.223  0.00  0.00    +0.020 C 
ATOM     11  C   UNL     1     -32.379  27.117   2.943  0.00  0.00    +0.132 A 
ATOM     12  C   UNL     1     -37.027  25.490   2.957  0.00  0.00    +0.072 C 
ATOM     13  C   UNL     1     -36.884  24.058   3.319  0.00  0.00    +0.189 C 
ATOM     14  C   UNL     1     -34.197  29.295   2.841  0.00  0.00    +0.102 A 
ATOM     15  C   UNL     1     -31.927  28.437   3.055  0.00  0.00    +0.045 A 
ATOM     16  C   UNL     1     -32.828  29.515   3.004  0.00  0.00    +0.138 A 
ATOM     17  C   UNL     1     -30.464  28.703   3.222  0.00  0.00    +0.037 C 
ENDROOT
BRANCH   8  19
ATOM     18  O   UNL     1     -35.988  23.285   6.022  0.00  0.00    -0.295 OA
ATOM     19  C   UNL     1     -35.549  22.775   4.993  0.00  0.00    +0.165 C 
ATOM     20  C   UNL     1     -35.033  21.361   4.970  0.00  0.00    +0.073 C 
ENDBRANCH   8  19
BRANCH  14  22
ATOM     21  O   UNL     1     -35.462  31.034   3.810  0.00  0.00    -0.291 OA
ATOM     22  C   UNL     1     -35.148  30.395   2.787  0.00  0.00    +0.179 C 
ATOM     23  C   UNL     1     -35.787  30.792   1.461  0.00  0.00    +0.077 C 
ENDBRANCH  14  22
BRANCH  11  24
ATOM     24  O   UNL     1     -31.503  26.079   2.960  0.00  0.00    -0.506 OA
ATOM     25  H   UNL     1     -31.577  25.415   3.617  0.00  0.00    +0.292 HD
ENDBRANCH  11  24
BRANCH  16  26
ATOM     26  O   UNL     1     -32.357  30.793   3.114  0.00  0.00    -0.506 OA
ATOM     27  H   UNL     1     -32.132  31.277   2.345  0.00  0.00    +0.292 HD
ENDBRANCH  16  26
TORSDOF 4
ENDMDL
MODEL 5
REMARK VINA RESULT:      -6.1      2.481      3.143
REMARK  Name = 5646
REMARK  4 active torsions:
REMARK  status: ('A' for Active; 'I' for Inactive)
REMARK    1  A    between atoms: C_8  and  C_19
REMARK    2  A    between atoms: C_11  and  O_24
REMARK    3  A    between atoms: C_14  and  C_22
REMARK    4  A    between atoms: C_16  and  O_26
REMARK                            x       y       z     vdW  Elec       q    Type
REMARK                         _______ _______ _______ _____ _____    ______ ____
ROOT
ATOM      1  O   UNL     1     -36.051  23.877   0.947  0.00  0.00    -0.457 OA
ATOM      2  O   UNL     1     -37.136  19.849   2.066  0.00  0.00    -0.294 OA
ATOM      3  O   UNL     1     -37.040  20.839  -2.540  0.00  0.00    -0.290 OA
ATOM      4  C   UNL     1     -35.595  21.539   1.283  0.00  0.00    +0.128 C 
ATOM      5  C   UNL     1     -35.665  22.295   2.575  0.00  0.00    +0.059 A 
ATOM      6  C   UNL     1     -36.050  22.625   0.326  0.00  0.00    +0.135 C 
ATOM      7  C   UNL     1     -36.583  20.398   1.114  0.00  0.00    +0.175 C 
ATOM      8  C   UNL     1     -36.800  19.920  -0.323  0.00  0.00    +0.177 C 
ATOM      9  C   UNL     1     -35.892  23.647   2.296  0.00  0.00    +0.150 A 
ATOM     10  C   UNL     1     -34.163  21.079   0.997  0.00  0.00    +0.020 C 
ATOM     11  C   UNL     1     -35.484  21.873   3.880  0.00  0.00    +0.132 A 
ATOM     12  C   UNL     1     -36.568  22.438  -0.890  0.00  0.00    +0.072 C 
ATOM     13  C   UNL     1     -36.806  21.047  -1.351  0.00  0.00    +0.189 C 
ATOM     14  C   UNL     1     -35.957  24.608   3.283  0.00  0.00    +0.102 A 
ATOM     15  C   UNL     1     -35.551  22.830   4.899  0.00  0.00    +0.045 A 
ATOM     16  C   UNL     1     -35.785  24.185   4.602  0.00  0.00    +0.138 A 
ATOM     17  C   UNL     1     -35.362  22.407   6.322  0.00  0.00    +0.037 C 
ENDROOT
BRANCH   8  19
ATOM     18  O   UNL     1     -39.154  19.543  -0.431  0.00  0.00    -0.295 OA
ATOM     19  C   UNL     1     -38.022  19.061  -0.452  0.00  0.00    +0.165 C 
ATOM     20  C   UNL     1     -37.796  17.582  -0.609  0.00  0.00    +0.073 C 
ENDBRANCH   8  19
BRANCH  14  22
ATOM     21  O   UNL     1     -35.340  26.880   3.156  0.00  0.00    -0.291 OA
ATOM     22  C   UNL     1     -36.201  26.004   2.953  0.00  0.00    +0.179 C 
ATOM     23  C   UNL     1     -37.534  26.426   2.344  0.00  0.00    +0.077 C 
ENDBRANCH  14  22
BRANCH  11  24
ATOM     24  O   UNL     1     -35.227  20.571   4.167  0.00  0.00    -0.506 OA
ATOM     25  H   UNL     1     -35.804  19.900   3.858  0.00  0.00    +0.292 HD
ENDBRANCH  11  24
BRANCH  16  26
ATOM     26  O   UNL     1     -35.843  25.096   5.618  0.00  0.00    -0.506 OA
ATOM     27  H   UNL     1     -35.268  25.017   6.352  0.00  0.00    +0.292 HD
ENDBRANCH  16  26
TORSDOF 4
ENDMDL
MODEL 6
REMARK VINA RESULT:      -6.0      2.266      6.250
REMARK  Name = 5646
REMARK  4 active torsions:
REMARK  status: ('A' for Active; 'I' for Inactive)
REMARK    1  A    between atoms: C_8  and  C_19
REMARK    2  A    between atoms: C_11  and  O_24
REMARK    3  A    between atoms: C_14  and  C_22
REMARK    4  A    between atoms: C_16  and  O_26
REMARK                            x       y       z     vdW  Elec       q    Type
REMARK                         _______ _______ _______ _____ _____    ______ ____
ROOT
ATOM      1  O   UNL     1     -34.712  24.501   1.273  0.00  0.00    -0.457 OA
ATOM      2  O   UNL     1     -32.818  26.371   4.675  0.00  0.00    -0.294 OA
ATOM      3  O   UNL     1     -32.696  28.725   0.595  0.00  0.00    -0.290 OA
ATOM      4  C   UNL     1     -34.631  26.055   3.108  0.00  0.00    +0.128 C 
ATOM      5  C   UNL     1     -34.869  24.648   3.565  0.00  0.00    +0.059 A 
ATOM      6  C   UNL     1     -34.355  25.802   1.637  0.00  0.00    +0.135 C 
ATOM      7  C   UNL     1     -33.390  26.741   3.650  0.00  0.00    +0.175 C 
ATOM      8  C   UNL     1     -32.927  27.976   2.876  0.00  0.00    +0.177 C 
ATOM      9  C   UNL     1     -34.942  23.814   2.444  0.00  0.00    +0.150 A 
ATOM     10  C   UNL     1     -35.879  26.915   3.323  0.00  0.00    +0.020 C 
ATOM     11  C   UNL     1     -35.071  24.131   4.833  0.00  0.00    +0.132 A 
ATOM     12  C   UNL     1     -33.692  26.613   0.809  0.00  0.00    +0.072 C 
ATOM     13  C   UNL     1     -33.088  27.850   1.364  0.00  0.00    +0.189 C 
ATOM     14  C   UNL     1     -35.203  22.463   2.540  0.00  0.00    +0.102 A 
ATOM     15  C   UNL     1     -35.332  22.762   4.954  0.00  0.00    +0.045 A 
ATOM     16  C   UNL     1     -35.398  21.936   3.817  0.00  0.00    +0.138 A 
ATOM     17  C   UNL     1     -35.553  22.170   6.311  0.00  0.00    +0.037 C 
ENDROOT
BRANCH   8  19
ATOM     18  O   UNL     1     -30.553  27.742   2.851  0.00  0.00    -0.295 OA
ATOM     19  C   UNL     1     -31.530  28.378   3.242  0.00  0.00    +0.165 C 
ATOM     20  C   UNL     1     -31.382  29.600   4.108  0.00  0.00    +0.073 C 
ENDBRANCH   8  19
BRANCH  14  22
ATOM     21  O   UNL     1     -36.354  21.246   0.880  0.00  0.00    -0.291 OA
ATOM     22  C   UNL     1     -35.265  21.628   1.350  0.00  0.00    +0.179 C 
ATOM     23  C   UNL     1     -33.982  21.197   0.647  0.00  0.00    +0.077 C 
ENDBRANCH  14  22
BRANCH  11  24
ATOM     24  O   UNL     1     -35.040  24.932   5.930  0.00  0.00    -0.506 OA
ATOM     25  H   UNL     1     -34.331  24.866   6.538  0.00  0.00    +0.292 HD
ENDBRANCH  11  24
BRANCH  16  26
ATOM     26  O   UNL     1     -35.657  20.603   3.967  0.00  0.00    -0.506 OA
ATOM     27  H   UNL     1     -35.016  19.970   3.711  0.00  0.00    +0.292 HD
ENDBRANCH  16  26
TORSDOF 4
ENDMDL
MODEL 7
REMARK VINA RESULT:      -5.9      2.660      4.260
REMARK  Name = 5646
REMARK  4 active torsions:
REMARK  status: ('A' for Active; 'I' for Inactive)
REMARK    1  A    between atoms: C_8  and  C_19
REMARK    2  A    between atoms: C_11  and  O_24
REMARK    3  A    between atoms: C_14  and  C_22
REMARK    4  A    between atoms: C_16  and  O_26
REMARK                            x       y       z     vdW  Elec       q    Type
REMARK                         _______ _______ _______ _____ _____    ______ ____
ROOT
ATOM      1  O   UNL     1     -37.927  22.925   3.319  0.00  0.00    -0.457 OA
ATOM      2  O   UNL     1     -37.891  25.879   0.168  0.00  0.00    -0.294 OA
ATOM      3  O   UNL     1     -41.494  22.842   0.214  0.00  0.00    -0.290 OA
ATOM      4  C   UNL     1     -38.620  24.988   2.294  0.00  0.00    +0.128 C 
ATOM      5  C   UNL     1     -37.243  25.079   2.879  0.00  0.00    +0.059 A 
ATOM      6  C   UNL     1     -38.875  23.503   2.470  0.00  0.00    +0.135 C 
ATOM      7  C   UNL     1     -38.740  25.255   0.804  0.00  0.00    +0.175 C 
ATOM      8  C   UNL     1     -40.027  24.756   0.145  0.00  0.00    +0.177 C 
ATOM      9  C   UNL     1     -36.930  23.859   3.488  0.00  0.00    +0.150 A 
ATOM     10  C   UNL     1     -39.608  25.844   3.092  0.00  0.00    +0.020 C 
ATOM     11  C   UNL     1     -36.356  26.139   2.942  0.00  0.00    +0.132 A 
ATOM     12  C   UNL     1     -39.753  22.767   1.784  0.00  0.00    +0.072 C 
ATOM     13  C   UNL     1     -40.514  23.415   0.687  0.00  0.00    +0.189 C 
ATOM     14  C   UNL     1     -35.744  23.648   4.159  0.00  0.00    +0.102 A 
ATOM     15  C   UNL     1     -35.144  25.946   3.614  0.00  0.00    +0.045 A 
ATOM     16  C   UNL     1     -34.841  24.712   4.217  0.00  0.00    +0.138 A 
ATOM     17  C   UNL     1     -34.160  27.071   3.699  0.00  0.00    +0.037 C 
ENDROOT
BRANCH   8  19
ATOM     18  O   UNL     1     -40.490  25.567  -2.050  0.00  0.00    -0.295 OA
ATOM     19  C   UNL     1     -39.921  24.731  -1.349  0.00  0.00    +0.165 C 
ATOM     20  C   UNL     1     -39.084  23.634  -1.951  0.00  0.00    +0.073 C 
ENDBRANCH   8  19
BRANCH  14  22
ATOM     21  O   UNL     1     -35.167  21.363   4.088  0.00  0.00    -0.291 OA
ATOM     22  C   UNL     1     -35.451  22.363   4.775  0.00  0.00    +0.179 C 
ATOM     23  C   UNL     1     -35.488  22.213   6.292  0.00  0.00    +0.077 C 
ENDBRANCH  14  22
BRANCH  11  24
ATOM     24  O   UNL     1     -36.659  27.341   2.388  0.00  0.00    -0.506 OA
ATOM     25  H   UNL     1     -35.973  27.928   2.136  0.00  0.00    +0.292 HD
ENDBRANCH  11  24
BRANCH  16  26
ATOM     26  O   UNL     1     -33.650  24.554   4.868  0.00  0.00    -0.506 OA
ATOM     27  H   UNL     1     -33.354  23.698   5.102  0.00  0.00    +0.292 HD
ENDBRANCH  16  26
TORSDOF 4
ENDMDL
MODEL 8
REMARK VINA RESULT:      -5.8      2.909      3.862
REMARK  Name = 5646
REMARK  4 active torsions:
REMARK  status: ('A' for Active; 'I' for Inactive)
REMARK    1  A    between atoms: C_8  and  C_19
REMARK    2  A    between atoms: C_11  and  O_24
REMARK    3  A    between atoms: C_14  and  C_22
REMARK    4  A    between atoms: C_16  and  O_26
REMARK                            x       y       z     vdW  Elec       q    Type
REMARK                         _______ _______ _______ _____ _____    ______ ____
ROOT
ATOM      1  O   UNL     1     -35.860  26.688   2.123  0.00  0.00    -0.457 OA
ATOM      2  O   UNL     1     -39.385  24.518   3.355  0.00  0.00    -0.294 OA
ATOM      3  O   UNL     1     -39.907  27.647  -0.129  0.00  0.00    -0.290 OA
ATOM      4  C   UNL     1     -37.503  24.945   1.899  0.00  0.00    +0.128 C 
ATOM      5  C   UNL     1     -36.513  24.655   2.986  0.00  0.00    +0.059 A 
ATOM      6  C   UNL     1     -37.094  26.364   1.552  0.00  0.00    +0.135 C 
ATOM      7  C   UNL     1     -38.961  25.025   2.318  0.00  0.00    +0.175 C 
ATOM      8  C   UNL     1     -39.894  25.725   1.328  0.00  0.00    +0.177 C 
ATOM      9  C   UNL     1     -35.572  25.690   3.027  0.00  0.00    +0.150 A 
ATOM     10  C   UNL     1     -37.317  23.984   0.722  0.00  0.00    +0.020 C 
ATOM     11  C   UNL     1     -36.388  23.564   3.828  0.00  0.00    +0.132 A 
ATOM     12  C   UNL     1     -37.856  27.278   0.947  0.00  0.00    +0.072 C 
ATOM     13  C   UNL     1     -39.266  26.932   0.640  0.00  0.00    +0.189 C 
ATOM     14  C   UNL     1     -34.500  25.684   3.895  0.00  0.00    +0.102 A 
ATOM     15  C   UNL     1     -35.310  23.540   4.721  0.00  0.00    +0.045 A 
ATOM     16  C   UNL     1     -34.376  24.590   4.753  0.00  0.00    +0.138 A 
ATOM     17  C   UNL     1     -35.147  22.376   5.647  0.00  0.00    +0.037 C 
ENDROOT
BRANCH   8  19
ATOM     18  O   UNL     1     -41.303  26.950   2.814  0.00  0.00    -0.295 OA
ATOM     19  C   UNL     1     -41.211  26.079   1.951  0.00  0.00    +0.165 C 
ATOM     20  C   UNL     1     -42.415  25.317   1.466  0.00  0.00    +0.073 C 
ENDBRANCH   8  19
BRANCH  14  22
ATOM     21  O   UNL     1     -33.547  27.631   4.824  0.00  0.00    -0.291 OA
ATOM     22  C   UNL     1     -33.545  26.782   3.912  0.00  0.00    +0.179 C 
ATOM     23  C   UNL     1     -32.512  26.917   2.799  0.00  0.00    +0.077 C 
ENDBRANCH  14  22
BRANCH  11  24
ATOM     24  O   UNL     1     -37.271  22.534   3.777  0.00  0.00    -0.506 OA
ATOM     25  H   UNL     1     -37.014  21.715   3.402  0.00  0.00    +0.292 HD
ENDBRANCH  11  24
BRANCH  16  26
ATOM     26  O   UNL     1     -33.333  24.537   5.635  0.00  0.00    -0.506 OA
ATOM     27  H   UNL     1     -33.306  25.123   6.364  0.00  0.00    +0.292 HD
ENDBRANCH  16  26
TORSDOF 4
ENDMDL
MODEL 9
REMARK VINA RESULT:      -5.8      8.248     10.987
REMARK  Name = 5646
REMARK  4 active torsions:
REMARK  status: ('A' for Active; 'I' for Inactive)
REMARK    1  A    between atoms: C_8  and  C_19
REMARK    2  A    between atoms: C_11  and  O_24
REMARK    3  A    between atoms: C_14  and  C_22
REMARK    4  A    between atoms: C_16  and  O_26
REMARK                            x       y       z     vdW  Elec       q    Type
REMARK                         _______ _______ _______ _____ _____    ______ ____
ROOT
ATOM      1  O   UNL     1     -45.676  26.708   4.707  0.00  0.00    -0.457 OA
ATOM      2  O   UNL     1     -41.619  28.170   4.477  0.00  0.00    -0.294 OA
ATOM      3  O   UNL     1     -43.081  25.357   0.991  0.00  0.00    -0.290 OA
ATOM      4  C   UNL     1     -43.964  28.187   3.890  0.00  0.00    +0.128 C 
ATOM      5  C   UNL     1     -44.379  28.519   5.292  0.00  0.00    +0.059 A 
ATOM      6  C   UNL     1     -44.728  26.891   3.697  0.00  0.00    +0.135 C 
ATOM      7  C   UNL     1     -42.500  27.839   3.685  0.00  0.00    +0.175 C 
ATOM      8  C   UNL     1     -42.172  27.104   2.384  0.00  0.00    +0.177 C 
ATOM      9  C   UNL     1     -45.400  27.645   5.679  0.00  0.00    +0.150 A 
ATOM     10  C   UNL     1     -44.417  29.277   2.915  0.00  0.00    +0.020 C 
ATOM     11  C   UNL     1     -43.964  29.528   6.143  0.00  0.00    +0.132 A 
ATOM     12  C   UNL     1     -44.444  25.933   2.811  0.00  0.00    +0.072 C 
ATOM     13  C   UNL     1     -43.228  26.083   1.973  0.00  0.00    +0.189 C 
ATOM     14  C   UNL     1     -46.027  27.732   6.904  0.00  0.00    +0.102 A 
ATOM     15  C   UNL     1     -44.582  29.631   7.394  0.00  0.00    +0.045 A 
ATOM     16  C   UNL     1     -45.604  28.742   7.770  0.00  0.00    +0.138 A 
ATOM     17  C   UNL     1     -44.155  30.709   8.340  0.00  0.00    +0.037 C 
ENDROOT
BRANCH   8  19
ATOM     18  O   UNL     1     -39.888  26.923   1.717  0.00  0.00    -0.295 OA
ATOM     19  C   UNL     1     -40.805  26.490   2.414  0.00  0.00    +0.165 C 
ATOM     20  C   UNL     1     -40.610  25.319   3.339  0.00  0.00    +0.073 C 
ENDBRANCH   8  19
BRANCH  14  22
ATOM     21  O   UNL     1     -46.905  25.932   8.150  0.00  0.00    -0.291 OA
ATOM     22  C   UNL     1     -47.082  26.799   7.273  0.00  0.00    +0.179 C 
ATOM     23  C   UNL     1     -48.440  26.866   6.583  0.00  0.00    +0.077 C 
ENDBRANCH  14  22
BRANCH  11  24
ATOM     24  O   UNL     1     -42.999  30.407   5.769  0.00  0.00    -0.506 OA
ATOM     25  H   UNL     1     -42.120  30.111   5.641  0.00  0.00    +0.292 HD
ENDBRANCH  11  24
BRANCH  16  26
ATOM     26  O   UNL     1     -46.190  28.869   8.998  0.00  0.00    -0.506 OA
ATOM     27  H   UNL     1     -45.898  28.342   9.714  0.00  0.00    +0.292 HD
ENDBRANCH  16  26
TORSDOF 4
ENDMDL
