MODEL 1
REMARK VINA RESULT:      -5.3      0.000      0.000
REMARK  Name = 195716
REMARK  4 active torsions:
REMARK  status: ('A' for Active; 'I' for Inactive)
REMARK    1  A    between atoms: C_1  and  S_9
REMARK    2  A    between atoms: C_6  and  N_16
REMARK    3  A    between atoms: S_9  and  C_12
REMARK    4  A    between atoms: C_12  and  N_15
REMARK                            x       y       z     vdW  Elec       q    Type
REMARK                         _______ _______ _______ _____ _____    ______ ____
ROOT
ATOM      1  C   UNL     1     -35.997  22.790   3.461  0.00  0.00    +0.100 C 
ATOM      2  C   UNL     1     -35.638  22.906   4.804  0.00  0.00    -0.004 C 
ATOM      3  C   UNL     1     -36.486  23.899   2.771  0.00  0.00    -0.004 C 
ATOM      4  C   UNL     1     -35.767  24.132   5.456  0.00  0.00    +0.011 C 
ATOM      5  C   UNL     1     -36.614  25.125   3.423  0.00  0.00    +0.011 C 
ATOM      6  C   UNL     1     -36.255  25.242   4.766  0.00  0.00    +0.041 C 
ATOM      7  C   UNL     1     -35.111  21.740   5.575  0.00  0.00    +0.032 C 
ATOM      8  C   UNL     1     -36.880  23.814   1.332  0.00  0.00    +0.032 C 
ENDROOT
BRANCH   1   9
ATOM      9  S   UNL     1     -35.834  21.248   2.639  0.00  0.00    +0.037 S 
ATOM     10  O   UNL     1     -37.144  20.900   2.112  0.00  0.00    -0.167 OA
ATOM     11  O   UNL     1     -35.136  20.330   3.526  0.00  0.00    -0.167 OA
BRANCH   9  12
ATOM     12  C   UNL     1     -34.752  21.614   1.275  0.00  0.00    +0.347 C 
BRANCH  12  15
ATOM     13  O   UNL     1     -32.955  20.200   0.815  0.00  0.00    -0.129 OA
ATOM     14  O   UNL     1     -34.979  19.518   0.275  0.00  0.00    -0.129 OA
ATOM     15  N   UNL     1     -34.182  20.339   0.746  0.00  0.00    +0.060 N 
ENDBRANCH  12  15
ENDBRANCH   9  12
ENDBRANCH   1   9
BRANCH   6  16
ATOM     16  N   UNL     1     -36.386  26.482   5.427  0.00  0.00    -0.357 N 
ATOM     17  H   UNL     1     -37.276  26.799   5.706  0.00  0.00    +0.142 HD
ATOM     18  H   UNL     1     -35.589  27.029   5.609  0.00  0.00    +0.142 HD
ENDBRANCH   6  16
TORSDOF 4
ENDMDL
MODEL 2
REMARK VINA RESULT:      -5.3      0.010      2.290
REMARK  Name = 195716
REMARK  4 active torsions:
REMARK  status: ('A' for Active; 'I' for Inactive)
REMARK    1  A    between atoms: C_1  and  S_9
REMARK    2  A    between atoms: C_6  and  N_16
REMARK    3  A    between atoms: S_9  and  C_12
REMARK    4  A    between atoms: C_12  and  N_15
REMARK                            x       y       z     vdW  Elec       q    Type
REMARK                         _______ _______ _______ _____ _____    ______ ____
ROOT
ATOM      1  C   UNL     1     -36.005  22.794   3.459  0.00  0.00    +0.100 C 
ATOM      2  C   UNL     1     -36.498  23.903   2.772  0.00  0.00    -0.004 C 
ATOM      3  C   UNL     1     -35.640  22.910   4.800  0.00  0.00    -0.004 C 
ATOM      4  C   UNL     1     -36.628  25.128   3.426  0.00  0.00    +0.011 C 
ATOM      5  C   UNL     1     -35.771  24.135   5.455  0.00  0.00    +0.011 C 
ATOM      6  C   UNL     1     -36.264  25.244   4.769  0.00  0.00    +0.041 C 
ATOM      7  C   UNL     1     -36.898  23.816   1.335  0.00  0.00    +0.032 C 
ATOM      8  C   UNL     1     -35.109  21.744   5.570  0.00  0.00    +0.032 C 
ENDROOT
BRANCH   1   9
ATOM      9  S   UNL     1     -35.842  21.252   2.636  0.00  0.00    +0.037 S 
ATOM     10  O   UNL     1     -37.151  20.905   2.106  0.00  0.00    -0.167 OA
ATOM     11  O   UNL     1     -35.146  20.334   3.523  0.00  0.00    -0.167 OA
BRANCH   9  12
ATOM     12  C   UNL     1     -34.757  21.619   1.274  0.00  0.00    +0.347 C 
BRANCH  12  15
ATOM     13  O   UNL     1     -34.987  19.525   0.273  0.00  0.00    -0.129 OA
ATOM     14  O   UNL     1     -32.962  20.201   0.816  0.00  0.00    -0.129 OA
ATOM     15  N   UNL     1     -34.189  20.344   0.744  0.00  0.00    +0.060 N 
ENDBRANCH  12  15
ENDBRANCH   9  12
ENDBRANCH   1   9
BRANCH   6  16
ATOM     16  N   UNL     1     -36.395  26.483   5.429  0.00  0.00    -0.357 N 
ATOM     17  H   UNL     1     -37.275  26.921   5.484  0.00  0.00    +0.142 HD
ATOM     18  H   UNL     1     -35.606  26.909   5.836  0.00  0.00    +0.142 HD
ENDBRANCH   6  16
TORSDOF 4
ENDMDL
MODEL 3
REMARK VINA RESULT:      -5.3      3.176      5.328
REMARK  Name = 195716
REMARK  4 active torsions:
REMARK  status: ('A' for Active; 'I' for Inactive)
REMARK    1  A    between atoms: C_1  and  S_9
REMARK    2  A    between atoms: C_6  and  N_16
REMARK    3  A    between atoms: S_9  and  C_12
REMARK    4  A    between atoms: C_12  and  N_15
REMARK                            x       y       z     vdW  Elec       q    Type
REMARK                         _______ _______ _______ _____ _____    ______ ____
ROOT
ATOM      1  C   UNL     1     -36.119  22.945   3.481  0.00  0.00    +0.100 C 
ATOM      2  C   UNL     1     -36.396  22.852   2.117  0.00  0.00    -0.004 C 
ATOM      3  C   UNL     1     -35.513  21.878   4.143  0.00  0.00    -0.004 C 
ATOM      4  C   UNL     1     -36.066  21.693   1.415  0.00  0.00    +0.011 C 
ATOM      5  C   UNL     1     -35.182  20.718   3.442  0.00  0.00    +0.011 C 
ATOM      6  C   UNL     1     -35.458  20.626   2.078  0.00  0.00    +0.041 C 
ATOM      7  C   UNL     1     -37.044  23.975   1.374  0.00  0.00    +0.032 C 
ATOM      8  C   UNL     1     -35.200  21.940   5.604  0.00  0.00    +0.032 C 
ENDROOT
BRANCH   1   9
ATOM      9  S   UNL     1     -36.534  24.404   4.364  0.00  0.00    +0.037 S 
ATOM     10  O   UNL     1     -36.163  24.186   5.754  0.00  0.00    -0.167 OA
ATOM     11  O   UNL     1     -37.898  24.772   4.021  0.00  0.00    -0.167 OA
BRANCH   9  12
ATOM     12  C   UNL     1     -35.449  25.633   3.673  0.00  0.00    +0.347 C 
BRANCH  12  15
ATOM     13  O   UNL     1     -33.350  24.986   4.460  0.00  0.00    -0.129 OA
ATOM     14  O   UNL     1     -34.300  26.756   5.365  0.00  0.00    -0.129 OA
ATOM     15  N   UNL     1     -34.269  25.806   4.572  0.00  0.00    +0.060 N 
ENDBRANCH  12  15
ENDBRANCH   9  12
ENDBRANCH   1   9
BRANCH   6  16
ATOM     16  N   UNL     1     -35.125  19.453   1.368  0.00  0.00    -0.357 N 
ATOM     17  H   UNL     1     -34.936  18.619   1.856  0.00  0.00    +0.142 HD
ATOM     18  H   UNL     1     -35.083  19.468   0.385  0.00  0.00    +0.142 HD
ENDBRANCH   6  16
TORSDOF 4
ENDMDL
MODEL 4
REMARK VINA RESULT:      -5.3      3.183      4.878
REMARK  Name = 195716
REMARK  4 active torsions:
REMARK  status: ('A' for Active; 'I' for Inactive)
REMARK    1  A    between atoms: C_1  and  S_9
REMARK    2  A    between atoms: C_6  and  N_16
REMARK    3  A    between atoms: S_9  and  C_12
REMARK    4  A    between atoms: C_12  and  N_15
REMARK                            x       y       z     vdW  Elec       q    Type
REMARK                         _______ _______ _______ _____ _____    ______ ____
ROOT
ATOM      1  C   UNL     1     -36.200  22.943   3.412  0.00  0.00    +0.100 C 
ATOM      2  C   UNL     1     -35.552  21.885   4.051  0.00  0.00    -0.004 C 
ATOM      3  C   UNL     1     -36.550  22.835   2.066  0.00  0.00    -0.004 C 
ATOM      4  C   UNL     1     -35.256  20.720   3.345  0.00  0.00    +0.011 C 
ATOM      5  C   UNL     1     -36.254  21.670   1.360  0.00  0.00    +0.011 C 
ATOM      6  C   UNL     1     -35.607  20.612   1.998  0.00  0.00    +0.041 C 
ATOM      7  C   UNL     1     -35.163  21.965   5.491  0.00  0.00    +0.032 C 
ATOM      8  C   UNL     1     -37.244  23.947   1.347  0.00  0.00    +0.032 C 
ENDROOT
BRANCH   1   9
ATOM      9  S   UNL     1     -36.574  24.410   4.301  0.00  0.00    +0.037 S 
ATOM     10  O   UNL     1     -36.200  24.180   5.688  0.00  0.00    -0.167 OA
ATOM     11  O   UNL     1     -37.930  24.812   3.966  0.00  0.00    -0.167 OA
BRANCH   9  12
ATOM     12  C   UNL     1     -35.463  25.613   3.605  0.00  0.00    +0.347 C 
BRANCH  12  15
ATOM     13  O   UNL     1     -33.391  24.985   4.475  0.00  0.00    -0.129 OA
ATOM     14  O   UNL     1     -34.362  26.784   5.296  0.00  0.00    -0.129 OA
ATOM     15  N   UNL     1     -34.311  25.811   4.534  0.00  0.00    +0.060 N 
ENDBRANCH  12  15
ENDBRANCH   9  12
ENDBRANCH   1   9
BRANCH   6  16
ATOM     16  N   UNL     1     -35.306  19.433   1.284  0.00  0.00    -0.357 N 
ATOM     17  H   UNL     1     -35.982  19.031   0.693  0.00  0.00    +0.142 HD
ATOM     18  H   UNL     1     -34.420  19.014   1.377  0.00  0.00    +0.142 HD
ENDBRANCH   6  16
TORSDOF 4
ENDMDL
MODEL 5
REMARK VINA RESULT:      -5.3      3.458      5.075
REMARK  Name = 195716
REMARK  4 active torsions:
REMARK  status: ('A' for Active; 'I' for Inactive)
REMARK    1  A    between atoms: C_1  and  S_9
REMARK    2  A    between atoms: C_6  and  N_16
REMARK    3  A    between atoms: S_9  and  C_12
REMARK    4  A    between atoms: C_12  and  N_15
REMARK                            x       y       z     vdW  Elec       q    Type
REMARK                         _______ _______ _______ _____ _____    ______ ____
ROOT
ATOM      1  C   UNL     1     -35.967  24.172   3.417  0.00  0.00    +0.100 C 
ATOM      2  C   UNL     1     -35.799  22.875   2.931  0.00  0.00    -0.004 C 
ATOM      3  C   UNL     1     -35.847  24.426   4.783  0.00  0.00    -0.004 C 
ATOM      4  C   UNL     1     -35.509  21.833   3.811  0.00  0.00    +0.011 C 
ATOM      5  C   UNL     1     -35.558  23.384   5.663  0.00  0.00    +0.011 C 
ATOM      6  C   UNL     1     -35.388  22.087   5.178  0.00  0.00    +0.041 C 
ATOM      7  C   UNL     1     -35.920  22.565   1.474  0.00  0.00    +0.032 C 
ATOM      8  C   UNL     1     -36.020  25.802   5.341  0.00  0.00    +0.032 C 
ENDROOT
BRANCH   1   9
ATOM      9  S   UNL     1     -36.331  25.484   2.309  0.00  0.00    +0.037 S 
ATOM     10  O   UNL     1     -35.417  25.365   1.184  0.00  0.00    -0.167 OA
ATOM     11  O   UNL     1     -36.393  26.720   3.072  0.00  0.00    -0.167 OA
BRANCH   9  12
ATOM     12  C   UNL     1     -37.977  25.110   1.746  0.00  0.00    +0.347 C 
BRANCH  12  15
ATOM     13  O   UNL     1     -39.165  24.595   3.686  0.00  0.00    -0.129 OA
ATOM     14  O   UNL     1     -39.479  26.573   2.768  0.00  0.00    -0.129 OA
ATOM     15  N   UNL     1     -38.953  25.455   2.822  0.00  0.00    +0.060 N 
ENDBRANCH  12  15
ENDBRANCH   9  12
ENDBRANCH   1   9
BRANCH   6  16
ATOM     16  N   UNL     1     -35.097  21.032   6.068  0.00  0.00    -0.357 N 
ATOM     17  H   UNL     1     -34.368  21.128   6.723  0.00  0.00    +0.142 HD
ATOM     18  H   UNL     1     -35.623  20.201   6.035  0.00  0.00    +0.142 HD
ENDBRANCH   6  16
TORSDOF 4
ENDMDL
MODEL 6
REMARK VINA RESULT:      -5.3      3.458      4.897
REMARK  Name = 195716
REMARK  4 active torsions:
REMARK  status: ('A' for Active; 'I' for Inactive)
REMARK    1  A    between atoms: C_1  and  S_9
REMARK    2  A    between atoms: C_6  and  N_16
REMARK    3  A    between atoms: S_9  and  C_12
REMARK    4  A    between atoms: C_12  and  N_15
REMARK                            x       y       z     vdW  Elec       q    Type
REMARK                         _______ _______ _______ _____ _____    ______ ____
ROOT
ATOM      1  C   UNL     1     -35.965  24.172   3.423  0.00  0.00    +0.100 C 
ATOM      2  C   UNL     1     -35.842  24.424   4.789  0.00  0.00    -0.004 C 
ATOM      3  C   UNL     1     -35.798  22.876   2.934  0.00  0.00    -0.004 C 
ATOM      4  C   UNL     1     -35.555  23.379   5.667  0.00  0.00    +0.011 C 
ATOM      5  C   UNL     1     -35.510  21.832   3.812  0.00  0.00    +0.011 C 
ATOM      6  C   UNL     1     -35.389  22.082   5.179  0.00  0.00    +0.041 C 
ATOM      7  C   UNL     1     -36.014  25.798   5.348  0.00  0.00    +0.032 C 
ATOM      8  C   UNL     1     -35.922  22.568   1.477  0.00  0.00    +0.032 C 
ENDROOT
BRANCH   1   9
ATOM      9  S   UNL     1     -36.328  25.486   2.317  0.00  0.00    +0.037 S 
ATOM     10  O   UNL     1     -35.410  25.371   1.195  0.00  0.00    -0.167 OA
ATOM     11  O   UNL     1     -36.395  26.720   3.083  0.00  0.00    -0.167 OA
BRANCH   9  12
ATOM     12  C   UNL     1     -37.971  25.110   1.747  0.00  0.00    +0.347 C 
BRANCH  12  15
ATOM     13  O   UNL     1     -39.480  26.567   2.769  0.00  0.00    -0.129 OA
ATOM     14  O   UNL     1     -39.160  24.589   3.686  0.00  0.00    -0.129 OA
ATOM     15  N   UNL     1     -38.951  25.449   2.822  0.00  0.00    +0.060 N 
ENDBRANCH  12  15
ENDBRANCH   9  12
ENDBRANCH   1   9
BRANCH   6  16
ATOM     16  N   UNL     1     -35.096  21.026   6.067  0.00  0.00    -0.357 N 
ATOM     17  H   UNL     1     -35.394  21.075   7.004  0.00  0.00    +0.142 HD
ATOM     18  H   UNL     1     -34.595  20.241   5.750  0.00  0.00    +0.142 HD
ENDBRANCH   6  16
TORSDOF 4
ENDMDL
MODEL 7
REMARK VINA RESULT:      -5.3      1.368      2.792
REMARK  Name = 195716
REMARK  4 active torsions:
REMARK  status: ('A' for Active; 'I' for Inactive)
REMARK    1  A    between atoms: C_1  and  S_9
REMARK    2  A    between atoms: C_6  and  N_16
REMARK    3  A    between atoms: S_9  and  C_12
REMARK    4  A    between atoms: C_12  and  N_15
REMARK                            x       y       z     vdW  Elec       q    Type
REMARK                         _______ _______ _______ _____ _____    ______ ____
ROOT
ATOM      1  C   UNL     1     -35.798  22.918   3.411  0.00  0.00    +0.100 C 
ATOM      2  C   UNL     1     -36.195  24.056   2.707  0.00  0.00    -0.004 C 
ATOM      3  C   UNL     1     -35.595  22.986   4.789  0.00  0.00    -0.004 C 
ATOM      4  C   UNL     1     -36.391  25.260   3.382  0.00  0.00    +0.011 C 
ATOM      5  C   UNL     1     -35.791  24.191   5.464  0.00  0.00    +0.011 C 
ATOM      6  C   UNL     1     -36.189  25.328   4.762  0.00  0.00    +0.041 C 
ATOM      7  C   UNL     1     -36.421  24.021   1.231  0.00  0.00    +0.032 C 
ATOM      8  C   UNL     1     -35.170  21.789   5.577  0.00  0.00    +0.032 C 
ENDROOT
BRANCH   1   9
ATOM      9  S   UNL     1     -35.551  21.402   2.561  0.00  0.00    +0.037 S 
ATOM     10  O   UNL     1     -35.225  20.396   3.560  0.00  0.00    -0.167 OA
ATOM     11  O   UNL     1     -34.650  21.645   1.447  0.00  0.00    -0.167 OA
BRANCH   9  12
ATOM     12  C   UNL     1     -37.158  21.035   1.890  0.00  0.00    +0.347 C 
BRANCH  12  15
ATOM     13  O   UNL     1     -37.255  20.900  -0.437  0.00  0.00    -0.129 OA
ATOM     14  O   UNL     1     -36.610  19.115   0.682  0.00  0.00    -0.129 OA
ATOM     15  N   UNL     1     -36.993  20.289   0.607  0.00  0.00    +0.060 N 
ENDBRANCH  12  15
ENDBRANCH   9  12
ENDBRANCH   1   9
BRANCH   6  16
ATOM     16  N   UNL     1     -36.386  26.547   5.444  0.00  0.00    -0.357 N 
ATOM     17  H   UNL     1     -37.013  27.215   5.085  0.00  0.00    +0.142 HD
ATOM     18  H   UNL     1     -35.897  26.728   6.278  0.00  0.00    +0.142 HD
ENDBRANCH   6  16
TORSDOF 4
ENDMDL
MODEL 8
REMARK VINA RESULT:      -5.1      3.767      5.266
REMARK  Name = 195716
REMARK  4 active torsions:
REMARK  status: ('A' for Active; 'I' for Inactive)
REMARK    1  A    between atoms: C_1  and  S_9
REMARK    2  A    between atoms: C_6  and  N_16
REMARK    3  A    between atoms: S_9  and  C_12
REMARK    4  A    between atoms: C_12  and  N_15
REMARK                            x       y       z     vdW  Elec       q    Type
REMARK                         _______ _______ _______ _____ _____    ______ ____
ROOT
ATOM      1  C   UNL     1     -35.592  23.731   3.568  0.00  0.00    +0.100 C 
ATOM      2  C   UNL     1     -35.445  22.620   4.399  0.00  0.00    -0.004 C 
ATOM      3  C   UNL     1     -35.832  23.556   2.205  0.00  0.00    -0.004 C 
ATOM      4  C   UNL     1     -35.541  21.334   3.866  0.00  0.00    +0.011 C 
ATOM      5  C   UNL     1     -35.928  22.271   1.673  0.00  0.00    +0.011 C 
ATOM      6  C   UNL     1     -35.782  21.159   2.503  0.00  0.00    +0.041 C 
ATOM      7  C   UNL     1     -35.187  22.768   5.862  0.00  0.00    +0.032 C 
ATOM      8  C   UNL     1     -35.996  24.722   1.284  0.00  0.00    +0.032 C 
ENDROOT
BRANCH   1   9
ATOM      9  S   UNL     1     -35.473  25.349   4.237  0.00  0.00    +0.037 S 
ATOM     10  O   UNL     1     -35.830  25.261   5.645  0.00  0.00    -0.167 OA
ATOM     11  O   UNL     1     -36.189  26.260   3.358  0.00  0.00    -0.167 OA
BRANCH   9  12
ATOM     12  C   UNL     1     -33.738  25.725   4.114  0.00  0.00    +0.347 C 
BRANCH  12  15
ATOM     13  O   UNL     1     -32.964  26.703   6.085  0.00  0.00    -0.129 OA
ATOM     14  O   UNL     1     -33.676  28.029   4.476  0.00  0.00    -0.129 OA
ATOM     15  N   UNL     1     -33.434  26.917   4.961  0.00  0.00    +0.060 N 
ENDBRANCH  12  15
ENDBRANCH   9  12
ENDBRANCH   1   9
BRANCH   6  16
ATOM     16  N   UNL     1     -35.877  19.859   1.965  0.00  0.00    -0.357 N 
ATOM     17  H   UNL     1     -35.261  19.576   1.251  0.00  0.00    +0.142 HD
ATOM     18  H   UNL     1     -36.558  19.235   2.304  0.00  0.00    +0.142 HD
ENDBRANCH   6  16
TORSDOF 4
ENDMDL
MODEL 9
REMARK VINA RESULT:      -5.0      2.228      3.370
REMARK  Name = 195716
REMARK  4 active torsions:
REMARK  status: ('A' for Active; 'I' for Inactive)
REMARK    1  A    between atoms: C_1  and  S_9
REMARK    2  A    between atoms: C_6  and  N_16
REMARK    3  A    between atoms: S_9  and  C_12
REMARK    4  A    between atoms: C_12  and  N_15
REMARK                            x       y       z     vdW  Elec       q    Type
REMARK                         _______ _______ _______ _____ _____    ______ ____
ROOT
ATOM      1  C   UNL     1     -35.372  24.734   3.629  0.00  0.00    +0.100 C 
ATOM      2  C   UNL     1     -34.919  25.870   2.957  0.00  0.00    -0.004 C 
ATOM      3  C   UNL     1     -35.025  24.528   4.963  0.00  0.00    -0.004 C 
ATOM      4  C   UNL     1     -34.120  26.800   3.621  0.00  0.00    +0.011 C 
ATOM      5  C   UNL     1     -34.226  25.459   5.628  0.00  0.00    +0.011 C 
ATOM      6  C   UNL     1     -33.774  26.595   4.958  0.00  0.00    +0.041 C 
ATOM      7  C   UNL     1     -35.270  26.123   1.527  0.00  0.00    +0.032 C 
ATOM      8  C   UNL     1     -35.491  23.324   5.716  0.00  0.00    +0.032 C 
ENDROOT
BRANCH   1   9
ATOM      9  S   UNL     1     -36.377  23.562   2.793  0.00  0.00    +0.037 S 
ATOM     10  O   UNL     1     -36.940  24.229   1.629  0.00  0.00    -0.167 OA
ATOM     11  O   UNL     1     -37.252  22.934   3.770  0.00  0.00    -0.167 OA
BRANCH   9  12
ATOM     12  C   UNL     1     -35.214  22.336   2.237  0.00  0.00    +0.347 C 
BRANCH  12  15
ATOM     13  O   UNL     1     -35.198  20.491   3.666  0.00  0.00    -0.129 OA
ATOM     14  O   UNL     1     -36.557  20.453   1.932  0.00  0.00    -0.129 OA
ATOM     15  N   UNL     1     -35.697  20.983   2.645  0.00  0.00    +0.060 N 
ENDBRANCH  12  15
ENDBRANCH   9  12
ENDBRANCH   1   9
BRANCH   6  16
ATOM     16  N   UNL     1     -32.965  27.536   5.629  0.00  0.00    -0.357 N 
ATOM     17  H   UNL     1     -31.989  27.519   5.509  0.00  0.00    +0.142 HD
ATOM     18  H   UNL     1     -33.378  28.210   6.216  0.00  0.00    +0.142 HD
ENDBRANCH   6  16
TORSDOF 4
ENDMDL
