MODEL 1
REMARK VINA RESULT:      -5.9      0.000      0.000
REMARK  Name = 189853
REMARK  12 active torsions:
REMARK  status: ('A' for Active; 'I' for Inactive)
REMARK    1  A    between atoms: N_2  and  C_5
REMARK    2  A    between atoms: C_3  and  C_18
REMARK    3  A    between atoms: C_5  and  C_7
REMARK    4  A    between atoms: C_5  and  C_10
REMARK    5  A    between atoms: C_7  and  C_9
REMARK    6  A    between atoms: C_10  and  C_11
REMARK    7  A    between atoms: C_11  and  C_12
REMARK    8  A    between atoms: C_12  and  C_13
REMARK    9  A    between atoms: C_13  and  N_14
REMARK   10  A    between atoms: C_18  and  N_20
REMARK   11  A    between atoms: C_18  and  C_24
REMARK   12  A    between atoms: C_24  and  C_25
REMARK                            x       y       z     vdW  Elec       q    Type
REMARK                         _______ _______ _______ _____ _____    ______ ____
ROOT
ATOM      1  O   UNL     1     -35.297  20.576   3.716  0.00  0.00    -0.273 OA
ATOM      2  N   UNL     1     -36.232  22.038   2.172  0.00  0.00    -0.298 N 
ATOM      3  C   UNL     1     -35.623  20.851   2.563  0.00  0.00    +0.241 C 
ATOM      4  H   UNL     1     -36.452  22.158   1.219  0.00  0.00    +0.150 HD
ENDROOT
BRANCH   2   5
ATOM      5  C   UNL     1     -36.559  23.102   3.085  0.00  0.00    +0.131 C 
BRANCH   5   7
ATOM      6  O   UNL     1     -38.615  24.266   3.547  0.00  0.00    -0.293 OA
ATOM      7  C   UNL     1     -37.995  23.518   2.790  0.00  0.00    +0.185 C 
BRANCH   7   9
ATOM      8 CL   UNL     1     -39.627  21.528   1.951  0.00  0.00    -0.105 Cl
ATOM      9  C   UNL     1     -38.607  22.915   1.544  0.00  0.00    +0.161 C 
ENDBRANCH   7   9
ENDBRANCH   5   7
BRANCH   5  10
ATOM     10  C   UNL     1     -35.622  24.304   2.944  0.00  0.00    +0.027 C 
BRANCH  10  11
ATOM     11  C   UNL     1     -34.857  24.600   4.238  0.00  0.00    -0.000 C 
BRANCH  11  12
ATOM     12  C   UNL     1     -35.572  24.095   5.496  0.00  0.00    -0.024 C 
BRANCH  12  13
ATOM     13  C   UNL     1     -34.952  22.822   6.075  0.00  0.00    -0.086 C 
BRANCH  13  14
ATOM     14  N   UNL     1     -35.997  21.855   6.394  0.00  0.00    +0.380 N 
ATOM     15  H   UNL     1     -36.894  22.334   6.463  0.00  0.00    -0.089 HD
ATOM     16  H   UNL     1     -35.782  21.404   7.284  0.00  0.00    -0.089 HD
ATOM     17  H   UNL     1     -36.044  21.149   5.658  0.00  0.00    -0.089 HD
ENDBRANCH  13  14
ENDBRANCH  12  13
ENDBRANCH  11  12
ENDBRANCH  10  11
ENDBRANCH   5  10
ENDBRANCH   2   5
BRANCH   3  18
ATOM     18  C   UNL     1     -35.345  19.930   1.379  0.00  0.00    +0.153 C 
BRANCH  18  20
ATOM     19  O   UNL     1     -36.159  17.662  -0.239  0.00  0.00    -0.275 OA
ATOM     20  N   UNL     1     -36.589  19.761   0.671  0.00  0.00    -0.298 N 
ATOM     21  C   UNL     1     -36.890  18.636  -0.080  0.00  0.00    +0.223 C 
ATOM     22  C   UNL     1     -38.264  18.707  -0.694  0.00  0.00    +0.095 C 
ATOM     23  H   UNL     1     -37.259  20.481   0.724  0.00  0.00    +0.150 HD
ENDBRANCH  18  20
BRANCH  18  24
ATOM     24  C   UNL     1     -34.248  20.524   0.489  0.00  0.00    +0.055 C 
BRANCH  24  25
ATOM     25  C   UNL     1     -32.960  19.739   0.548  0.00  0.00    -0.020 C 
ATOM     26  C   UNL     1     -31.824  20.212  -0.109  0.00  0.00    -0.004 C 
ATOM     27  C   UNL     1     -32.905  18.541   1.260  0.00  0.00    -0.004 C 
ATOM     28  C   UNL     1     -30.633  19.488  -0.055  0.00  0.00    -0.000 C 
ATOM     29  C   UNL     1     -31.714  17.817   1.315  0.00  0.00    -0.000 C 
ATOM     30  C   UNL     1     -30.579  18.290   0.657  0.00  0.00    -0.000 C 
ENDBRANCH  24  25
ENDBRANCH  18  24
ENDBRANCH   3  18
TORSDOF 12
ENDMDL
MODEL 2
REMARK VINA RESULT:      -5.7      1.957      2.183
REMARK  Name = 189853
REMARK  12 active torsions:
REMARK  status: ('A' for Active; 'I' for Inactive)
REMARK    1  A    between atoms: N_2  and  C_5
REMARK    2  A    between atoms: C_3  and  C_18
REMARK    3  A    between atoms: C_5  and  C_7
REMARK    4  A    between atoms: C_5  and  C_10
REMARK    5  A    between atoms: C_7  and  C_9
REMARK    6  A    between atoms: C_10  and  C_11
REMARK    7  A    between atoms: C_11  and  C_12
REMARK    8  A    between atoms: C_12  and  C_13
REMARK    9  A    between atoms: C_13  and  N_14
REMARK   10  A    between atoms: C_18  and  N_20
REMARK   11  A    between atoms: C_18  and  C_24
REMARK   12  A    between atoms: C_24  and  C_25
REMARK                            x       y       z     vdW  Elec       q    Type
REMARK                         _______ _______ _______ _____ _____    ______ ____
ROOT
ATOM      1  O   UNL     1     -35.198  20.593   4.080  0.00  0.00    -0.273 OA
ATOM      2  N   UNL     1     -36.106  22.286   2.774  0.00  0.00    -0.298 N 
ATOM      3  C   UNL     1     -35.554  21.027   2.987  0.00  0.00    +0.241 C 
ATOM      4  H   UNL     1     -36.357  22.535   1.854  0.00  0.00    +0.150 HD
ENDROOT
BRANCH   2   5
ATOM      5  C   UNL     1     -36.327  23.245   3.825  0.00  0.00    +0.131 C 
BRANCH   5   7
ATOM      6  O   UNL     1     -38.403  24.465   3.854  0.00  0.00    -0.293 OA
ATOM      7  C   UNL     1     -37.326  24.267   3.292  0.00  0.00    +0.185 C 
BRANCH   7   9
ATOM      8 CL   UNL     1     -36.796  26.719   2.277  0.00  0.00    -0.105 Cl
ATOM      9  C   UNL     1     -36.920  24.973   2.016  0.00  0.00    +0.161 C 
ENDBRANCH   7   9
ENDBRANCH   5   7
BRANCH   5  10
ATOM     10  C   UNL     1     -35.039  23.945   4.262  0.00  0.00    +0.027 C 
BRANCH  10  11
ATOM     11  C   UNL     1     -35.204  24.691   5.590  0.00  0.00    -0.000 C 
BRANCH  11  12
ATOM     12  C   UNL     1     -34.347  25.957   5.687  0.00  0.00    -0.024 C 
BRANCH  12  13
ATOM     13  C   UNL     1     -33.736  26.378   4.351  0.00  0.00    -0.086 C 
BRANCH  13  14
ATOM     14  N   UNL     1     -33.957  27.802   4.123  0.00  0.00    +0.380 N 
ATOM     15  H   UNL     1     -34.893  28.056   4.441  0.00  0.00    -0.089 HD
ATOM     16  H   UNL     1     -33.869  28.006   3.127  0.00  0.00    -0.089 HD
ATOM     17  H   UNL     1     -33.264  28.342   4.643  0.00  0.00    -0.089 HD
ENDBRANCH  13  14
ENDBRANCH  12  13
ENDBRANCH  11  12
ENDBRANCH  10  11
ENDBRANCH   5  10
ENDBRANCH   2   5
BRANCH   3  18
ATOM     18  C   UNL     1     -35.384  20.246   1.688  0.00  0.00    +0.153 C 
BRANCH  18  20
ATOM     19  O   UNL     1     -36.472  18.249  -0.115  0.00  0.00    -0.275 OA
ATOM     20  N   UNL     1     -36.649  20.285   0.999  0.00  0.00    -0.298 N 
ATOM     21  C   UNL     1     -37.087  19.278   0.153  0.00  0.00    +0.223 C 
ATOM     22  C   UNL     1     -38.452  19.560  -0.416  0.00  0.00    +0.095 C 
ATOM     23  H   UNL     1     -37.233  21.067   1.137  0.00  0.00    +0.150 HD
ENDBRANCH  18  20
BRANCH  18  24
ATOM     24  C   UNL     1     -34.249  20.848   0.851  0.00  0.00    +0.055 C 
BRANCH  24  25
ATOM     25  C   UNL     1     -33.051  19.936   0.751  0.00  0.00    -0.020 C 
ATOM     26  C   UNL     1     -31.924  20.341   0.034  0.00  0.00    -0.004 C 
ATOM     27  C   UNL     1     -33.070  18.688   1.374  0.00  0.00    -0.004 C 
ATOM     28  C   UNL     1     -30.817  19.498  -0.059  0.00  0.00    -0.000 C 
ATOM     29  C   UNL     1     -31.962  17.846   1.281  0.00  0.00    -0.000 C 
ATOM     30  C   UNL     1     -30.836  18.251   0.565  0.00  0.00    -0.000 C 
ENDBRANCH  24  25
ENDBRANCH  18  24
ENDBRANCH   3  18
TORSDOF 12
ENDMDL
MODEL 3
REMARK VINA RESULT:      -5.7      2.405      3.052
REMARK  Name = 189853
REMARK  12 active torsions:
REMARK  status: ('A' for Active; 'I' for Inactive)
REMARK    1  A    between atoms: N_2  and  C_5
REMARK    2  A    between atoms: C_3  and  C_18
REMARK    3  A    between atoms: C_5  and  C_7
REMARK    4  A    between atoms: C_5  and  C_10
REMARK    5  A    between atoms: C_7  and  C_9
REMARK    6  A    between atoms: C_10  and  C_11
REMARK    7  A    between atoms: C_11  and  C_12
REMARK    8  A    between atoms: C_12  and  C_13
REMARK    9  A    between atoms: C_13  and  N_14
REMARK   10  A    between atoms: C_18  and  N_20
REMARK   11  A    between atoms: C_18  and  C_24
REMARK   12  A    between atoms: C_24  and  C_25
REMARK                            x       y       z     vdW  Elec       q    Type
REMARK                         _______ _______ _______ _____ _____    ______ ____
ROOT
ATOM      1  O   UNL     1     -35.195  21.124   4.649  0.00  0.00    -0.273 OA
ATOM      2  N   UNL     1     -35.815  23.137   3.668  0.00  0.00    -0.298 N 
ATOM      3  C   UNL     1     -35.663  21.755   3.703  0.00  0.00    +0.241 C 
ATOM      4  H   UNL     1     -36.202  23.544   2.859  0.00  0.00    +0.150 HD
ENDROOT
BRANCH   2   5
ATOM      5  C   UNL     1     -35.436  24.006   4.752  0.00  0.00    +0.131 C 
BRANCH   5   7
ATOM      6  O   UNL     1     -36.315  26.101   5.549  0.00  0.00    -0.293 OA
ATOM      7  C   UNL     1     -36.449  25.145   4.785  0.00  0.00    +0.185 C 
BRANCH   7   9
ATOM      8 CL   UNL     1     -37.513  26.111   2.492  0.00  0.00    -0.105 Cl
ATOM      9  C   UNL     1     -37.635  24.992   3.857  0.00  0.00    +0.161 C 
ENDBRANCH   7   9
ENDBRANCH   5   7
BRANCH   5  10
ATOM     10  C   UNL     1     -34.021  24.563   4.590  0.00  0.00    +0.027 C 
BRANCH  10  11
ATOM     11  C   UNL     1     -33.789  25.164   3.199  0.00  0.00    -0.000 C 
BRANCH  11  12
ATOM     12  C   UNL     1     -33.241  26.594   3.239  0.00  0.00    -0.024 C 
BRANCH  12  13
ATOM     13  C   UNL     1     -34.200  27.626   2.644  0.00  0.00    -0.086 C 
BRANCH  13  14
ATOM     14  N   UNL     1     -35.001  28.236   3.700  0.00  0.00    +0.380 N 
ATOM     15  H   UNL     1     -35.966  27.917   3.620  0.00  0.00    -0.089 HD
ATOM     16  H   UNL     1     -34.969  29.252   3.609  0.00  0.00    -0.089 HD
ATOM     17  H   UNL     1     -34.628  27.964   4.610  0.00  0.00    -0.089 HD
ENDBRANCH  13  14
ENDBRANCH  12  13
ENDBRANCH  11  12
ENDBRANCH  10  11
ENDBRANCH   5  10
ENDBRANCH   2   5
BRANCH   3  18
ATOM     18  C   UNL     1     -36.095  21.096   2.398  0.00  0.00    +0.153 C 
BRANCH  18  20
ATOM     19  O   UNL     1     -37.880  20.053   0.360  0.00  0.00    -0.275 OA
ATOM     20  N   UNL     1     -37.478  21.443   2.183  0.00  0.00    -0.298 N 
ATOM     21  C   UNL     1     -38.255  20.889   1.178  0.00  0.00    +0.223 C 
ATOM     22  C   UNL     1     -39.668  21.410   1.192  0.00  0.00    +0.095 C 
ATOM     23  H   UNL     1     -37.891  22.109   2.781  0.00  0.00    +0.150 HD
ENDBRANCH  18  20
BRANCH  18  24
ATOM     24  C   UNL     1     -35.196  21.557   1.245  0.00  0.00    +0.055 C 
BRANCH  24  25
ATOM     25  C   UNL     1     -34.020  20.638   1.019  0.00  0.00    -0.020 C 
ATOM     26  C   UNL     1     -32.951  21.056   0.226  0.00  0.00    -0.004 C 
ATOM     27  C   UNL     1     -34.002  19.372   1.603  0.00  0.00    -0.004 C 
ATOM     28  C   UNL     1     -31.864  20.208   0.017  0.00  0.00    -0.000 C 
ATOM     29  C   UNL     1     -32.915  18.523   1.393  0.00  0.00    -0.000 C 
ATOM     30  C   UNL     1     -31.846  18.941   0.601  0.00  0.00    -0.000 C 
ENDBRANCH  24  25
ENDBRANCH  18  24
ENDBRANCH   3  18
TORSDOF 12
ENDMDL
MODEL 4
REMARK VINA RESULT:      -5.6      2.319      3.722
REMARK  Name = 189853
REMARK  12 active torsions:
REMARK  status: ('A' for Active; 'I' for Inactive)
REMARK    1  A    between atoms: N_2  and  C_5
REMARK    2  A    between atoms: C_3  and  C_18
REMARK    3  A    between atoms: C_5  and  C_7
REMARK    4  A    between atoms: C_5  and  C_10
REMARK    5  A    between atoms: C_7  and  C_9
REMARK    6  A    between atoms: C_10  and  C_11
REMARK    7  A    between atoms: C_11  and  C_12
REMARK    8  A    between atoms: C_12  and  C_13
REMARK    9  A    between atoms: C_13  and  N_14
REMARK   10  A    between atoms: C_18  and  N_20
REMARK   11  A    between atoms: C_18  and  C_24
REMARK   12  A    between atoms: C_24  and  C_25
REMARK                            x       y       z     vdW  Elec       q    Type
REMARK                         _______ _______ _______ _____ _____    ______ ____
ROOT
ATOM      1  O   UNL     1     -36.481  22.967   0.943  0.00  0.00    -0.273 OA
ATOM      2  N   UNL     1     -37.721  22.403   2.824  0.00  0.00    -0.298 N 
ATOM      3  C   UNL     1     -36.578  22.407   2.032  0.00  0.00    +0.241 C 
ATOM      4  H   UNL     1     -37.693  21.922   3.683  0.00  0.00    +0.150 HD
ENDROOT
BRANCH   2   5
ATOM      5  C   UNL     1     -38.945  23.066   2.456  0.00  0.00    +0.131 C 
BRANCH   5   7
ATOM      6  O   UNL     1     -40.250  21.071   2.120  0.00  0.00    -0.293 OA
ATOM      7  C   UNL     1     -39.752  22.080   1.619  0.00  0.00    +0.185 C 
BRANCH   7   9
ATOM      8 CL   UNL     1     -38.896  21.267  -0.816  0.00  0.00    -0.105 Cl
ATOM      9  C   UNL     1     -39.853  22.404   0.144  0.00  0.00    +0.161 C 
ENDBRANCH   7   9
ENDBRANCH   5   7
BRANCH   5  10
ATOM     10  C   UNL     1     -38.700  24.353   1.665  0.00  0.00    +0.027 C 
BRANCH  10  11
ATOM     11  C   UNL     1     -38.648  25.590   2.569  0.00  0.00    -0.000 C 
BRANCH  11  12
ATOM     12  C   UNL     1     -37.229  25.955   3.016  0.00  0.00    -0.024 C 
BRANCH  12  13
ATOM     13  C   UNL     1     -36.917  25.526   4.450  0.00  0.00    -0.086 C 
BRANCH  13  14
ATOM     14  N   UNL     1     -36.333  26.638   5.192  0.00  0.00    +0.380 N 
ATOM     15  H   UNL     1     -37.004  26.976   5.882  0.00  0.00    -0.089 HD
ATOM     16  H   UNL     1     -36.098  27.393   4.547  0.00  0.00    -0.089 HD
ATOM     17  H   UNL     1     -35.487  26.322   5.668  0.00  0.00    -0.089 HD
ENDBRANCH  13  14
ENDBRANCH  12  13
ENDBRANCH  11  12
ENDBRANCH  10  11
ENDBRANCH   5  10
ENDBRANCH   2   5
BRANCH   3  18
ATOM     18  C   UNL     1     -35.453  21.579   2.644  0.00  0.00    +0.153 C 
BRANCH  18  20
ATOM     19  O   UNL     1     -34.412  23.258   4.770  0.00  0.00    -0.275 OA
ATOM     20  N   UNL     1     -35.722  21.472   4.055  0.00  0.00    -0.298 N 
ATOM     21  C   UNL     1     -35.176  22.325   5.002  0.00  0.00    +0.223 C 
ATOM     22  C   UNL     1     -35.641  22.006   6.398  0.00  0.00    +0.095 C 
ATOM     23  H   UNL     1     -36.325  20.756   4.364  0.00  0.00    +0.150 HD
ENDBRANCH  18  20
BRANCH  18  24
ATOM     24  C   UNL     1     -35.371  20.207   1.963  0.00  0.00    +0.055 C 
BRANCH  24  25
ATOM     25  C   UNL     1     -34.025  19.950   1.330  0.00  0.00    -0.020 C 
ATOM     26  C   UNL     1     -33.452  20.910   0.496  0.00  0.00    -0.004 C 
ATOM     27  C   UNL     1     -33.355  18.752   1.578  0.00  0.00    -0.004 C 
ATOM     28  C   UNL     1     -32.208  20.673  -0.089  0.00  0.00    -0.000 C 
ATOM     29  C   UNL     1     -32.112  18.515   0.992  0.00  0.00    -0.000 C 
ATOM     30  C   UNL     1     -31.538  19.475   0.159  0.00  0.00    -0.000 C 
ENDBRANCH  24  25
ENDBRANCH  18  24
ENDBRANCH   3  18
TORSDOF 12
ENDMDL
MODEL 5
REMARK VINA RESULT:      -5.5      5.064      7.462
REMARK  Name = 189853
REMARK  12 active torsions:
REMARK  status: ('A' for Active; 'I' for Inactive)
REMARK    1  A    between atoms: N_2  and  C_5
REMARK    2  A    between atoms: C_3  and  C_18
REMARK    3  A    between atoms: C_5  and  C_7
REMARK    4  A    between atoms: C_5  and  C_10
REMARK    5  A    between atoms: C_7  and  C_9
REMARK    6  A    between atoms: C_10  and  C_11
REMARK    7  A    between atoms: C_11  and  C_12
REMARK    8  A    between atoms: C_12  and  C_13
REMARK    9  A    between atoms: C_13  and  N_14
REMARK   10  A    between atoms: C_18  and  N_20
REMARK   11  A    between atoms: C_18  and  C_24
REMARK   12  A    between atoms: C_24  and  C_25
REMARK                            x       y       z     vdW  Elec       q    Type
REMARK                         _______ _______ _______ _____ _____    ______ ____
ROOT
ATOM      1  O   UNL     1     -35.233  28.235   2.979  0.00  0.00    -0.273 OA
ATOM      2  N   UNL     1     -33.838  27.088   4.441  0.00  0.00    -0.298 N 
ATOM      3  C   UNL     1     -34.964  27.232   3.638  0.00  0.00    +0.241 C 
ATOM      4  H   UNL     1     -33.718  26.241   4.929  0.00  0.00    +0.150 HD
ENDROOT
BRANCH   2   5
ATOM      5  C   UNL     1     -32.837  28.112   4.597  0.00  0.00    +0.131 C 
BRANCH   5   7
ATOM      6  O   UNL     1     -31.137  26.966   3.335  0.00  0.00    -0.293 OA
ATOM      7  C   UNL     1     -31.858  27.959   3.439  0.00  0.00    +0.185 C 
BRANCH   7   9
ATOM      8 CL   UNL     1     -32.553  30.561   3.173  0.00  0.00    -0.105 Cl
ATOM      9  C   UNL     1     -31.808  29.119   2.468  0.00  0.00    +0.161 C 
ENDBRANCH   7   9
ENDBRANCH   5   7
BRANCH   5  10
ATOM     10  C   UNL     1     -32.096  28.008   5.932  0.00  0.00    +0.027 C 
BRANCH  10  11
ATOM     11  C   UNL     1     -31.677  29.380   6.472  0.00  0.00    -0.000 C 
BRANCH  11  12
ATOM     12  C   UNL     1     -30.160  29.540   6.614  0.00  0.00    -0.024 C 
BRANCH  12  13
ATOM     13  C   UNL     1     -29.378  28.295   6.195  0.00  0.00    -0.086 C 
BRANCH  13  14
ATOM     14  N   UNL     1     -28.700  27.715   7.349  0.00  0.00    +0.380 N 
ATOM     15  H   UNL     1     -28.262  28.457   7.895  0.00  0.00    -0.089 HD
ATOM     16  H   UNL     1     -27.985  27.060   7.030  0.00  0.00    -0.089 HD
ATOM     17  H   UNL     1     -29.378  27.221   7.930  0.00  0.00    -0.089 HD
ENDBRANCH  13  14
ENDBRANCH  12  13
ENDBRANCH  11  12
ENDBRANCH  10  11
ENDBRANCH   5  10
ENDBRANCH   2   5
BRANCH   3  18
ATOM     18  C   UNL     1     -35.878  26.013   3.706  0.00  0.00    +0.153 C 
BRANCH  18  20
ATOM     19  O   UNL     1     -38.440  24.654   3.829  0.00  0.00    -0.275 OA
ATOM     20  N   UNL     1     -37.080  26.342   2.981  0.00  0.00    -0.298 N 
ATOM     21  C   UNL     1     -38.263  25.631   3.106  0.00  0.00    +0.223 C 
ATOM     22  C   UNL     1     -39.367  26.200   2.255  0.00  0.00    +0.095 C 
ATOM     23  H   UNL     1     -37.059  27.111   2.365  0.00  0.00    +0.150 HD
ENDBRANCH  18  20
BRANCH  18  24
ATOM     24  C   UNL     1     -35.169  24.784   3.126  0.00  0.00    +0.055 C 
BRANCH  24  25
ATOM     25  C   UNL     1     -35.205  23.597   4.058  0.00  0.00    -0.020 C 
ATOM     26  C   UNL     1     -35.258  22.304   3.537  0.00  0.00    -0.004 C 
ATOM     27  C   UNL     1     -35.185  23.792   5.438  0.00  0.00    -0.004 C 
ATOM     28  C   UNL     1     -35.291  21.206   4.397  0.00  0.00    -0.000 C 
ATOM     29  C   UNL     1     -35.218  22.695   6.298  0.00  0.00    -0.000 C 
ATOM     30  C   UNL     1     -35.271  21.402   5.778  0.00  0.00    -0.000 C 
ENDBRANCH  24  25
ENDBRANCH  18  24
ENDBRANCH   3  18
TORSDOF 12
ENDMDL
MODEL 6
REMARK VINA RESULT:      -5.5      2.069      4.755
REMARK  Name = 189853
REMARK  12 active torsions:
REMARK  status: ('A' for Active; 'I' for Inactive)
REMARK    1  A    between atoms: N_2  and  C_5
REMARK    2  A    between atoms: C_3  and  C_18
REMARK    3  A    between atoms: C_5  and  C_7
REMARK    4  A    between atoms: C_5  and  C_10
REMARK    5  A    between atoms: C_7  and  C_9
REMARK    6  A    between atoms: C_10  and  C_11
REMARK    7  A    between atoms: C_11  and  C_12
REMARK    8  A    between atoms: C_12  and  C_13
REMARK    9  A    between atoms: C_13  and  N_14
REMARK   10  A    between atoms: C_18  and  N_20
REMARK   11  A    between atoms: C_18  and  C_24
REMARK   12  A    between atoms: C_24  and  C_25
REMARK                            x       y       z     vdW  Elec       q    Type
REMARK                         _______ _______ _______ _____ _____    ______ ____
ROOT
ATOM      1  O   UNL     1     -36.162  23.547   1.824  0.00  0.00    -0.273 OA
ATOM      2  N   UNL     1     -37.323  21.562   1.492  0.00  0.00    -0.298 N 
ATOM      3  C   UNL     1     -36.267  22.331   1.970  0.00  0.00    +0.241 C 
ATOM      4  H   UNL     1     -37.309  20.592   1.664  0.00  0.00    +0.150 HD
ENDROOT
BRANCH   2   5
ATOM      5  C   UNL     1     -38.434  22.108   0.757  0.00  0.00    +0.131 C 
BRANCH   5   7
ATOM      6  O   UNL     1     -40.268  21.109   1.955  0.00  0.00    -0.293 OA
ATOM      7  C   UNL     1     -39.627  22.130   1.706  0.00  0.00    +0.185 C 
BRANCH   7   9
ATOM      8 CL   UNL     1     -39.312  24.783   1.275  0.00  0.00    -0.105 Cl
ATOM      9  C   UNL     1     -39.986  23.487   2.273  0.00  0.00    +0.161 C 
ENDBRANCH   7   9
ENDBRANCH   5   7
BRANCH   5  10
ATOM     10  C   UNL     1     -38.769  21.291  -0.493  0.00  0.00    +0.027 C 
BRANCH  10  11
ATOM     11  C   UNL     1     -37.528  20.989  -1.339  0.00  0.00    -0.000 C 
BRANCH  11  12
ATOM     12  C   UNL     1     -37.162  19.502  -1.372  0.00  0.00    -0.024 C 
BRANCH  12  13
ATOM     13  C   UNL     1     -38.079  18.633  -0.511  0.00  0.00    -0.086 C 
BRANCH  13  14
ATOM     14  N   UNL     1     -37.287  17.735   0.322  0.00  0.00    +0.380 N 
ATOM     15  H   UNL     1     -36.349  18.119   0.438  0.00  0.00    -0.089 HD
ATOM     16  H   UNL     1     -37.226  16.820  -0.125  0.00  0.00    -0.089 HD
ATOM     17  H   UNL     1     -37.730  17.639   1.236  0.00  0.00    -0.089 HD
ENDBRANCH  13  14
ENDBRANCH  12  13
ENDBRANCH  11  12
ENDBRANCH  10  11
ENDBRANCH   5  10
ENDBRANCH   2   5
BRANCH   3  18
ATOM     18  C   UNL     1     -35.205  21.482   2.661  0.00  0.00    +0.153 C 
BRANCH  18  20
ATOM     19  O   UNL     1     -34.528  23.405   4.727  0.00  0.00    -0.275 OA
ATOM     20  N   UNL     1     -35.550  21.424   4.059  0.00  0.00    -0.298 N 
ATOM     21  C   UNL     1     -35.180  22.395   4.976  0.00  0.00    +0.223 C 
ATOM     22  C   UNL     1     -35.691  22.100   6.362  0.00  0.00    +0.095 C 
ATOM     23  H   UNL     1     -36.075  20.654   4.380  0.00  0.00    +0.150 HD
ENDBRANCH  18  20
BRANCH  18  24
ATOM     24  C   UNL     1     -35.137  20.091   2.022  0.00  0.00    +0.055 C 
BRANCH  24  25
ATOM     25  C   UNL     1     -33.817  19.826   1.339  0.00  0.00    -0.020 C 
ATOM     26  C   UNL     1     -33.145  18.624   1.562  0.00  0.00    -0.004 C 
ATOM     27  C   UNL     1     -33.269  20.783   0.485  0.00  0.00    -0.004 C 
ATOM     28  C   UNL     1     -31.926  18.378   0.931  0.00  0.00    -0.000 C 
ATOM     29  C   UNL     1     -32.050  20.537  -0.146  0.00  0.00    -0.000 C 
ATOM     30  C   UNL     1     -31.378  19.336   0.077  0.00  0.00    -0.000 C 
ENDBRANCH  24  25
ENDBRANCH  18  24
ENDBRANCH   3  18
TORSDOF 12
ENDMDL
MODEL 7
REMARK VINA RESULT:      -5.5      5.335      7.903
REMARK  Name = 189853
REMARK  12 active torsions:
REMARK  status: ('A' for Active; 'I' for Inactive)
REMARK    1  A    between atoms: N_2  and  C_5
REMARK    2  A    between atoms: C_3  and  C_18
REMARK    3  A    between atoms: C_5  and  C_7
REMARK    4  A    between atoms: C_5  and  C_10
REMARK    5  A    between atoms: C_7  and  C_9
REMARK    6  A    between atoms: C_10  and  C_11
REMARK    7  A    between atoms: C_11  and  C_12
REMARK    8  A    between atoms: C_12  and  C_13
REMARK    9  A    between atoms: C_13  and  N_14
REMARK   10  A    between atoms: C_18  and  N_20
REMARK   11  A    between atoms: C_18  and  C_24
REMARK   12  A    between atoms: C_24  and  C_25
REMARK                            x       y       z     vdW  Elec       q    Type
REMARK                         _______ _______ _______ _____ _____    ______ ____
ROOT
ATOM      1  O   UNL     1     -32.621  26.374   3.103  0.00  0.00    -0.273 OA
ATOM      2  N   UNL     1     -34.454  27.710   3.603  0.00  0.00    -0.298 N 
ATOM      3  C   UNL     1     -33.436  26.814   3.911  0.00  0.00    +0.241 C 
ATOM      4  H   UNL     1     -35.055  27.999   4.328  0.00  0.00    +0.150 HD
ENDROOT
BRANCH   2   5
ATOM      5  C   UNL     1     -34.677  28.236   2.281  0.00  0.00    +0.131 C 
BRANCH   5   7
ATOM      6  O   UNL     1     -34.982  30.280   3.517  0.00  0.00    -0.293 OA
ATOM      7  C   UNL     1     -35.124  29.684   2.448  0.00  0.00    +0.185 C 
BRANCH   7   9
ATOM      8 CL   UNL     1     -36.897  31.595   1.723  0.00  0.00    -0.105 Cl
ATOM      9  C   UNL     1     -35.784  30.309   1.238  0.00  0.00    +0.161 C 
ENDBRANCH   7   9
ENDBRANCH   5   7
BRANCH   5  10
ATOM     10  C   UNL     1     -35.732  27.445   1.505  0.00  0.00    +0.027 C 
BRANCH  10  11
ATOM     11  C   UNL     1     -36.870  26.954   2.407  0.00  0.00    -0.000 C 
BRANCH  11  12
ATOM     12  C   UNL     1     -37.640  25.766   1.822  0.00  0.00    -0.024 C 
BRANCH  12  13
ATOM     13  C   UNL     1     -38.923  25.441   2.586  0.00  0.00    -0.086 C 
BRANCH  13  14
ATOM     14  N   UNL     1     -38.602  24.947   3.921  0.00  0.00    +0.380 N 
ATOM     15  H   UNL     1     -37.811  24.306   3.865  0.00  0.00    -0.089 HD
ATOM     16  H   UNL     1     -39.410  24.457   4.307  0.00  0.00    -0.089 HD
ATOM     17  H   UNL     1     -38.360  25.733   4.526  0.00  0.00    -0.089 HD
ENDBRANCH  13  14
ENDBRANCH  12  13
ENDBRANCH  11  12
ENDBRANCH  10  11
ENDBRANCH   5  10
ENDBRANCH   2   5
BRANCH   3  18
ATOM     18  C   UNL     1     -33.472  26.382   5.373  0.00  0.00    +0.153 C 
BRANCH  18  20
ATOM     19  O   UNL     1     -30.881  27.675   5.572  0.00  0.00    -0.275 OA
ATOM     20  N   UNL     1     -33.127  27.536   6.165  0.00  0.00    -0.298 N 
ATOM     21  C   UNL     1     -31.855  28.086   6.196  0.00  0.00    +0.223 C 
ATOM     22  C   UNL     1     -31.776  29.298   7.086  0.00  0.00    +0.095 C 
ATOM     23  H   UNL     1     -33.831  27.955   6.713  0.00  0.00    +0.150 HD
ENDBRANCH  18  20
BRANCH  18  24
ATOM     24  C   UNL     1     -34.855  25.827   5.730  0.00  0.00    +0.055 C 
BRANCH  24  25
ATOM     25  C   UNL     1     -35.045  24.399   5.277  0.00  0.00    -0.020 C 
ATOM     26  C   UNL     1     -35.154  24.108   3.917  0.00  0.00    -0.004 C 
ATOM     27  C   UNL     1     -35.110  23.372   6.217  0.00  0.00    -0.004 C 
ATOM     28  C   UNL     1     -35.330  22.790   3.497  0.00  0.00    -0.000 C 
ATOM     29  C   UNL     1     -35.285  22.053   5.797  0.00  0.00    -0.000 C 
ATOM     30  C   UNL     1     -35.395  21.762   4.438  0.00  0.00    -0.000 C 
ENDBRANCH  24  25
ENDBRANCH  18  24
ENDBRANCH   3  18
TORSDOF 12
ENDMDL
MODEL 8
REMARK VINA RESULT:      -5.3      2.174      4.519
REMARK  Name = 189853
REMARK  12 active torsions:
REMARK  status: ('A' for Active; 'I' for Inactive)
REMARK    1  A    between atoms: N_2  and  C_5
REMARK    2  A    between atoms: C_3  and  C_18
REMARK    3  A    between atoms: C_5  and  C_7
REMARK    4  A    between atoms: C_5  and  C_10
REMARK    5  A    between atoms: C_7  and  C_9
REMARK    6  A    between atoms: C_10  and  C_11
REMARK    7  A    between atoms: C_11  and  C_12
REMARK    8  A    between atoms: C_12  and  C_13
REMARK    9  A    between atoms: C_13  and  N_14
REMARK   10  A    between atoms: C_18  and  N_20
REMARK   11  A    between atoms: C_18  and  C_24
REMARK   12  A    between atoms: C_24  and  C_25
REMARK                            x       y       z     vdW  Elec       q    Type
REMARK                         _______ _______ _______ _____ _____    ______ ____
ROOT
ATOM      1  O   UNL     1     -35.924  22.909   0.783  0.00  0.00    -0.273 OA
ATOM      2  N   UNL     1     -37.219  22.704   2.701  0.00  0.00    -0.298 N 
ATOM      3  C   UNL     1     -36.101  22.456   1.912  0.00  0.00    +0.241 C 
ATOM      4  H   UNL     1     -37.261  22.289   3.594  0.00  0.00    +0.150 HD
ENDROOT
BRANCH   2   5
ATOM      5  C   UNL     1     -38.319  23.533   2.282  0.00  0.00    +0.131 C 
BRANCH   5   7
ATOM      6  O   UNL     1     -37.835  24.764   4.294  0.00  0.00    -0.293 OA
ATOM      7  C   UNL     1     -38.287  24.787   3.149  0.00  0.00    +0.185 C 
BRANCH   7   9
ATOM      8 CL   UNL     1     -37.666  26.905   1.583  0.00  0.00    -0.105 Cl
ATOM      9  C   UNL     1     -38.883  26.030   2.523  0.00  0.00    +0.161 C 
ENDBRANCH   7   9
ENDBRANCH   5   7
BRANCH   5  10
ATOM     10  C   UNL     1     -39.671  22.829   2.422  0.00  0.00    +0.027 C 
BRANCH  10  11
ATOM     11  C   UNL     1     -39.633  21.390   1.896  0.00  0.00    -0.000 C 
BRANCH  11  12
ATOM     12  C   UNL     1     -39.590  21.303   0.367  0.00  0.00    -0.024 C 
BRANCH  12  13
ATOM     13  C   UNL     1     -38.581  20.278  -0.152  0.00  0.00    -0.086 C 
BRANCH  13  14
ATOM     14  N   UNL     1     -37.552  20.942  -0.945  0.00  0.00    +0.380 N 
ATOM     15  H   UNL     1     -36.632  20.705  -0.575  0.00  0.00    -0.089 HD
ATOM     16  H   UNL     1     -37.687  21.953  -0.901  0.00  0.00    -0.089 HD
ATOM     17  H   UNL     1     -37.618  20.633  -1.916  0.00  0.00    -0.089 HD
ENDBRANCH  13  14
ENDBRANCH  12  13
ENDBRANCH  11  12
ENDBRANCH  10  11
ENDBRANCH   5  10
ENDBRANCH   2   5
BRANCH   3  18
ATOM     18  C   UNL     1     -35.122  21.499   2.585  0.00  0.00    +0.153 C 
BRANCH  18  20
ATOM     19  O   UNL     1     -34.600  23.395   4.720  0.00  0.00    -0.275 OA
ATOM     20  N   UNL     1     -35.516  21.392   3.968  0.00  0.00    -0.298 N 
ATOM     21  C   UNL     1     -35.220  22.354   4.921  0.00  0.00    +0.223 C 
ATOM     22  C   UNL     1     -35.769  22.004   6.278  0.00  0.00    +0.095 C 
ATOM     23  H   UNL     1     -36.021  20.594   4.250  0.00  0.00    +0.150 HD
ENDBRANCH  18  20
BRANCH  18  24
ATOM     24  C   UNL     1     -35.130  20.142   1.873  0.00  0.00    +0.055 C 
BRANCH  24  25
ATOM     25  C   UNL     1     -33.789  19.787   1.280  0.00  0.00    -0.020 C 
ATOM     26  C   UNL     1     -33.188  18.567   1.594  0.00  0.00    -0.004 C 
ATOM     27  C   UNL     1     -33.150  20.677   0.417  0.00  0.00    -0.004 C 
ATOM     28  C   UNL     1     -31.948  18.238   1.045  0.00  0.00    -0.000 C 
ATOM     29  C   UNL     1     -31.910  20.348  -0.131  0.00  0.00    -0.000 C 
ATOM     30  C   UNL     1     -31.310  19.129   0.183  0.00  0.00    -0.000 C 
ENDBRANCH  24  25
ENDBRANCH  18  24
ENDBRANCH   3  18
TORSDOF 12
ENDMDL
MODEL 9
REMARK VINA RESULT:      -5.3      2.272      3.276
REMARK  Name = 189853
REMARK  12 active torsions:
REMARK  status: ('A' for Active; 'I' for Inactive)
REMARK    1  A    between atoms: N_2  and  C_5
REMARK    2  A    between atoms: C_3  and  C_18
REMARK    3  A    between atoms: C_5  and  C_7
REMARK    4  A    between atoms: C_5  and  C_10
REMARK    5  A    between atoms: C_7  and  C_9
REMARK    6  A    between atoms: C_10  and  C_11
REMARK    7  A    between atoms: C_11  and  C_12
REMARK    8  A    between atoms: C_12  and  C_13
REMARK    9  A    between atoms: C_13  and  N_14
REMARK   10  A    between atoms: C_18  and  N_20
REMARK   11  A    between atoms: C_18  and  C_24
REMARK   12  A    between atoms: C_24  and  C_25
REMARK                            x       y       z     vdW  Elec       q    Type
REMARK                         _______ _______ _______ _____ _____    ______ ____
ROOT
ATOM      1  O   UNL     1     -34.168  24.026   0.770  0.00  0.00    -0.273 OA
ATOM      2  N   UNL     1     -35.334  22.962   2.474  0.00  0.00    -0.298 N 
ATOM      3  C   UNL     1     -34.607  23.002   1.289  0.00  0.00    +0.241 C 
ATOM      4  H   UNL     1     -35.640  22.085   2.803  0.00  0.00    +0.150 HD
ENDROOT
BRANCH   2   5
ATOM      5  C   UNL     1     -35.664  24.133   3.244  0.00  0.00    +0.131 C 
BRANCH   5   7
ATOM      6  O   UNL     1     -33.689  24.534   4.560  0.00  0.00    -0.293 OA
ATOM      7  C   UNL     1     -34.831  24.076   4.519  0.00  0.00    +0.185 C 
BRANCH   7   9
ATOM      8 CL   UNL     1     -34.930  21.712   5.832  0.00  0.00    -0.105 Cl
ATOM      9  C   UNL     1     -35.485  23.387   5.697  0.00  0.00    +0.161 C 
ENDBRANCH   7   9
ENDBRANCH   5   7
BRANCH   5  10
ATOM     10  C   UNL     1     -37.153  24.207   3.589  0.00  0.00    +0.027 C 
BRANCH  10  11
ATOM     11  C   UNL     1     -38.034  24.326   2.340  0.00  0.00    -0.000 C 
BRANCH  11  12
ATOM     12  C   UNL     1     -39.365  23.579   2.462  0.00  0.00    -0.024 C 
BRANCH  12  13
ATOM     13  C   UNL     1     -39.422  22.303   1.621  0.00  0.00    -0.086 C 
BRANCH  13  14
ATOM     14  N   UNL     1     -38.738  21.215   2.311  0.00  0.00    +0.380 N 
ATOM     15  H   UNL     1     -37.874  21.565   2.724  0.00  0.00    -0.089 HD
ATOM     16  H   UNL     1     -38.521  20.473   1.645  0.00  0.00    -0.089 HD
ATOM     17  H   UNL     1     -39.341  20.845   3.047  0.00  0.00    -0.089 HD
ENDBRANCH  13  14
ENDBRANCH  12  13
ENDBRANCH  11  12
ENDBRANCH  10  11
ENDBRANCH   5  10
ENDBRANCH   2   5
BRANCH   3  18
ATOM     18  C   UNL     1     -34.455  21.621   0.660  0.00  0.00    +0.153 C 
BRANCH  18  20
ATOM     19  O   UNL     1     -36.559  19.625   0.781  0.00  0.00    -0.275 OA
ATOM     20  N   UNL     1     -35.553  21.449  -0.258  0.00  0.00    -0.298 N 
ATOM     21  C   UNL     1     -36.515  20.461  -0.118  0.00  0.00    +0.223 C 
ATOM     22  C   UNL     1     -37.560  20.521  -1.200  0.00  0.00    +0.095 C 
ATOM     23  H   UNL     1     -35.623  22.064  -1.024  0.00  0.00    +0.150 HD
ENDBRANCH  18  20
BRANCH  18  24
ATOM     24  C   UNL     1     -33.094  21.499  -0.035  0.00  0.00    +0.055 C 
BRANCH  24  25
ATOM     25  C   UNL     1     -32.381  20.212   0.300  0.00  0.00    -0.020 C 
ATOM     26  C   UNL     1     -31.076  20.001  -0.145  0.00  0.00    -0.004 C 
ATOM     27  C   UNL     1     -33.027  19.232   1.054  0.00  0.00    -0.004 C 
ATOM     28  C   UNL     1     -30.416  18.812   0.165  0.00  0.00    -0.000 C 
ATOM     29  C   UNL     1     -32.368  18.043   1.363  0.00  0.00    -0.000 C 
ATOM     30  C   UNL     1     -31.063  17.832   0.919  0.00  0.00    -0.000 C 
ENDBRANCH  24  25
ENDBRANCH  18  24
ENDBRANCH   3  18
TORSDOF 12
ENDMDL
