MODEL 1
REMARK VINA RESULT:      -6.1      0.000      0.000
REMARK  Name = 194932
REMARK  14 active torsions:
REMARK  status: ('A' for Active; 'I' for Inactive)
REMARK    1  A    between atoms: N_1  and  C1*_12
REMARK    2  A    between atoms: C2*_11  and  O2*_15
REMARK    3  A    between atoms: C3*_13  and  O3*_17
REMARK    4  A    between atoms: C4*_14  and  C5*_19
REMARK    5  A    between atoms: C5*_19  and  O5*_20
REMARK    6  A    between atoms: N_22  and  C_24
REMARK    7  A    between atoms: C_24  and  C_25
REMARK    8  A    between atoms: C_25  and  C_26
REMARK    9  A    between atoms: C_26  and  C_27
REMARK   10  A    between atoms: C_27  and  C_28
REMARK   11  A    between atoms: C_28  and  C_29
REMARK   12  A    between atoms: C_29  and  C_30
REMARK   13  A    between atoms: C_30  and  C_31
REMARK   14  A    between atoms: C_31  and  N_32
REMARK                            x       y       z     vdW  Elec       q    Type
REMARK                         _______ _______ _______ _____ _____    ______ ____
ROOT
ATOM      1  N   UNL     1     -34.945  26.259   4.448  0.00  0.00    -0.247 N 
ATOM      2  N   UNL     1     -33.773  27.461   2.982  0.00  0.00    -0.242 NA
ATOM      3  N   UNL     1     -33.605  26.611   6.443  0.00  0.00    -0.228 NA
ATOM      4  N   UNL     1     -31.685  28.044   5.979  0.00  0.00    -0.228 NA
ATOM      5  C   UNL     1     -33.891  26.779   5.143  0.00  0.00    +0.152 C 
ATOM      6  C   UNL     1     -34.829  26.696   3.155  0.00  0.00    +0.223 C 
ATOM      7  C   UNL     1     -33.176  27.523   4.216  0.00  0.00    +0.140 C 
ATOM      8  C   UNL     1     -32.023  28.181   4.664  0.00  0.00    +0.146 C 
ATOM      9  C   UNL     1     -32.480  27.284   6.770  0.00  0.00    +0.253 C 
ATOM     10  N   UNL     1     -31.250  28.947   3.805  0.00  0.00    -0.317 N 
ATOM     11  H   UNL     1     -31.533  29.018   2.865  0.00  0.00    +0.148 HD
ENDROOT
BRANCH   1  14
ATOM     12  O4* UNL     1     -35.428  24.419   5.869  0.00  0.00    -0.333 OA
ATOM     13  C2* UNL     1     -36.767  24.632   3.890  0.00  0.00    +0.187 C 
ATOM     14  C1* UNL     1     -36.003  25.395   4.974  0.00  0.00    +0.225 C 
ATOM     15  C3* UNL     1     -36.190  23.233   3.991  0.00  0.00    +0.171 C 
ATOM     16  C4* UNL     1     -35.887  23.116   5.475  0.00  0.00    +0.175 C 
BRANCH  13  17
ATOM     17  O2* UNL     1     -38.159  24.642   4.201  0.00  0.00    -0.378 OA
ATOM     18  H2* UNL     1     -38.275  24.730   5.159  0.00  0.00    +0.211 HD
ENDBRANCH  13  17
BRANCH  15  19
ATOM     19  O3* UNL     1     -37.075  22.227   3.549  0.00  0.00    -0.379 OA
ATOM     20  H3* UNL     1     -36.574  21.533   3.092  0.00  0.00    +0.211 HD
ENDBRANCH  15  19
BRANCH  16  21
ATOM     21  C5* UNL     1     -34.826  22.079   5.796  0.00  0.00    +0.169 C 
BRANCH  21  22
ATOM     22  O5* UNL     1     -35.403  20.790   5.685  0.00  0.00    -0.379 OA
ATOM     23  H5* UNL     1     -35.253  20.297   6.507  0.00  0.00    +0.211 HD
ENDBRANCH  21  22
ENDBRANCH  16  21
ENDBRANCH   1  14
BRANCH  10  24
ATOM     24  C   UNL     1     -30.054  29.645   4.211  0.00  0.00    +0.088 C 
BRANCH  24  25
ATOM     25  C   UNL     1     -30.300  31.149   4.271  0.00  0.00    +0.021 C 
BRANCH  25  26
ATOM     26  C   UNL     1     -31.674  31.546   3.723  0.00  0.00    +0.002 C 
BRANCH  26  27
ATOM     27  C   UNL     1     -31.615  32.892   2.998  0.00  0.00    +0.000 C 
BRANCH  27  28
ATOM     28  C   UNL     1     -32.960  33.241   2.359  0.00  0.00    -0.000 C 
BRANCH  28  29
ATOM     29  C   UNL     1     -33.596  32.017   1.696  0.00  0.00    -0.002 C 
BRANCH  29  30
ATOM     30  C   UNL     1     -35.124  32.067   1.792  0.00  0.00    -0.024 C 
BRANCH  30  31
ATOM     31  C   UNL     1     -35.738  30.748   2.268  0.00  0.00    -0.086 C 
BRANCH  31  32
ATOM     32  N   UNL     1     -35.220  30.345   3.569  0.00  0.00    +0.380 N 
ATOM     33  H   UNL     1     -34.218  30.534   3.609  0.00  0.00    -0.089 HD
ATOM     34  H   UNL     1     -35.384  29.349   3.707  0.00  0.00    -0.089 HD
ATOM     35  H   UNL     1     -35.693  30.873   4.303  0.00  0.00    -0.089 HD
ENDBRANCH  31  32
ENDBRANCH  30  31
ENDBRANCH  29  30
ENDBRANCH  28  29
ENDBRANCH  27  28
ENDBRANCH  26  27
ENDBRANCH  25  26
ENDBRANCH  24  25
ENDBRANCH  10  24
TORSDOF 14
ENDMDL
MODEL 2
REMARK VINA RESULT:      -5.7      2.122      3.657
REMARK  Name = 194932
REMARK  14 active torsions:
REMARK  status: ('A' for Active; 'I' for Inactive)
REMARK    1  A    between atoms: N_1  and  C1*_12
REMARK    2  A    between atoms: C2*_11  and  O2*_15
REMARK    3  A    between atoms: C3*_13  and  O3*_17
REMARK    4  A    between atoms: C4*_14  and  C5*_19
REMARK    5  A    between atoms: C5*_19  and  O5*_20
REMARK    6  A    between atoms: N_22  and  C_24
REMARK    7  A    between atoms: C_24  and  C_25
REMARK    8  A    between atoms: C_25  and  C_26
REMARK    9  A    between atoms: C_26  and  C_27
REMARK   10  A    between atoms: C_27  and  C_28
REMARK   11  A    between atoms: C_28  and  C_29
REMARK   12  A    between atoms: C_29  and  C_30
REMARK   13  A    between atoms: C_30  and  C_31
REMARK   14  A    between atoms: C_31  and  N_32
REMARK                            x       y       z     vdW  Elec       q    Type
REMARK                         _______ _______ _______ _____ _____    ______ ____
ROOT
ATOM      1  N   UNL     1     -34.964  26.045   4.240  0.00  0.00    -0.247 N 
ATOM      2  N   UNL     1     -33.703  27.196   2.806  0.00  0.00    -0.242 NA
ATOM      3  N   UNL     1     -33.749  26.471   6.299  0.00  0.00    -0.228 NA
ATOM      4  N   UNL     1     -31.803  27.889   5.903  0.00  0.00    -0.228 NA
ATOM      5  C   UNL     1     -33.955  26.592   4.980  0.00  0.00    +0.152 C 
ATOM      6  C   UNL     1     -34.768  26.435   2.942  0.00  0.00    +0.223 C 
ATOM      7  C   UNL     1     -33.184  27.303   4.072  0.00  0.00    +0.140 C 
ATOM      8  C   UNL     1     -32.060  27.978   4.566  0.00  0.00    +0.146 C 
ATOM      9  C   UNL     1     -32.646  27.157   6.671  0.00  0.00    +0.253 C 
ATOM     10  N   UNL     1     -31.235  28.715   3.729  0.00  0.00    -0.317 N 
ATOM     11  H   UNL     1     -31.459  28.751   2.772  0.00  0.00    +0.148 HD
ENDROOT
BRANCH   1  14
ATOM     12  O4* UNL     1     -35.553  24.317   5.758  0.00  0.00    -0.333 OA
ATOM     13  C2* UNL     1     -36.689  24.329   3.645  0.00  0.00    +0.187 C 
ATOM     14  C1* UNL     1     -36.053  25.199   4.730  0.00  0.00    +0.225 C 
ATOM     15  C3* UNL     1     -36.099  22.959   3.921  0.00  0.00    +0.171 C 
ATOM     16  C4* UNL     1     -35.944  22.973   5.432  0.00  0.00    +0.175 C 
BRANCH  13  17
ATOM     17  O2* UNL     1     -38.105  24.325   3.815  0.00  0.00    -0.378 OA
ATOM     18  H2* UNL     1     -38.364  25.067   4.383  0.00  0.00    +0.211 HD
ENDBRANCH  13  17
BRANCH  15  19
ATOM     19  O3* UNL     1     -36.916  21.895   3.481  0.00  0.00    -0.379 OA
ATOM     20  H3* UNL     1     -36.376  21.254   2.992  0.00  0.00    +0.211 HD
ENDBRANCH  15  19
BRANCH  16  21
ATOM     21  C5* UNL     1     -34.901  21.996   5.943  0.00  0.00    +0.169 C 
BRANCH  21  22
ATOM     22  O5* UNL     1     -35.369  20.677   5.723  0.00  0.00    -0.379 OA
ATOM     23  H5* UNL     1     -35.656  20.586   4.800  0.00  0.00    +0.211 HD
ENDBRANCH  21  22
ENDBRANCH  16  21
ENDBRANCH   1  14
BRANCH  10  24
ATOM     24  C   UNL     1     -30.066  29.429   4.183  0.00  0.00    +0.088 C 
BRANCH  24  25
ATOM     25  C   UNL     1     -29.494  30.295   3.065  0.00  0.00    +0.021 C 
BRANCH  25  26
ATOM     26  C   UNL     1     -28.958  31.637   3.573  0.00  0.00    +0.002 C 
BRANCH  26  27
ATOM     27  C   UNL     1     -29.011  31.715   5.100  0.00  0.00    +0.000 C 
BRANCH  27  28
ATOM     28  C   UNL     1     -27.649  32.090   5.686  0.00  0.00    -0.000 C 
BRANCH  28  29
ATOM     29  C   UNL     1     -26.939  30.868   6.274  0.00  0.00    -0.002 C 
BRANCH  29  30
ATOM     30  C   UNL     1     -27.676  30.340   7.509  0.00  0.00    -0.024 C 
BRANCH  30  31
ATOM     31  C   UNL     1     -27.734  28.812   7.565  0.00  0.00    -0.086 C 
BRANCH  31  32
ATOM     32  N   UNL     1     -29.075  28.308   7.298  0.00  0.00    +0.380 N 
ATOM     33  H   UNL     1     -29.026  27.563   6.602  0.00  0.00    -0.089 HD
ATOM     34  H   UNL     1     -29.660  29.065   6.946  0.00  0.00    -0.089 HD
ATOM     35  H   UNL     1     -29.478  27.940   8.160  0.00  0.00    -0.089 HD
ENDBRANCH  31  32
ENDBRANCH  30  31
ENDBRANCH  29  30
ENDBRANCH  28  29
ENDBRANCH  27  28
ENDBRANCH  26  27
ENDBRANCH  25  26
ENDBRANCH  24  25
ENDBRANCH  10  24
TORSDOF 14
ENDMDL
MODEL 3
REMARK VINA RESULT:      -5.6      1.821      2.371
REMARK  Name = 194932
REMARK  14 active torsions:
REMARK  status: ('A' for Active; 'I' for Inactive)
REMARK    1  A    between atoms: N_1  and  C1*_12
REMARK    2  A    between atoms: C2*_11  and  O2*_15
REMARK    3  A    between atoms: C3*_13  and  O3*_17
REMARK    4  A    between atoms: C4*_14  and  C5*_19
REMARK    5  A    between atoms: C5*_19  and  O5*_20
REMARK    6  A    between atoms: N_22  and  C_24
REMARK    7  A    between atoms: C_24  and  C_25
REMARK    8  A    between atoms: C_25  and  C_26
REMARK    9  A    between atoms: C_26  and  C_27
REMARK   10  A    between atoms: C_27  and  C_28
REMARK   11  A    between atoms: C_28  and  C_29
REMARK   12  A    between atoms: C_29  and  C_30
REMARK   13  A    between atoms: C_30  and  C_31
REMARK   14  A    between atoms: C_31  and  N_32
REMARK                            x       y       z     vdW  Elec       q    Type
REMARK                         _______ _______ _______ _____ _____    ______ ____
ROOT
ATOM      1  N   UNL     1     -34.894  26.204   4.446  0.00  0.00    -0.247 N 
ATOM      2  N   UNL     1     -33.723  27.375   2.954  0.00  0.00    -0.242 NA
ATOM      3  N   UNL     1     -33.582  26.641   6.442  0.00  0.00    -0.228 NA
ATOM      4  N   UNL     1     -31.677  28.085   5.952  0.00  0.00    -0.228 NA
ATOM      5  C   UNL     1     -33.856  26.762   5.135  0.00  0.00    +0.152 C 
ATOM      6  C   UNL     1     -34.771  26.601   3.140  0.00  0.00    +0.223 C 
ATOM      7  C   UNL     1     -33.142  27.486   4.192  0.00  0.00    +0.140 C 
ATOM      8  C   UNL     1     -32.003  28.175   4.630  0.00  0.00    +0.146 C 
ATOM      9  C   UNL     1     -32.470  27.340   6.759  0.00  0.00    +0.253 C 
ATOM     10  N   UNL     1     -31.232  28.924   3.754  0.00  0.00    -0.317 N 
ATOM     11  H   UNL     1     -31.505  28.961   2.810  0.00  0.00    +0.148 HD
ENDROOT
BRANCH   1  14
ATOM     12  O4* UNL     1     -35.355  24.348   5.852  0.00  0.00    -0.333 OA
ATOM     13  C2* UNL     1     -36.747  24.603   3.915  0.00  0.00    +0.187 C 
ATOM     14  C1* UNL     1     -35.946  25.342   4.988  0.00  0.00    +0.225 C 
ATOM     15  C3* UNL     1     -36.181  23.197   3.979  0.00  0.00    +0.171 C 
ATOM     16  C4* UNL     1     -35.838  23.055   5.452  0.00  0.00    +0.175 C 
BRANCH  13  17
ATOM     17  O2* UNL     1     -38.130  24.621   4.265  0.00  0.00    -0.378 OA
ATOM     18  H2* UNL     1     -38.224  24.467   5.218  0.00  0.00    +0.211 HD
ENDBRANCH  13  17
BRANCH  15  19
ATOM     19  O3* UNL     1     -37.088  22.206   3.547  0.00  0.00    -0.379 OA
ATOM     20  H3* UNL     1     -36.904  21.980   2.621  0.00  0.00    +0.211 HD
ENDBRANCH  15  19
BRANCH  16  21
ATOM     21  C5* UNL     1     -34.778  22.003   5.727  0.00  0.00    +0.169 C 
BRANCH  21  22
ATOM     22  O5* UNL     1     -35.394  20.727   5.724  0.00  0.00    -0.379 OA
ATOM     23  H5* UNL     1     -36.358  20.834   5.714  0.00  0.00    +0.211 HD
ENDBRANCH  21  22
ENDBRANCH  16  21
ENDBRANCH   1  14
BRANCH  10  24
ATOM     24  C   UNL     1     -30.051  29.652   4.150  0.00  0.00    +0.088 C 
BRANCH  24  25
ATOM     25  C   UNL     1     -30.408  31.073   4.575  0.00  0.00    +0.021 C 
BRANCH  25  26
ATOM     26  C   UNL     1     -31.657  31.606   3.867  0.00  0.00    +0.002 C 
BRANCH  26  27
ATOM     27  C   UNL     1     -31.354  32.895   3.101  0.00  0.00    +0.000 C 
BRANCH  27  28
ATOM     28  C   UNL     1     -32.495  33.260   2.150  0.00  0.00    -0.000 C 
BRANCH  28  29
ATOM     29  C   UNL     1     -33.040  34.660   2.444  0.00  0.00    -0.002 C 
BRANCH  29  30
ATOM     30  C   UNL     1     -31.999  35.517   3.172  0.00  0.00    -0.024 C 
BRANCH  30  31
ATOM     31  C   UNL     1     -31.579  36.754   2.376  0.00  0.00    -0.086 C 
BRANCH  31  32
ATOM     32  N   UNL     1     -30.187  37.112   2.622  0.00  0.00    +0.380 N 
ATOM     33  H   UNL     1     -29.895  37.819   1.947  0.00  0.00    -0.089 HD
ATOM     34  H   UNL     1     -29.600  36.284   2.523  0.00  0.00    -0.089 HD
ATOM     35  H   UNL     1     -30.094  37.486   3.566  0.00  0.00    -0.089 HD
ENDBRANCH  31  32
ENDBRANCH  30  31
ENDBRANCH  29  30
ENDBRANCH  28  29
ENDBRANCH  27  28
ENDBRANCH  26  27
ENDBRANCH  25  26
ENDBRANCH  24  25
ENDBRANCH  10  24
TORSDOF 14
ENDMDL
MODEL 4
REMARK VINA RESULT:      -5.5      1.478      3.188
REMARK  Name = 194932
REMARK  14 active torsions:
REMARK  status: ('A' for Active; 'I' for Inactive)
REMARK    1  A    between atoms: N_1  and  C1*_12
REMARK    2  A    between atoms: C2*_11  and  O2*_15
REMARK    3  A    between atoms: C3*_13  and  O3*_17
REMARK    4  A    between atoms: C4*_14  and  C5*_19
REMARK    5  A    between atoms: C5*_19  and  O5*_20
REMARK    6  A    between atoms: N_22  and  C_24
REMARK    7  A    between atoms: C_24  and  C_25
REMARK    8  A    between atoms: C_25  and  C_26
REMARK    9  A    between atoms: C_26  and  C_27
REMARK   10  A    between atoms: C_27  and  C_28
REMARK   11  A    between atoms: C_28  and  C_29
REMARK   12  A    between atoms: C_29  and  C_30
REMARK   13  A    between atoms: C_30  and  C_31
REMARK   14  A    between atoms: C_31  and  N_32
REMARK                            x       y       z     vdW  Elec       q    Type
REMARK                         _______ _______ _______ _____ _____    ______ ____
ROOT
ATOM      1  N   UNL     1     -35.060  25.932   4.194  0.00  0.00    -0.247 N 
ATOM      2  N   UNL     1     -33.039  26.871   4.119  0.00  0.00    -0.242 NA
ATOM      3  N   UNL     1     -36.174  27.199   2.449  0.00  0.00    -0.228 NA
ATOM      4  N   UNL     1     -34.671  28.839   1.446  0.00  0.00    -0.228 NA
ATOM      5  C   UNL     1     -35.121  26.882   3.216  0.00  0.00    +0.152 C 
ATOM      6  C   UNL     1     -33.789  25.964   4.707  0.00  0.00    +0.223 C 
ATOM      7  C   UNL     1     -33.858  27.453   3.184  0.00  0.00    +0.140 C 
ATOM      8  C   UNL     1     -33.633  28.476   2.254  0.00  0.00    +0.146 C 
ATOM      9  C   UNL     1     -35.852  28.192   1.590  0.00  0.00    +0.253 C 
ATOM     10  N   UNL     1     -32.399  29.100   2.152  0.00  0.00    -0.317 N 
ATOM     11  H   UNL     1     -31.679  28.805   2.754  0.00  0.00    +0.148 HD
ENDROOT
BRANCH   1  14
ATOM     12  O4* UNL     1     -35.679  24.217   5.716  0.00  0.00    -0.333 OA
ATOM     13  C2* UNL     1     -36.642  24.109   3.521  0.00  0.00    +0.187 C 
ATOM     14  C1* UNL     1     -36.140  25.042   4.624  0.00  0.00    +0.225 C 
ATOM     15  C3* UNL     1     -36.006  22.781   3.886  0.00  0.00    +0.171 C 
ATOM     16  C4* UNL     1     -35.974  22.846   5.403  0.00  0.00    +0.175 C 
BRANCH  13  17
ATOM     17  O2* UNL     1     -38.065  24.035   3.580  0.00  0.00    -0.378 OA
ATOM     18  H2* UNL     1     -38.385  23.419   2.903  0.00  0.00    +0.211 HD
ENDBRANCH  13  17
BRANCH  15  19
ATOM     19  O3* UNL     1     -36.729  21.664   3.418  0.00  0.00    -0.379 OA
ATOM     20  H3* UNL     1     -37.637  21.932   3.204  0.00  0.00    +0.211 HD
ENDBRANCH  15  19
BRANCH  16  21
ATOM     21  C5* UNL     1     -34.926  21.940   6.026  0.00  0.00    +0.169 C 
BRANCH  21  22
ATOM     22  O5* UNL     1     -35.289  20.593   5.782  0.00  0.00    -0.379 OA
ATOM     23  H5* UNL     1     -34.641  20.004   6.200  0.00  0.00    +0.211 HD
ENDBRANCH  21  22
ENDBRANCH  16  21
ENDBRANCH   1  14
BRANCH  10  24
ATOM     24  C   UNL     1     -32.112  30.159   1.214  0.00  0.00    +0.088 C 
BRANCH  24  25
ATOM     25  C   UNL     1     -32.204  31.522   1.893  0.00  0.00    +0.021 C 
BRANCH  25  26
ATOM     26  C   UNL     1     -30.880  32.292   1.857  0.00  0.00    +0.002 C 
BRANCH  26  27
ATOM     27  C   UNL     1     -30.350  32.552   3.268  0.00  0.00    +0.000 C 
BRANCH  27  28
ATOM     28  C   UNL     1     -31.295  31.990   4.332  0.00  0.00    -0.000 C 
BRANCH  28  29
ATOM     29  C   UNL     1     -30.596  30.941   5.199  0.00  0.00    -0.002 C 
BRANCH  29  30
ATOM     30  C   UNL     1     -31.609  30.146   6.029  0.00  0.00    -0.024 C 
BRANCH  30  31
ATOM     31  C   UNL     1     -31.093  28.766   6.444  0.00  0.00    -0.086 C 
BRANCH  31  32
ATOM     32  N   UNL     1     -32.135  27.960   7.067  0.00  0.00    +0.380 N 
ATOM     33  H   UNL     1     -32.624  28.520   7.767  0.00  0.00    -0.089 HD
ATOM     34  H   UNL     1     -31.715  27.147   7.516  0.00  0.00    -0.089 HD
ATOM     35  H   UNL     1     -32.799  27.651   6.357  0.00  0.00    -0.089 HD
ENDBRANCH  31  32
ENDBRANCH  30  31
ENDBRANCH  29  30
ENDBRANCH  28  29
ENDBRANCH  27  28
ENDBRANCH  26  27
ENDBRANCH  25  26
ENDBRANCH  24  25
ENDBRANCH  10  24
TORSDOF 14
ENDMDL
MODEL 5
REMARK VINA RESULT:      -5.5      5.857      9.998
REMARK  Name = 194932
REMARK  14 active torsions:
REMARK  status: ('A' for Active; 'I' for Inactive)
REMARK    1  A    between atoms: N_1  and  C1*_12
REMARK    2  A    between atoms: C2*_11  and  O2*_15
REMARK    3  A    between atoms: C3*_13  and  O3*_17
REMARK    4  A    between atoms: C4*_14  and  C5*_19
REMARK    5  A    between atoms: C5*_19  and  O5*_20
REMARK    6  A    between atoms: N_22  and  C_24
REMARK    7  A    between atoms: C_24  and  C_25
REMARK    8  A    between atoms: C_25  and  C_26
REMARK    9  A    between atoms: C_26  and  C_27
REMARK   10  A    between atoms: C_27  and  C_28
REMARK   11  A    between atoms: C_28  and  C_29
REMARK   12  A    between atoms: C_29  and  C_30
REMARK   13  A    between atoms: C_30  and  C_31
REMARK   14  A    between atoms: C_31  and  N_32
REMARK                            x       y       z     vdW  Elec       q    Type
REMARK                         _______ _______ _______ _____ _____    ______ ____
ROOT
ATOM      1  N   UNL     1     -36.022  23.386   2.577  0.00  0.00    -0.247 N 
ATOM      2  N   UNL     1     -35.673  21.268   3.182  0.00  0.00    -0.242 NA
ATOM      3  N   UNL     1     -35.771  23.180   0.171  0.00  0.00    -0.228 NA
ATOM      4  N   UNL     1     -35.278  20.879  -0.475  0.00  0.00    -0.228 NA
ATOM      5  C   UNL     1     -35.790  22.697   1.422  0.00  0.00    +0.152 C 
ATOM      6  C   UNL     1     -35.941  22.485   3.606  0.00  0.00    +0.223 C 
ATOM      7  C   UNL     1     -35.576  21.385   1.818  0.00  0.00    +0.140 C 
ATOM      8  C   UNL     1     -35.309  20.441   0.817  0.00  0.00    +0.146 C 
ATOM      9  C   UNL     1     -35.506  22.193  -0.713  0.00  0.00    +0.253 C 
ATOM     10  N   UNL     1     -35.086  19.108   1.124  0.00  0.00    -0.317 N 
ATOM     11  H   UNL     1     -35.119  18.837   2.069  0.00  0.00    +0.148 HD
ENDROOT
BRANCH   1  14
ATOM     12  O4* UNL     1     -35.063  25.548   2.776  0.00  0.00    -0.333 OA
ATOM     13  C2* UNL     1     -37.121  25.171   3.950  0.00  0.00    +0.187 C 
ATOM     14  C1* UNL     1     -36.305  24.816   2.706  0.00  0.00    +0.225 C 
ATOM     15  C3* UNL     1     -36.075  25.749   4.885  0.00  0.00    +0.171 C 
ATOM     16  C4* UNL     1     -35.113  26.417   3.919  0.00  0.00    +0.175 C 
BRANCH  13  17
ATOM     17  O2* UNL     1     -38.103  26.146   3.606  0.00  0.00    -0.378 OA
ATOM     18  H2* UNL     1     -38.940  25.932   4.047  0.00  0.00    +0.211 HD
ENDBRANCH  13  17
BRANCH  15  19
ATOM     19  O3* UNL     1     -36.604  26.661   5.824  0.00  0.00    -0.379 OA
ATOM     20  H3* UNL     1     -36.731  26.212   6.675  0.00  0.00    +0.211 HD
ENDBRANCH  15  19
BRANCH  16  21
ATOM     21  C5* UNL     1     -33.717  26.602   4.486  0.00  0.00    +0.169 C 
BRANCH  21  22
ATOM     22  O5* UNL     1     -33.813  26.737   5.893  0.00  0.00    -0.379 OA
ATOM     23  H5* UNL     1     -34.520  26.163   6.225  0.00  0.00    +0.211 HD
ENDBRANCH  21  22
ENDBRANCH  16  21
ENDBRANCH   1  14
BRANCH  10  24
ATOM     24  C   UNL     1     -34.806  18.095   0.135  0.00  0.00    +0.088 C 
BRANCH  24  25
ATOM     25  C   UNL     1     -33.463  17.426   0.410  0.00  0.00    +0.021 C 
BRANCH  25  26
ATOM     26  C   UNL     1     -32.560  18.265   1.320  0.00  0.00    +0.002 C 
BRANCH  26  27
ATOM     27  C   UNL     1     -31.625  19.159   0.502  0.00  0.00    +0.000 C 
BRANCH  27  28
ATOM     28  C   UNL     1     -30.504  18.346  -0.148  0.00  0.00    -0.000 C 
BRANCH  28  29
ATOM     29  C   UNL     1     -29.783  17.470   0.880  0.00  0.00    -0.002 C 
BRANCH  29  30
ATOM     30  C   UNL     1     -29.381  16.122   0.274  0.00  0.00    -0.024 C 
BRANCH  30  31
ATOM     31  C   UNL     1     -30.500  15.476  -0.547  0.00  0.00    -0.086 C 
BRANCH  31  32
ATOM     32  N   UNL     1     -31.314  14.574   0.259  0.00  0.00    +0.380 N 
ATOM     33  H   UNL     1     -32.288  14.638  -0.039  0.00  0.00    -0.089 HD
ATOM     34  H   UNL     1     -31.241  14.835   1.242  0.00  0.00    -0.089 HD
ATOM     35  H   UNL     1     -30.984  13.617   0.136  0.00  0.00    -0.089 HD
ENDBRANCH  31  32
ENDBRANCH  30  31
ENDBRANCH  29  30
ENDBRANCH  28  29
ENDBRANCH  27  28
ENDBRANCH  26  27
ENDBRANCH  25  26
ENDBRANCH  24  25
ENDBRANCH  10  24
TORSDOF 14
ENDMDL
MODEL 6
REMARK VINA RESULT:      -5.4      5.359      9.048
REMARK  Name = 194932
REMARK  14 active torsions:
REMARK  status: ('A' for Active; 'I' for Inactive)
REMARK    1  A    between atoms: N_1  and  C1*_12
REMARK    2  A    between atoms: C2*_11  and  O2*_15
REMARK    3  A    between atoms: C3*_13  and  O3*_17
REMARK    4  A    between atoms: C4*_14  and  C5*_19
REMARK    5  A    between atoms: C5*_19  and  O5*_20
REMARK    6  A    between atoms: N_22  and  C_24
REMARK    7  A    between atoms: C_24  and  C_25
REMARK    8  A    between atoms: C_25  and  C_26
REMARK    9  A    between atoms: C_26  and  C_27
REMARK   10  A    between atoms: C_27  and  C_28
REMARK   11  A    between atoms: C_28  and  C_29
REMARK   12  A    between atoms: C_29  and  C_30
REMARK   13  A    between atoms: C_30  and  C_31
REMARK   14  A    between atoms: C_31  and  N_32
REMARK                            x       y       z     vdW  Elec       q    Type
REMARK                         _______ _______ _______ _____ _____    ______ ____
ROOT
ATOM      1  N   UNL     1     -41.129  25.096   2.220  0.00  0.00    -0.247 N 
ATOM      2  N   UNL     1     -39.284  24.496   3.317  0.00  0.00    -0.242 NA
ATOM      3  N   UNL     1     -41.186  23.364   0.519  0.00  0.00    -0.228 NA
ATOM      4  N   UNL     1     -39.306  21.827   0.757  0.00  0.00    -0.228 NA
ATOM      5  C   UNL     1     -40.658  23.983   1.585  0.00  0.00    +0.152 C 
ATOM      6  C   UNL     1     -40.269  25.366   3.252  0.00  0.00    +0.223 C 
ATOM      7  C   UNL     1     -39.513  23.626   2.281  0.00  0.00    +0.140 C 
ATOM      8  C   UNL     1     -38.813  22.495   1.840  0.00  0.00    +0.146 C 
ATOM      9  C   UNL     1     -40.438  22.292   0.176  0.00  0.00    +0.253 C 
ATOM     10  N   UNL     1     -37.660  22.066   2.478  0.00  0.00    -0.317 N 
ATOM     11  H   UNL     1     -37.341  22.579   3.255  0.00  0.00    +0.148 HD
ENDROOT
BRANCH   1  14
ATOM     12  O4* UNL     1     -42.050  26.686   0.716  0.00  0.00    -0.333 OA
ATOM     13  C2* UNL     1     -42.806  26.792   2.991  0.00  0.00    +0.187 C 
ATOM     14  C1* UNL     1     -42.325  25.866   1.872  0.00  0.00    +0.225 C 
ATOM     15  C3* UNL     1     -42.335  28.157   2.524  0.00  0.00    +0.171 C 
ATOM     16  C4* UNL     1     -42.442  28.036   1.014  0.00  0.00    +0.175 C 
BRANCH  13  17
ATOM     17  O2* UNL     1     -44.228  26.734   3.070  0.00  0.00    -0.378 OA
ATOM     18  H2* UNL     1     -44.612  27.420   2.502  0.00  0.00    +0.211 HD
ENDBRANCH  13  17
BRANCH  15  19
ATOM     19  O3* UNL     1     -43.113  29.222   3.028  0.00  0.00    -0.379 OA
ATOM     20  H3* UNL     1     -42.847  29.413   3.941  0.00  0.00    +0.211 HD
ENDBRANCH  15  19
BRANCH  16  21
ATOM     21  C5* UNL     1     -41.549  29.008   0.265  0.00  0.00    +0.169 C 
BRANCH  21  22
ATOM     22  O5* UNL     1     -41.326  30.143   1.083  0.00  0.00    -0.379 OA
ATOM     23  H5* UNL     1     -41.394  30.947   0.544  0.00  0.00    +0.211 HD
ENDBRANCH  21  22
ENDBRANCH  16  21
ENDBRANCH   1  14
BRANCH  10  24
ATOM     24  C   UNL     1     -36.899  20.911   2.066  0.00  0.00    +0.088 C 
BRANCH  24  25
ATOM     25  C   UNL     1     -35.613  20.792   2.880  0.00  0.00    +0.021 C 
BRANCH  25  26
ATOM     26  C   UNL     1     -35.289  22.067   3.663  0.00  0.00    +0.002 C 
BRANCH  26  27
ATOM     27  C   UNL     1     -35.183  21.786   5.163  0.00  0.00    +0.000 C 
BRANCH  27  28
ATOM     28  C   UNL     1     -35.547  23.021   5.989  0.00  0.00    -0.000 C 
BRANCH  28  29
ATOM     29  C   UNL     1     -34.783  24.257   5.509  0.00  0.00    -0.002 C 
BRANCH  29  30
ATOM     30  C   UNL     1     -35.672  25.504   5.540  0.00  0.00    -0.024 C 
BRANCH  30  31
ATOM     31  C   UNL     1     -36.066  25.993   4.144  0.00  0.00    -0.086 C 
BRANCH  31  32
ATOM     32  N   UNL     1     -35.621  27.360   3.902  0.00  0.00    +0.380 N 
ATOM     33  H   UNL     1     -34.688  27.345   3.489  0.00  0.00    -0.089 HD
ATOM     34  H   UNL     1     -35.595  27.872   4.783  0.00  0.00    -0.089 HD
ATOM     35  H   UNL     1     -36.268  27.820   3.261  0.00  0.00    -0.089 HD
ENDBRANCH  31  32
ENDBRANCH  30  31
ENDBRANCH  29  30
ENDBRANCH  28  29
ENDBRANCH  27  28
ENDBRANCH  26  27
ENDBRANCH  25  26
ENDBRANCH  24  25
ENDBRANCH  10  24
TORSDOF 14
ENDMDL
MODEL 7
REMARK VINA RESULT:      -5.3      5.165      9.488
REMARK  Name = 194932
REMARK  14 active torsions:
REMARK  status: ('A' for Active; 'I' for Inactive)
REMARK    1  A    between atoms: N_1  and  C1*_12
REMARK    2  A    between atoms: C2*_11  and  O2*_15
REMARK    3  A    between atoms: C3*_13  and  O3*_17
REMARK    4  A    between atoms: C4*_14  and  C5*_19
REMARK    5  A    between atoms: C5*_19  and  O5*_20
REMARK    6  A    between atoms: N_22  and  C_24
REMARK    7  A    between atoms: C_24  and  C_25
REMARK    8  A    between atoms: C_25  and  C_26
REMARK    9  A    between atoms: C_26  and  C_27
REMARK   10  A    between atoms: C_27  and  C_28
REMARK   11  A    between atoms: C_28  and  C_29
REMARK   12  A    between atoms: C_29  and  C_30
REMARK   13  A    between atoms: C_30  and  C_31
REMARK   14  A    between atoms: C_31  and  N_32
REMARK                            x       y       z     vdW  Elec       q    Type
REMARK                         _______ _______ _______ _____ _____    ______ ____
ROOT
ATOM      1  N   UNL     1     -36.596  23.312   2.301  0.00  0.00    -0.247 N 
ATOM      2  N   UNL     1     -36.170  21.189   2.831  0.00  0.00    -0.242 NA
ATOM      3  N   UNL     1     -37.432  23.018   0.040  0.00  0.00    -0.228 NA
ATOM      4  N   UNL     1     -37.435  20.664  -0.604  0.00  0.00    -0.228 NA
ATOM      5  C   UNL     1     -36.939  22.573   1.205  0.00  0.00    +0.152 C 
ATOM      6  C   UNL     1     -36.138  22.436   3.250  0.00  0.00    +0.223 C 
ATOM      7  C   UNL     1     -36.668  21.259   1.554  0.00  0.00    +0.140 C 
ATOM      8  C   UNL     1     -36.931  20.267   0.600  0.00  0.00    +0.146 C 
ATOM      9  C   UNL     1     -37.650  21.987  -0.805  0.00  0.00    +0.253 C 
ATOM     10  N   UNL     1     -36.692  18.928   0.866  0.00  0.00    -0.317 N 
ATOM     11  H   UNL     1     -36.329  18.688   1.749  0.00  0.00    +0.148 HD
ENDROOT
BRANCH   1  14
ATOM     12  O4* UNL     1     -35.366  25.338   2.450  0.00  0.00    -0.333 OA
ATOM     13  C2* UNL     1     -37.391  25.209   3.732  0.00  0.00    +0.187 C 
ATOM     14  C1* UNL     1     -36.691  24.766   2.445  0.00  0.00    +0.225 C 
ATOM     15  C3* UNL     1     -36.234  25.647   4.610  0.00  0.00    +0.171 C 
ATOM     16  C4* UNL     1     -35.248  26.198   3.595  0.00  0.00    +0.175 C 
BRANCH  13  17
ATOM     17  O2* UNL     1     -38.261  26.301   3.441  0.00  0.00    -0.378 OA
ATOM     18  H2* UNL     1     -39.122  25.960   3.153  0.00  0.00    +0.211 HD
ENDBRANCH  13  17
BRANCH  15  19
ATOM     19  O3* UNL     1     -36.596  26.610   5.577  0.00  0.00    -0.379 OA
ATOM     20  H3* UNL     1     -35.795  26.983   5.977  0.00  0.00    +0.211 HD
ENDBRANCH  15  19
BRANCH  16  21
ATOM     21  C5* UNL     1     -33.812  26.204   4.087  0.00  0.00    +0.169 C 
BRANCH  21  22
ATOM     22  O5* UNL     1     -33.481  24.902   4.536  0.00  0.00    -0.379 OA
ATOM     23  H5* UNL     1     -33.835  24.768   5.429  0.00  0.00    +0.211 HD
ENDBRANCH  21  22
ENDBRANCH  16  21
ENDBRANCH   1  14
BRANCH  10  24
ATOM     24  C   UNL     1     -36.944  17.866  -0.078  0.00  0.00    +0.088 C 
BRANCH  24  25
ATOM     25  C   UNL     1     -35.672  17.509  -0.841  0.00  0.00    +0.021 C 
BRANCH  25  26
ATOM     26  C   UNL     1     -34.663  16.740   0.017  0.00  0.00    +0.002 C 
BRANCH  26  27
ATOM     27  C   UNL     1     -33.280  17.393  -0.032  0.00  0.00    +0.000 C 
BRANCH  27  28
ATOM     28  C   UNL     1     -33.120  18.443   1.068  0.00  0.00    -0.000 C 
BRANCH  28  29
ATOM     29  C   UNL     1     -32.334  19.658   0.568  0.00  0.00    -0.002 C 
BRANCH  29  30
ATOM     30  C   UNL     1     -33.252  20.869   0.372  0.00  0.00    -0.024 C 
BRANCH  30  31
ATOM     31  C   UNL     1     -33.319  21.341  -1.082  0.00  0.00    -0.086 C 
BRANCH  31  32
ATOM     32  N   UNL     1     -34.395  20.686  -1.817  0.00  0.00    +0.380 N 
ATOM     33  H   UNL     1     -34.099  20.525  -2.781  0.00  0.00    -0.089 HD
ATOM     34  H   UNL     1     -35.223  21.281  -1.811  0.00  0.00    -0.089 HD
ATOM     35  H   UNL     1     -34.614  19.793  -1.376  0.00  0.00    -0.089 HD
ENDBRANCH  31  32
ENDBRANCH  30  31
ENDBRANCH  29  30
ENDBRANCH  28  29
ENDBRANCH  27  28
ENDBRANCH  26  27
ENDBRANCH  25  26
ENDBRANCH  24  25
ENDBRANCH  10  24
TORSDOF 14
ENDMDL
MODEL 8
REMARK VINA RESULT:      -5.3      4.609      8.587
REMARK  Name = 194932
REMARK  14 active torsions:
REMARK  status: ('A' for Active; 'I' for Inactive)
REMARK    1  A    between atoms: N_1  and  C1*_12
REMARK    2  A    between atoms: C2*_11  and  O2*_15
REMARK    3  A    between atoms: C3*_13  and  O3*_17
REMARK    4  A    between atoms: C4*_14  and  C5*_19
REMARK    5  A    between atoms: C5*_19  and  O5*_20
REMARK    6  A    between atoms: N_22  and  C_24
REMARK    7  A    between atoms: C_24  and  C_25
REMARK    8  A    between atoms: C_25  and  C_26
REMARK    9  A    between atoms: C_26  and  C_27
REMARK   10  A    between atoms: C_27  and  C_28
REMARK   11  A    between atoms: C_28  and  C_29
REMARK   12  A    between atoms: C_29  and  C_30
REMARK   13  A    between atoms: C_30  and  C_31
REMARK   14  A    between atoms: C_31  and  N_32
REMARK                            x       y       z     vdW  Elec       q    Type
REMARK                         _______ _______ _______ _____ _____    ______ ____
ROOT
ATOM      1  N   UNL     1     -36.294  31.371   1.359  0.00  0.00    -0.247 N 
ATOM      2  N   UNL     1     -34.547  31.085   2.714  0.00  0.00    -0.242 NA
ATOM      3  N   UNL     1     -36.967  29.058   1.051  0.00  0.00    -0.228 NA
ATOM      4  N   UNL     1     -35.515  27.540   2.293  0.00  0.00    -0.228 NA
ATOM      5  C   UNL     1     -36.188  30.025   1.559  0.00  0.00    +0.152 C 
ATOM      6  C   UNL     1     -35.286  31.965   2.072  0.00  0.00    +0.223 C 
ATOM      7  C   UNL     1     -35.099  29.867   2.403  0.00  0.00    +0.140 C 
ATOM      8  C   UNL     1     -34.755  28.563   2.781  0.00  0.00    +0.146 C 
ATOM      9  C   UNL     1     -36.552  27.844   1.475  0.00  0.00    +0.253 C 
ATOM     10  N   UNL     1     -33.682  28.315   3.623  0.00  0.00    -0.317 N 
ATOM     11  H   UNL     1     -33.163  29.083   3.952  0.00  0.00    +0.148 HD
ENDROOT
BRANCH   1  14
ATOM     12  O4* UNL     1     -36.880  33.430   0.332  0.00  0.00    -0.333 OA
ATOM     13  C2* UNL     1     -38.687  32.087   1.162  0.00  0.00    +0.187 C 
ATOM     14  C1* UNL     1     -37.290  32.062   0.538  0.00  0.00    +0.225 C 
ATOM     15  C3* UNL     1     -38.794  33.505   1.691  0.00  0.00    +0.171 C 
ATOM     16  C4* UNL     1     -37.979  34.290   0.678  0.00  0.00    +0.175 C 
BRANCH  13  17
ATOM     17  O2* UNL     1     -39.659  31.838   0.148  0.00  0.00    -0.378 OA
ATOM     18  H2* UNL     1     -40.485  32.293   0.374  0.00  0.00    +0.211 HD
ENDBRANCH  13  17
BRANCH  15  19
ATOM     19  O3* UNL     1     -40.123  33.973   1.779  0.00  0.00    -0.379 OA
ATOM     20  H3* UNL     1     -40.248  34.711   1.163  0.00  0.00    +0.211 HD
ENDBRANCH  15  19
BRANCH  16  21
ATOM     21  C5* UNL     1     -37.450  35.607   1.216  0.00  0.00    +0.169 C 
BRANCH  21  22
ATOM     22  O5* UNL     1     -38.433  36.179   2.061  0.00  0.00    -0.379 OA
ATOM     23  H5* UNL     1     -38.993  35.476   2.426  0.00  0.00    +0.211 HD
ENDBRANCH  21  22
ENDBRANCH  16  21
ENDBRANCH   1  14
BRANCH  10  24
ATOM     24  C   UNL     1     -33.283  26.993   4.044  0.00  0.00    +0.088 C 
BRANCH  24  25
ATOM     25  C   UNL     1     -33.599  26.778   5.521  0.00  0.00    +0.021 C 
BRANCH  25  26
ATOM     26  C   UNL     1     -34.368  25.479   5.778  0.00  0.00    +0.002 C 
BRANCH  26  27
ATOM     27  C   UNL     1     -35.878  25.696   5.663  0.00  0.00    +0.000 C 
BRANCH  27  28
ATOM     28  C   UNL     1     -36.463  24.927   4.477  0.00  0.00    -0.000 C 
BRANCH  28  29
ATOM     29  C   UNL     1     -35.436  23.965   3.876  0.00  0.00    -0.002 C 
BRANCH  29  30
ATOM     30  C   UNL     1     -35.865  22.507   4.068  0.00  0.00    -0.024 C 
BRANCH  30  31
ATOM     31  C   UNL     1     -35.190  21.836   5.267  0.00  0.00    -0.086 C 
BRANCH  31  32
ATOM     32  N   UNL     1     -35.992  21.953   6.478  0.00  0.00    +0.380 N 
ATOM     33  H   UNL     1     -36.094  22.938   6.724  0.00  0.00    -0.089 HD
ATOM     34  H   UNL     1     -35.531  21.458   7.241  0.00  0.00    -0.089 HD
ATOM     35  H   UNL     1     -36.914  21.547   6.317  0.00  0.00    -0.089 HD
ENDBRANCH  31  32
ENDBRANCH  30  31
ENDBRANCH  29  30
ENDBRANCH  28  29
ENDBRANCH  27  28
ENDBRANCH  26  27
ENDBRANCH  25  26
ENDBRANCH  24  25
ENDBRANCH  10  24
TORSDOF 14
ENDMDL
MODEL 9
REMARK VINA RESULT:      -5.2      4.588      5.911
REMARK  Name = 194932
REMARK  14 active torsions:
REMARK  status: ('A' for Active; 'I' for Inactive)
REMARK    1  A    between atoms: N_1  and  C1*_12
REMARK    2  A    between atoms: C2*_11  and  O2*_15
REMARK    3  A    between atoms: C3*_13  and  O3*_17
REMARK    4  A    between atoms: C4*_14  and  C5*_19
REMARK    5  A    between atoms: C5*_19  and  O5*_20
REMARK    6  A    between atoms: N_22  and  C_24
REMARK    7  A    between atoms: C_24  and  C_25
REMARK    8  A    between atoms: C_25  and  C_26
REMARK    9  A    between atoms: C_26  and  C_27
REMARK   10  A    between atoms: C_27  and  C_28
REMARK   11  A    between atoms: C_28  and  C_29
REMARK   12  A    between atoms: C_29  and  C_30
REMARK   13  A    between atoms: C_30  and  C_31
REMARK   14  A    between atoms: C_31  and  N_32
REMARK                            x       y       z     vdW  Elec       q    Type
REMARK                         _______ _______ _______ _____ _____    ______ ____
ROOT
ATOM      1  N   UNL     1     -37.213  24.490   2.314  0.00  0.00    -0.247 N 
ATOM      2  N   UNL     1     -36.124  26.138   1.279  0.00  0.00    -0.242 NA
ATOM      3  N   UNL     1     -39.501  25.245   2.008  0.00  0.00    -0.228 NA
ATOM      4  N   UNL     1     -39.583  27.348   0.773  0.00  0.00    -0.228 NA
ATOM      5  C   UNL     1     -38.172  25.352   1.864  0.00  0.00    +0.152 C 
ATOM      6  C   UNL     1     -36.000  25.006   1.939  0.00  0.00    +0.223 C 
ATOM      7  C   UNL     1     -37.476  26.368   1.225  0.00  0.00    +0.140 C 
ATOM      8  C   UNL     1     -38.225  27.408   0.657  0.00  0.00    +0.146 C 
ATOM      9  C   UNL     1     -40.125  26.293   1.427  0.00  0.00    +0.253 C 
ATOM     10  N   UNL     1     -37.610  28.461  -0.003  0.00  0.00    -0.317 N 
ATOM     11  H   UNL     1     -36.628  28.462  -0.063  0.00  0.00    +0.148 HD
ENDROOT
BRANCH   1  14
ATOM     12  O4* UNL     1     -36.805  23.351   4.356  0.00  0.00    -0.333 OA
ATOM     13  C2* UNL     1     -36.852  22.011   2.365  0.00  0.00    +0.187 C 
ATOM     14  C1* UNL     1     -37.428  23.248   3.058  0.00  0.00    +0.225 C 
ATOM     15  C3* UNL     1     -35.585  21.742   3.156  0.00  0.00    +0.171 C 
ATOM     16  C4* UNL     1     -35.974  22.194   4.553  0.00  0.00    +0.175 C 
BRANCH  13  17
ATOM     17  O2* UNL     1     -37.776  20.932   2.485  0.00  0.00    -0.378 OA
ATOM     18  H2* UNL     1     -38.544  21.220   3.003  0.00  0.00    +0.211 HD
ENDBRANCH  13  17
BRANCH  15  19
ATOM     19  O3* UNL     1     -35.183  20.389   3.129  0.00  0.00    -0.379 OA
ATOM     20  H3* UNL     1     -35.880  19.853   2.719  0.00  0.00    +0.211 HD
ENDBRANCH  15  19
BRANCH  16  21
ATOM     21  C5* UNL     1     -34.786  22.558   5.424  0.00  0.00    +0.169 C 
BRANCH  21  22
ATOM     22  O5* UNL     1     -34.606  21.540   6.394  0.00  0.00    -0.379 OA
ATOM     23  H5* UNL     1     -35.311  20.880   6.302  0.00  0.00    +0.211 HD
ENDBRANCH  21  22
ENDBRANCH  16  21
ENDBRANCH   1  14
BRANCH  10  24
ATOM     24  C   UNL     1     -38.331  29.558  -0.604  0.00  0.00    +0.088 C 
BRANCH  24  25
ATOM     25  C   UNL     1     -37.622  30.882  -0.336  0.00  0.00    +0.021 C 
BRANCH  25  26
ATOM     26  C   UNL     1     -38.583  31.986   0.113  0.00  0.00    +0.002 C 
BRANCH  26  27
ATOM     27  C   UNL     1     -37.826  33.166   0.727  0.00  0.00    +0.000 C 
BRANCH  27  28
ATOM     28  C   UNL     1     -38.561  33.726   1.945  0.00  0.00    -0.000 C 
BRANCH  28  29
ATOM     29  C   UNL     1     -38.398  35.245   2.045  0.00  0.00    -0.002 C 
BRANCH  29  30
ATOM     30  C   UNL     1     -39.404  35.847   3.031  0.00  0.00    -0.024 C 
BRANCH  30  31
ATOM     31  C   UNL     1     -40.858  35.547   2.661  0.00  0.00    -0.086 C 
BRANCH  31  32
ATOM     32  N   UNL     1     -41.722  35.515   3.835  0.00  0.00    +0.380 N 
ATOM     33  H   UNL     1     -41.194  35.820   4.653  0.00  0.00    -0.089 HD
ATOM     34  H   UNL     1     -42.060  34.564   3.983  0.00  0.00    -0.089 HD
ATOM     35  H   UNL     1     -42.516  36.139   3.691  0.00  0.00    -0.089 HD
ENDBRANCH  31  32
ENDBRANCH  30  31
ENDBRANCH  29  30
ENDBRANCH  28  29
ENDBRANCH  27  28
ENDBRANCH  26  27
ENDBRANCH  25  26
ENDBRANCH  24  25
ENDBRANCH  10  24
TORSDOF 14
ENDMDL
