MODEL 1
REMARK VINA RESULT:      -6.7      0.000      0.000
REMARK  Name = 52921376
REMARK  7 active torsions:
REMARK  status: ('A' for Active; 'I' for Inactive)
REMARK    1  A    between atoms: C_4  and  C_31
REMARK    2  A    between atoms: C_8  and  C_21
REMARK    3  A    between atoms: C_9  and  O_29
REMARK    4  A    between atoms: C_20  and  C_26
REMARK    5  A    between atoms: C_22  and  O_24
REMARK    6  A    between atoms: C_26  and  O_27
REMARK    7  A    between atoms: C_31  and  C_32
REMARK                            x       y       z     vdW  Elec       q    Type
REMARK                         _______ _______ _______ _____ _____    ______ ____
ROOT
ATOM      1  O   UNL     1     -35.219  32.049   0.208  0.00  0.00    -0.479 OA
ATOM      2  O   UNL     1     -36.658  26.363   3.016  0.00  0.00    -0.287 OA
ATOM      3  O   UNL     1     -31.735  27.749   4.567  0.00  0.00    -0.287 OA
ATOM      4  C   UNL     1     -35.980  31.036   0.894  0.00  0.00    +0.191 C 
ATOM      5  C   UNL     1     -35.168  30.072   1.731  0.00  0.00    +0.051 C 
ATOM      6  C   UNL     1     -34.949  27.980   2.946  0.00  0.00    +0.075 C 
ATOM      7  C   UNL     1     -33.878  30.432   2.129  0.00  0.00    +0.005 C 
ATOM      8  C   UNL     1     -34.704  25.800   4.230  0.00  0.00    +0.076 C 
ATOM      9  C   UNL     1     -35.702  28.841   2.140  0.00  0.00    +0.136 C 
ATOM     10  C   UNL     1     -33.666  28.348   3.347  0.00  0.00    +0.045 C 
ATOM     11  C   UNL     1     -35.530  26.688   3.368  0.00  0.00    +0.199 C 
ATOM     12  C   UNL     1     -33.127  29.576   2.941  0.00  0.00    +0.003 C 
ATOM     13  C   UNL     1     -33.474  26.167   4.605  0.00  0.00    +0.046 C 
ATOM     14  C   UNL     1     -33.345  31.712   1.675  0.00  0.00    +0.032 C 
ATOM     15  C   UNL     1     -32.865  27.452   4.200  0.00  0.00    +0.196 C 
ATOM     16  C   UNL     1     -34.011  32.426   0.754  0.00  0.00    +0.117 C 
ATOM     17  C   UNL     1     -33.485  33.716   0.209  0.00  0.00    +0.072 C 
ENDROOT
BRANCH   8  21
ATOM     18  O   UNL     1     -35.072  23.561   3.596  0.00  0.00    -0.324 OA
ATOM     19  O   UNL     1     -34.715  24.107   5.880  0.00  0.00    -0.324 OA
ATOM     20  C   UNL     1     -35.629  22.280   3.916  0.00  0.00    +0.176 C 
ATOM     21  C   UNL     1     -35.310  24.503   4.642  0.00  0.00    +0.263 C 
ATOM     22  C   UNL     1     -35.054  21.793   5.251  0.00  0.00    +0.170 C 
ATOM     23  C   UNL     1     -35.249  22.863   6.321  0.00  0.00    +0.177 C 
BRANCH  22  24
ATOM     24  O   UNL     1     -35.686  20.598   5.682  0.00  0.00    -0.379 OA
ATOM     25  H   UNL     1     -35.463  19.877   5.072  0.00  0.00    +0.211 HD
ENDBRANCH  22  24
BRANCH  20  26
ATOM     26  C   UNL     1     -35.308  21.337   2.763  0.00  0.00    +0.169 C 
BRANCH  26  27
ATOM     27  O   UNL     1     -36.058  20.148   2.928  0.00  0.00    -0.379 OA
ATOM     28  H   UNL     1     -35.532  19.499   3.422  0.00  0.00    +0.211 HD
ENDBRANCH  26  27
ENDBRANCH  20  26
ENDBRANCH   8  21
BRANCH   9  29
ATOM     29  O   UNL     1     -36.961  28.512   1.726  0.00  0.00    -0.506 OA
ATOM     30  H   UNL     1     -37.423  29.075   1.135  0.00  0.00    +0.292 HD
ENDBRANCH   9  29
BRANCH   4  31
ATOM     31  C   UNL     1     -37.049  31.739   1.731  0.00  0.00    +0.048 C 
BRANCH  31  32
ATOM     32  C   UNL     1     -37.769  32.806   0.916  0.00  0.00    +0.004 C 
ATOM     33  C   UNL     1     -38.521  33.771   1.820  0.00  0.00    +0.000 C 
ENDBRANCH  31  32
ENDBRANCH   4  31
TORSDOF 7
ENDMDL
MODEL 2
REMARK VINA RESULT:      -6.6      3.381      6.190
REMARK  Name = 52921376
REMARK  7 active torsions:
REMARK  status: ('A' for Active; 'I' for Inactive)
REMARK    1  A    between atoms: C_4  and  C_31
REMARK    2  A    between atoms: C_8  and  C_21
REMARK    3  A    between atoms: C_9  and  O_29
REMARK    4  A    between atoms: C_20  and  C_26
REMARK    5  A    between atoms: C_22  and  O_24
REMARK    6  A    between atoms: C_26  and  O_27
REMARK    7  A    between atoms: C_31  and  C_32
REMARK                            x       y       z     vdW  Elec       q    Type
REMARK                         _______ _______ _______ _____ _____    ______ ____
ROOT
ATOM      1  O   UNL     1     -28.559  30.724   6.496  0.00  0.00    -0.479 OA
ATOM      2  O   UNL     1     -33.161  26.174   5.866  0.00  0.00    -0.287 OA
ATOM      3  O   UNL     1     -33.774  29.676   1.877  0.00  0.00    -0.287 OA
ATOM      4  C   UNL     1     -29.177  29.422   6.472  0.00  0.00    +0.191 C 
ATOM      5  C   UNL     1     -30.362  29.285   5.541  0.00  0.00    +0.051 C 
ATOM      6  C   UNL     1     -32.343  28.099   4.788  0.00  0.00    +0.075 C 
ATOM      7  C   UNL     1     -30.525  30.207   4.503  0.00  0.00    +0.005 C 
ATOM      8  C   UNL     1     -34.415  26.867   3.980  0.00  0.00    +0.076 C 
ATOM      9  C   UNL     1     -31.276  28.232   5.683  0.00  0.00    +0.136 C 
ATOM     10  C   UNL     1     -32.497  29.016   3.749  0.00  0.00    +0.045 C 
ATOM     11  C   UNL     1     -33.295  26.981   4.953  0.00  0.00    +0.199 C 
ATOM     12  C   UNL     1     -31.588  30.072   3.603  0.00  0.00    +0.003 C 
ATOM     13  C   UNL     1     -34.549  27.757   2.990  0.00  0.00    +0.046 C 
ATOM     14  C   UNL     1     -29.567  31.301   4.390  0.00  0.00    +0.032 C 
ATOM     15  C   UNL     1     -33.614  28.885   2.798  0.00  0.00    +0.196 C 
ATOM     16  C   UNL     1     -28.671  31.510   5.368  0.00  0.00    +0.117 C 
ATOM     17  C   UNL     1     -27.703  32.649   5.335  0.00  0.00    +0.072 C 
ENDROOT
BRANCH   8  21
ATOM     18  O   UNL     1     -36.560  26.045   3.456  0.00  0.00    -0.324 OA
ATOM     19  O   UNL     1     -34.733  24.544   3.680  0.00  0.00    -0.324 OA
ATOM     20  C   UNL     1     -37.528  24.998   3.588  0.00  0.00    +0.176 C 
ATOM     21  C   UNL     1     -35.361  25.732   4.167  0.00  0.00    +0.263 C 
ATOM     22  C   UNL     1     -36.919  23.677   3.104  0.00  0.00    +0.170 C 
ATOM     23  C   UNL     1     -35.598  23.422   3.823  0.00  0.00    +0.177 C 
BRANCH  22  24
ATOM     24  O   UNL     1     -37.789  22.584   3.352  0.00  0.00    -0.379 OA
ATOM     25  H   UNL     1     -38.003  22.550   4.298  0.00  0.00    +0.211 HD
ENDBRANCH  22  24
BRANCH  20  26
ATOM     26  C   UNL     1     -38.757  25.403   2.783  0.00  0.00    +0.169 C 
BRANCH  26  27
ATOM     27  O   UNL     1     -39.354  26.528   3.402  0.00  0.00    -0.379 OA
ATOM     28  H   UNL     1     -40.054  26.232   4.005  0.00  0.00    +0.211 HD
ENDBRANCH  26  27
ENDBRANCH  20  26
ENDBRANCH   8  21
BRANCH   9  29
ATOM     29  O   UNL     1     -31.096  27.353   6.714  0.00  0.00    -0.506 OA
ATOM     30  H   UNL     1     -31.545  27.486   7.526  0.00  0.00    +0.292 HD
ENDBRANCH   9  29
BRANCH   4  31
ATOM     31  C   UNL     1     -28.093  28.394   6.151  0.00  0.00    +0.048 C 
BRANCH  31  32
ATOM     32  C   UNL     1     -27.530  27.775   7.425  0.00  0.00    +0.004 C 
ATOM     33  C   UNL     1     -27.403  26.266   7.291  0.00  0.00    +0.000 C 
ENDBRANCH  31  32
ENDBRANCH   4  31
TORSDOF 7
ENDMDL
MODEL 3
REMARK VINA RESULT:      -6.6      1.636      8.666
REMARK  Name = 52921376
REMARK  7 active torsions:
REMARK  status: ('A' for Active; 'I' for Inactive)
REMARK    1  A    between atoms: C_4  and  C_31
REMARK    2  A    between atoms: C_8  and  C_21
REMARK    3  A    between atoms: C_9  and  O_29
REMARK    4  A    between atoms: C_20  and  C_26
REMARK    5  A    between atoms: C_22  and  O_24
REMARK    6  A    between atoms: C_26  and  O_27
REMARK    7  A    between atoms: C_31  and  C_32
REMARK                            x       y       z     vdW  Elec       q    Type
REMARK                         _______ _______ _______ _____ _____    ______ ____
ROOT
ATOM      1  O   UNL     1     -36.574  22.811   4.506  0.00  0.00    -0.479 OA
ATOM      2  O   UNL     1     -37.351  28.140   0.862  0.00  0.00    -0.287 OA
ATOM      3  O   UNL     1     -33.143  28.947   4.056  0.00  0.00    -0.287 OA
ATOM      4  C   UNL     1     -36.822  23.630   3.346  0.00  0.00    +0.191 C 
ATOM      5  C   UNL     1     -36.146  24.983   3.353  0.00  0.00    +0.051 C 
ATOM      6  C   UNL     1     -35.916  27.245   2.498  0.00  0.00    +0.075 C 
ATOM      7  C   UNL     1     -35.050  25.195   4.195  0.00  0.00    +0.005 C 
ATOM      8  C   UNL     1     -35.654  29.613   1.611  0.00  0.00    +0.076 C 
ATOM      9  C   UNL     1     -36.579  26.012   2.506  0.00  0.00    +0.136 C 
ATOM     10  C   UNL     1     -34.818  27.448   3.334  0.00  0.00    +0.045 C 
ATOM     11  C   UNL     1     -36.386  28.317   1.597  0.00  0.00    +0.199 C 
ATOM     12  C   UNL     1     -34.382  26.424   4.184  0.00  0.00    +0.003 C 
ATOM     13  C   UNL     1     -34.604  29.792   2.420  0.00  0.00    +0.046 C 
ATOM     14  C   UNL     1     -34.633  24.110   5.076  0.00  0.00    +0.032 C 
ATOM     15  C   UNL     1     -34.110  28.740   3.332  0.00  0.00    +0.196 C 
ATOM     16  C   UNL     1     -35.399  23.014   5.198  0.00  0.00    +0.117 C 
ATOM     17  C   UNL     1     -35.051  21.896   6.128  0.00  0.00    +0.072 C 
ENDROOT
BRANCH   8  21
ATOM     18  O   UNL     1     -37.318  31.248   1.280  0.00  0.00    -0.324 OA
ATOM     19  O   UNL     1     -35.101  31.636   0.522  0.00  0.00    -0.324 OA
ATOM     20  C   UNL     1     -37.858  32.286   0.454  0.00  0.00    +0.176 C 
ATOM     21  C   UNL     1     -36.147  30.678   0.694  0.00  0.00    +0.263 C 
ATOM     22  C   UNL     1     -36.782  33.349   0.203  0.00  0.00    +0.170 C 
ATOM     23  C   UNL     1     -35.518  32.690  -0.340  0.00  0.00    +0.177 C 
BRANCH  22  24
ATOM     24  O   UNL     1     -37.224  34.323  -0.730  0.00  0.00    -0.379 OA
ATOM     25  H   UNL     1     -36.512  34.511  -1.362  0.00  0.00    +0.211 HD
ENDBRANCH  22  24
BRANCH  20  26
ATOM     26  C   UNL     1     -39.082  32.850   1.165  0.00  0.00    +0.169 C 
BRANCH  26  27
ATOM     27  O   UNL     1     -40.100  31.866   1.165  0.00  0.00    -0.379 OA
ATOM     28  H   UNL     1     -39.699  30.986   1.079  0.00  0.00    +0.211 HD
ENDBRANCH  26  27
ENDBRANCH  20  26
ENDBRANCH   8  21
BRANCH   9  29
ATOM     29  O   UNL     1     -37.659  25.779   1.703  0.00  0.00    -0.506 OA
ATOM     30  H   UNL     1     -38.403  25.319   2.040  0.00  0.00    +0.292 HD
ENDBRANCH   9  29
BRANCH   4  31
ATOM     31  C   UNL     1     -36.437  22.819   2.109  0.00  0.00    +0.048 C 
BRANCH  31  32
ATOM     32  C   UNL     1     -36.624  21.326   2.352  0.00  0.00    +0.004 C 
ATOM     33  C   UNL     1     -35.295  20.590   2.286  0.00  0.00    +0.000 C 
ENDBRANCH  31  32
ENDBRANCH   4  31
TORSDOF 7
ENDMDL
MODEL 4
REMARK VINA RESULT:      -6.5      2.691      5.442
REMARK  Name = 52921376
REMARK  7 active torsions:
REMARK  status: ('A' for Active; 'I' for Inactive)
REMARK    1  A    between atoms: C_4  and  C_31
REMARK    2  A    between atoms: C_8  and  C_21
REMARK    3  A    between atoms: C_9  and  O_29
REMARK    4  A    between atoms: C_20  and  C_26
REMARK    5  A    between atoms: C_22  and  O_24
REMARK    6  A    between atoms: C_26  and  O_27
REMARK    7  A    between atoms: C_31  and  C_32
REMARK                            x       y       z     vdW  Elec       q    Type
REMARK                         _______ _______ _______ _____ _____    ______ ____
ROOT
ATOM      1  O   UNL     1     -31.866  28.282   4.865  0.00  0.00    -0.479 OA
ATOM      2  O   UNL     1     -34.663  23.957   0.896  0.00  0.00    -0.287 OA
ATOM      3  O   UNL     1     -35.883  22.591   5.916  0.00  0.00    -0.287 OA
ATOM      4  C   UNL     1     -32.586  27.756   3.733  0.00  0.00    +0.191 C 
ATOM      5  C   UNL     1     -33.344  26.472   3.988  0.00  0.00    +0.051 C 
ATOM      6  C   UNL     1     -34.501  24.494   3.181  0.00  0.00    +0.075 C 
ATOM      7  C   UNL     1     -33.656  26.112   5.302  0.00  0.00    +0.005 C 
ATOM      8  C   UNL     1     -35.723  22.423   2.357  0.00  0.00    +0.076 C 
ATOM      9  C   UNL     1     -33.767  25.658   2.927  0.00  0.00    +0.136 C 
ATOM     10  C   UNL     1     -34.816  24.144   4.494  0.00  0.00    +0.045 C 
ATOM     11  C   UNL     1     -34.939  23.651   2.050  0.00  0.00    +0.199 C 
ATOM     12  C   UNL     1     -34.396  24.952   5.558  0.00  0.00    +0.003 C 
ATOM     13  C   UNL     1     -36.015  22.101   3.621  0.00  0.00    +0.046 C 
ATOM     14  C   UNL     1     -33.189  26.970   6.385  0.00  0.00    +0.032 C 
ATOM     15  C   UNL     1     -35.592  22.923   4.774  0.00  0.00    +0.196 C 
ATOM     16  C   UNL     1     -32.331  27.970   6.125  0.00  0.00    +0.117 C 
ATOM     17  C   UNL     1     -31.775  28.846   7.202  0.00  0.00    +0.072 C 
ENDROOT
BRANCH   8  21
ATOM     18  O   UNL     1     -35.200  20.537   1.045  0.00  0.00    -0.324 OA
ATOM     19  O   UNL     1     -37.469  21.099   1.469  0.00  0.00    -0.324 OA
ATOM     20  C   UNL     1     -35.543  19.685  -0.054  0.00  0.00    +0.176 C 
ATOM     21  C   UNL     1     -36.153  21.589   1.200  0.00  0.00    +0.263 C 
ATOM     22  C   UNL     1     -36.959  19.134   0.150  0.00  0.00    +0.170 C 
ATOM     23  C   UNL     1     -37.932  20.282   0.399  0.00  0.00    +0.177 C 
BRANCH  22  24
ATOM     24  O   UNL     1     -37.398  18.403  -0.984  0.00  0.00    -0.379 OA
ATOM     25  H   UNL     1     -38.090  17.776  -0.716  0.00  0.00    +0.211 HD
ENDBRANCH  22  24
BRANCH  20  26
ATOM     26  C   UNL     1     -34.493  18.583  -0.128  0.00  0.00    +0.169 C 
BRANCH  26  27
ATOM     27  O   UNL     1     -35.079  17.369   0.303  0.00  0.00    -0.379 OA
ATOM     28  H   UNL     1     -34.775  17.164   1.202  0.00  0.00    +0.211 HD
ENDBRANCH  26  27
ENDBRANCH  20  26
ENDBRANCH   8  21
BRANCH   9  29
ATOM     29  O   UNL     1     -33.438  26.030   1.655  0.00  0.00    -0.506 OA
ATOM     30  H   UNL     1     -32.841  26.739   1.513  0.00  0.00    +0.292 HD
ENDBRANCH   9  29
BRANCH   4  31
ATOM     31  C   UNL     1     -33.510  28.857   3.213  0.00  0.00    +0.048 C 
BRANCH  31  32
ATOM     32  C   UNL     1     -32.915  30.236   3.464  0.00  0.00    +0.004 C 
ATOM     33  C   UNL     1     -33.886  31.334   3.057  0.00  0.00    +0.000 C 
ENDBRANCH  31  32
ENDBRANCH   4  31
TORSDOF 7
ENDMDL
MODEL 5
REMARK VINA RESULT:      -6.3      4.716      5.804
REMARK  Name = 52921376
REMARK  7 active torsions:
REMARK  status: ('A' for Active; 'I' for Inactive)
REMARK    1  A    between atoms: C_4  and  C_31
REMARK    2  A    between atoms: C_8  and  C_21
REMARK    3  A    between atoms: C_9  and  O_29
REMARK    4  A    between atoms: C_20  and  C_26
REMARK    5  A    between atoms: C_22  and  O_24
REMARK    6  A    between atoms: C_26  and  O_27
REMARK    7  A    between atoms: C_31  and  C_32
REMARK                            x       y       z     vdW  Elec       q    Type
REMARK                         _______ _______ _______ _____ _____    ______ ____
ROOT
ATOM      1  O   UNL     1     -37.942  34.368  -0.306  0.00  0.00    -0.479 OA
ATOM      2  O   UNL     1     -34.721  29.961   3.227  0.00  0.00    -0.287 OA
ATOM      3  O   UNL     1     -31.531  34.203   2.609  0.00  0.00    -0.287 OA
ATOM      4  C   UNL     1     -37.690  33.360   0.693  0.00  0.00    +0.191 C 
ATOM      5  C   UNL     1     -36.268  33.299   1.206  0.00  0.00    +0.051 C 
ATOM      6  C   UNL     1     -34.482  32.142   2.377  0.00  0.00    +0.075 C 
ATOM      7  C   UNL     1     -35.432  34.407   1.036  0.00  0.00    +0.005 C 
ATOM      8  C   UNL     1     -32.603  30.950   3.607  0.00  0.00    +0.076 C 
ATOM      9  C   UNL     1     -35.789  32.165   1.876  0.00  0.00    +0.136 C 
ATOM     10  C   UNL     1     -33.655  33.252   2.213  0.00  0.00    +0.045 C 
ATOM     11  C   UNL     1     -33.996  30.938   3.082  0.00  0.00    +0.199 C 
ATOM     12  C   UNL     1     -34.128  34.388   1.543  0.00  0.00    +0.003 C 
ATOM     13  C   UNL     1     -31.823  32.023   3.439  0.00  0.00    +0.046 C 
ATOM     14  C   UNL     1     -35.955  35.566   0.322  0.00  0.00    +0.032 C 
ATOM     15  C   UNL     1     -32.279  33.242   2.740  0.00  0.00    +0.196 C 
ATOM     16  C   UNL     1     -37.137  35.487  -0.309  0.00  0.00    +0.117 C 
ATOM     17  C   UNL     1     -37.696  36.624  -1.104  0.00  0.00    +0.072 C 
ENDROOT
BRANCH   8  21
ATOM     18  O   UNL     1     -30.755  29.542   3.996  0.00  0.00    -0.324 OA
ATOM     19  O   UNL     1     -32.354  29.909   5.714  0.00  0.00    -0.324 OA
ATOM     20  C   UNL     1     -30.227  28.376   4.639  0.00  0.00    +0.176 C 
ATOM     21  C   UNL     1     -32.136  29.725   4.314  0.00  0.00    +0.263 C 
ATOM     22  C   UNL     1     -30.444  28.487   6.153  0.00  0.00    +0.170 C 
ATOM     23  C   UNL     1     -31.914  28.769   6.447  0.00  0.00    +0.177 C 
BRANCH  22  24
ATOM     24  O   UNL     1     -30.070  27.290   6.819  0.00  0.00    -0.379 OA
ATOM     25  H   UNL     1     -29.296  27.461   7.379  0.00  0.00    +0.211 HD
ENDBRANCH  22  24
BRANCH  20  26
ATOM     26  C   UNL     1     -28.752  28.274   4.268  0.00  0.00    +0.169 C 
BRANCH  26  27
ATOM     27  O   UNL     1     -28.305  26.960   4.547  0.00  0.00    -0.379 OA
ATOM     28  H   UNL     1     -28.309  26.813   5.506  0.00  0.00    +0.211 HD
ENDBRANCH  26  27
ENDBRANCH  20  26
ENDBRANCH   8  21
BRANCH   9  29
ATOM     29  O   UNL     1     -36.625  31.094   2.016  0.00  0.00    -0.506 OA
ATOM     30  H   UNL     1     -36.624  30.600   2.813  0.00  0.00    +0.292 HD
ENDBRANCH   9  29
BRANCH   4  31
ATOM     31  C   UNL     1     -38.686  33.572   1.833  0.00  0.00    +0.048 C 
BRANCH  31  32
ATOM     32  C   UNL     1     -39.608  34.750   1.545  0.00  0.00    +0.004 C 
ATOM     33  C   UNL     1     -39.475  35.824   2.613  0.00  0.00    +0.000 C 
ENDBRANCH  31  32
ENDBRANCH   4  31
TORSDOF 7
ENDMDL
MODEL 6
REMARK VINA RESULT:      -6.3      1.865      8.680
REMARK  Name = 52921376
REMARK  7 active torsions:
REMARK  status: ('A' for Active; 'I' for Inactive)
REMARK    1  A    between atoms: C_4  and  C_31
REMARK    2  A    between atoms: C_8  and  C_21
REMARK    3  A    between atoms: C_9  and  O_29
REMARK    4  A    between atoms: C_20  and  C_26
REMARK    5  A    between atoms: C_22  and  O_24
REMARK    6  A    between atoms: C_26  and  O_27
REMARK    7  A    between atoms: C_31  and  C_32
REMARK                            x       y       z     vdW  Elec       q    Type
REMARK                         _______ _______ _______ _____ _____    ______ ____
ROOT
ATOM      1  O   UNL     1     -36.715  23.603   4.828  0.00  0.00    -0.479 OA
ATOM      2  O   UNL     1     -36.389  29.308   1.725  0.00  0.00    -0.287 OA
ATOM      3  O   UNL     1     -31.708  28.515   4.176  0.00  0.00    -0.287 OA
ATOM      4  C   UNL     1     -36.875  24.584   3.785  0.00  0.00    +0.191 C 
ATOM      5  C   UNL     1     -35.831  25.678   3.760  0.00  0.00    +0.051 C 
ATOM      6  C   UNL     1     -35.062  27.862   3.024  0.00  0.00    +0.075 C 
ATOM      7  C   UNL     1     -34.609  25.473   4.408  0.00  0.00    +0.005 C 
ATOM      8  C   UNL     1     -34.237  30.141   2.258  0.00  0.00    +0.076 C 
ATOM      9  C   UNL     1     -36.056  26.877   3.069  0.00  0.00    +0.136 C 
ATOM     10  C   UNL     1     -33.843  27.648   3.665  0.00  0.00    +0.045 C 
ATOM     11  C   UNL     1     -35.318  29.118   2.289  0.00  0.00    +0.199 C 
ATOM     12  C   UNL     1     -33.613  26.453   4.358  0.00  0.00    +0.003 C 
ATOM     13  C   UNL     1     -33.074  29.921   2.879  0.00  0.00    +0.046 C 
ATOM     14  C   UNL     1     -34.411  24.221   5.130  0.00  0.00    +0.032 C 
ATOM     15  C   UNL     1     -32.788  28.676   3.621  0.00  0.00    +0.196 C 
ATOM     16  C   UNL     1     -35.443  23.383   5.315  0.00  0.00    +0.117 C 
ATOM     17  C   UNL     1     -35.313  22.114   6.096  0.00  0.00    +0.072 C 
ENDROOT
BRANCH   8  21
ATOM     18  O   UNL     1     -33.859  32.466   2.195  0.00  0.00    -0.324 OA
ATOM     19  O   UNL     1     -34.048  31.236   0.172  0.00  0.00    -0.324 OA
ATOM     20  C   UNL     1     -34.082  33.718   1.538  0.00  0.00    +0.176 C 
ATOM     21  C   UNL     1     -34.518  31.399   1.511  0.00  0.00    +0.263 C 
ATOM     22  C   UNL     1     -33.621  33.618   0.079  0.00  0.00    +0.170 C 
ATOM     23  C   UNL     1     -34.280  32.417  -0.591  0.00  0.00    +0.177 C 
BRANCH  22  24
ATOM     24  O   UNL     1     -33.957  34.787  -0.652  0.00  0.00    -0.379 OA
ATOM     25  H   UNL     1     -34.922  34.893  -0.666  0.00  0.00    +0.211 HD
ENDBRANCH  22  24
BRANCH  20  26
ATOM     26  C   UNL     1     -33.326  34.788   2.316  0.00  0.00    +0.169 C 
BRANCH  26  27
ATOM     27  O   UNL     1     -32.121  35.080   1.632  0.00  0.00    -0.379 OA
ATOM     28  H   UNL     1     -31.435  34.449   1.902  0.00  0.00    +0.211 HD
ENDBRANCH  26  27
ENDBRANCH  20  26
ENDBRANCH   8  21
BRANCH   9  29
ATOM     29  O   UNL     1     -37.263  27.054   2.455  0.00  0.00    -0.506 OA
ATOM     30  H   UNL     1     -37.382  26.778   1.567  0.00  0.00    +0.292 HD
ENDBRANCH   9  29
BRANCH   4  31
ATOM     31  C   UNL     1     -36.940  23.842   2.450  0.00  0.00    +0.048 C 
BRANCH  31  32
ATOM     32  C   UNL     1     -37.758  22.562   2.573  0.00  0.00    +0.004 C 
ATOM     33  C   UNL     1     -39.212  22.803   2.200  0.00  0.00    +0.000 C 
ENDBRANCH  31  32
ENDBRANCH   4  31
TORSDOF 7
ENDMDL
MODEL 7
REMARK VINA RESULT:      -6.2      4.069      7.585
REMARK  Name = 52921376
REMARK  7 active torsions:
REMARK  status: ('A' for Active; 'I' for Inactive)
REMARK    1  A    between atoms: C_4  and  C_31
REMARK    2  A    between atoms: C_8  and  C_21
REMARK    3  A    between atoms: C_9  and  O_29
REMARK    4  A    between atoms: C_20  and  C_26
REMARK    5  A    between atoms: C_22  and  O_24
REMARK    6  A    between atoms: C_26  and  O_27
REMARK    7  A    between atoms: C_31  and  C_32
REMARK                            x       y       z     vdW  Elec       q    Type
REMARK                         _______ _______ _______ _____ _____    ______ ____
ROOT
ATOM      1  O   UNL     1     -37.962  23.337   3.369  0.00  0.00    -0.479 OA
ATOM      2  O   UNL     1     -33.577  27.922   4.795  0.00  0.00    -0.287 OA
ATOM      3  O   UNL     1     -31.707  25.109   0.654  0.00  0.00    -0.287 OA
ATOM      4  C   UNL     1     -37.421  24.625   3.726  0.00  0.00    +0.191 C 
ATOM      5  C   UNL     1     -36.029  24.908   3.205  0.00  0.00    +0.051 C 
ATOM      6  C   UNL     1     -33.970  26.198   3.243  0.00  0.00    +0.075 C 
ATOM      7  C   UNL     1     -35.538  24.166   2.127  0.00  0.00    +0.005 C 
ATOM      8  C   UNL     1     -31.812  27.540   3.262  0.00  0.00    +0.076 C 
ATOM      9  C   UNL     1     -35.240  25.924   3.764  0.00  0.00    +0.136 C 
ATOM     10  C   UNL     1     -33.489  25.460   2.162  0.00  0.00    +0.045 C 
ATOM     11  C   UNL     1     -33.155  27.273   3.844  0.00  0.00    +0.199 C 
ATOM     12  C   UNL     1     -34.272  24.443   1.600  0.00  0.00    +0.003 C 
ATOM     13  C   UNL     1     -31.365  26.822   2.226  0.00  0.00    +0.046 C 
ATOM     14  C   UNL     1     -36.376  23.106   1.577  0.00  0.00    +0.032 C 
ATOM     15  C   UNL     1     -32.156  25.741   1.602  0.00  0.00    +0.196 C 
ATOM     16  C   UNL     1     -37.501  22.744   2.214  0.00  0.00    +0.117 C 
ATOM     17  C   UNL     1     -38.369  21.626   1.728  0.00  0.00    +0.072 C 
ENDROOT
BRANCH   8  21
ATOM     18  O   UNL     1     -30.217  28.045   4.920  0.00  0.00    -0.324 OA
ATOM     19  O   UNL     1     -30.213  29.235   2.864  0.00  0.00    -0.324 OA
ATOM     20  C   UNL     1     -29.411  29.032   5.575  0.00  0.00    +0.176 C 
ATOM     21  C   UNL     1     -31.009  28.629   3.885  0.00  0.00    +0.263 C 
ATOM     22  C   UNL     1     -28.539  29.748   4.536  0.00  0.00    +0.170 C 
ATOM     23  C   UNL     1     -29.411  30.281   3.404  0.00  0.00    +0.177 C 
BRANCH  22  24
ATOM     24  O   UNL     1     -27.832  30.834   5.115  0.00  0.00    -0.379 OA
ATOM     25  H   UNL     1     -28.086  30.926   6.047  0.00  0.00    +0.211 HD
ENDBRANCH  22  24
BRANCH  20  26
ATOM     26  C   UNL     1     -28.585  28.321   6.640  0.00  0.00    +0.169 C 
BRANCH  26  27
ATOM     27  O   UNL     1     -29.241  27.116   6.991  0.00  0.00    -0.379 OA
ATOM     28  H   UNL     1     -30.137  27.315   7.306  0.00  0.00    +0.211 HD
ENDBRANCH  26  27
ENDBRANCH  20  26
ENDBRANCH   8  21
BRANCH   9  29
ATOM     29  O   UNL     1     -35.742  26.624   4.823  0.00  0.00    -0.506 OA
ATOM     30  H   UNL     1     -36.615  26.964   4.790  0.00  0.00    +0.292 HD
ENDBRANCH   9  29
BRANCH   4  31
ATOM     31  C   UNL     1     -38.415  25.693   3.272  0.00  0.00    +0.048 C 
BRANCH  31  32
ATOM     32  C   UNL     1     -39.837  25.144   3.248  0.00  0.00    +0.004 C 
ATOM     33  C   UNL     1     -40.458  25.293   1.868  0.00  0.00    +0.000 C 
ENDBRANCH  31  32
ENDBRANCH   4  31
TORSDOF 7
ENDMDL
MODEL 8
REMARK VINA RESULT:      -6.2      3.024      4.888
REMARK  Name = 52921376
REMARK  7 active torsions:
REMARK  status: ('A' for Active; 'I' for Inactive)
REMARK    1  A    between atoms: C_4  and  C_31
REMARK    2  A    between atoms: C_8  and  C_21
REMARK    3  A    between atoms: C_9  and  O_29
REMARK    4  A    between atoms: C_20  and  C_26
REMARK    5  A    between atoms: C_22  and  O_24
REMARK    6  A    between atoms: C_26  and  O_27
REMARK    7  A    between atoms: C_31  and  C_32
REMARK                            x       y       z     vdW  Elec       q    Type
REMARK                         _______ _______ _______ _____ _____    ______ ____
ROOT
ATOM      1  O   UNL     1     -31.518  30.644   5.516  0.00  0.00    -0.479 OA
ATOM      2  O   UNL     1     -34.286  24.776   5.093  0.00  0.00    -0.287 OA
ATOM      3  O   UNL     1     -34.923  27.222   0.385  0.00  0.00    -0.287 OA
ATOM      4  C   UNL     1     -31.702  29.223   5.670  0.00  0.00    +0.191 C 
ATOM      5  C   UNL     1     -32.533  28.558   4.596  0.00  0.00    +0.051 C 
ATOM      6  C   UNL     1     -33.836  26.676   3.781  0.00  0.00    +0.075 C 
ATOM      7  C   UNL     1     -32.705  29.203   3.367  0.00  0.00    +0.005 C 
ATOM      8  C   UNL     1     -35.196  24.715   2.907  0.00  0.00    +0.076 C 
ATOM      9  C   UNL     1     -33.103  27.293   4.801  0.00  0.00    +0.136 C 
ATOM     10  C   UNL     1     -33.998  27.321   2.555  0.00  0.00    +0.045 C 
ATOM     11  C   UNL     1     -34.427  25.343   4.015  0.00  0.00    +0.199 C 
ATOM     12  C   UNL     1     -33.432  28.585   2.344  0.00  0.00    +0.003 C 
ATOM     13  C   UNL     1     -35.343  25.347   1.737  0.00  0.00    +0.046 C 
ATOM     14  C   UNL     1     -32.113  30.524   3.190  0.00  0.00    +0.032 C 
ATOM     15  C   UNL     1     -34.764  26.680   1.471  0.00  0.00    +0.196 C 
ATOM     16  C   UNL     1     -31.582  31.167   4.241  0.00  0.00    +0.117 C 
ATOM     17  C   UNL     1     -31.013  32.546   4.131  0.00  0.00    +0.072 C 
ENDROOT
BRANCH   8  21
ATOM     18  O   UNL     1     -36.979  23.263   2.395  0.00  0.00    -0.324 OA
ATOM     19  O   UNL     1     -34.812  22.384   2.810  0.00  0.00    -0.324 OA
ATOM     20  C   UNL     1     -37.609  21.991   2.592  0.00  0.00    +0.176 C 
ATOM     21  C   UNL     1     -35.782  23.370   3.167  0.00  0.00    +0.263 C 
ATOM     22  C   UNL     1     -36.618  20.873   2.249  0.00  0.00    +0.170 C 
ATOM     23  C   UNL     1     -35.321  21.072   3.028  0.00  0.00    +0.177 C 
BRANCH  22  24
ATOM     24  O   UNL     1     -37.148  19.596   2.569  0.00  0.00    -0.379 OA
ATOM     25  H   UNL     1     -36.862  18.951   1.901  0.00  0.00    +0.211 HD
ENDBRANCH  22  24
BRANCH  20  26
ATOM     26  C   UNL     1     -38.856  21.955   1.716  0.00  0.00    +0.169 C 
BRANCH  26  27
ATOM     27  O   UNL     1     -39.756  21.001   2.250  0.00  0.00    -0.379 OA
ATOM     28  H   UNL     1     -40.612  21.424   2.422  0.00  0.00    +0.211 HD
ENDBRANCH  26  27
ENDBRANCH  20  26
ENDBRANCH   8  21
BRANCH   9  29
ATOM     29  O   UNL     1     -32.927  26.693   6.015  0.00  0.00    -0.506 OA
ATOM     30  H   UNL     1     -33.192  25.803   6.140  0.00  0.00    +0.292 HD
ENDBRANCH   9  29
BRANCH   4  31
ATOM     31  C   UNL     1     -30.319  28.582   5.784  0.00  0.00    +0.048 C 
BRANCH  31  32
ATOM     32  C   UNL     1     -29.439  29.347   6.765  0.00  0.00    +0.004 C 
ATOM     33  C   UNL     1     -28.087  29.671   6.150  0.00  0.00    +0.000 C 
ENDBRANCH  31  32
ENDBRANCH   4  31
TORSDOF 7
ENDMDL
MODEL 9
REMARK VINA RESULT:      -6.2      4.876     10.395
REMARK  Name = 52921376
REMARK  7 active torsions:
REMARK  status: ('A' for Active; 'I' for Inactive)
REMARK    1  A    between atoms: C_4  and  C_31
REMARK    2  A    between atoms: C_8  and  C_21
REMARK    3  A    between atoms: C_9  and  O_29
REMARK    4  A    between atoms: C_20  and  C_26
REMARK    5  A    between atoms: C_22  and  O_24
REMARK    6  A    between atoms: C_26  and  O_27
REMARK    7  A    between atoms: C_31  and  C_32
REMARK                            x       y       z     vdW  Elec       q    Type
REMARK                         _______ _______ _______ _____ _____    ______ ____
ROOT
ATOM      1  O   UNL     1     -30.596  17.026   0.392  0.00  0.00    -0.479 OA
ATOM      2  O   UNL     1     -35.482  20.876   2.286  0.00  0.00    -0.287 OA
ATOM      3  O   UNL     1     -32.407  23.675  -1.070  0.00  0.00    -0.287 OA
ATOM      4  C   UNL     1     -31.933  17.443   0.733  0.00  0.00    +0.191 C 
ATOM      5  C   UNL     1     -32.233  18.907   0.500  0.00  0.00    +0.051 C 
ATOM      6  C   UNL     1     -33.613  20.874   0.857  0.00  0.00    +0.075 C 
ATOM      7  C   UNL     1     -31.423  19.640  -0.373  0.00  0.00    +0.005 C 
ATOM      8  C   UNL     1     -35.048  22.942   1.212  0.00  0.00    +0.076 C 
ATOM      9  C   UNL     1     -33.328  19.528   1.116  0.00  0.00    +0.136 C 
ATOM     10  C   UNL     1     -32.806  21.598  -0.020  0.00  0.00    +0.045 C 
ATOM     11  C   UNL     1     -34.772  21.511   1.515  0.00  0.00    +0.199 C 
ATOM     12  C   UNL     1     -31.710  20.983  -0.638  0.00  0.00    +0.003 C 
ATOM     13  C   UNL     1     -34.264  23.622   0.370  0.00  0.00    +0.046 C 
ATOM     14  C   UNL     1     -30.283  18.969  -0.987  0.00  0.00    +0.032 C 
ATOM     15  C   UNL     1     -33.098  23.014  -0.304  0.00  0.00    +0.196 C 
ATOM     16  C   UNL     1     -29.926  17.742  -0.576  0.00  0.00    +0.117 C 
ATOM     17  C   UNL     1     -28.732  17.030  -1.128  0.00  0.00    +0.072 C 
ENDROOT
BRANCH   8  21
ATOM     18  O   UNL     1     -35.774  24.095   3.134  0.00  0.00    -0.324 OA
ATOM     19  O   UNL     1     -36.754  24.568   1.022  0.00  0.00    -0.324 OA
ATOM     20  C   UNL     1     -36.850  24.711   3.851  0.00  0.00    +0.176 C 
ATOM     21  C   UNL     1     -36.223  23.562   1.888  0.00  0.00    +0.263 C 
ATOM     22  C   UNL     1     -37.492  25.794   2.975  0.00  0.00    +0.170 C 
ATOM     23  C   UNL     1     -37.877  25.206   1.622  0.00  0.00    +0.177 C 
BRANCH  22  24
ATOM     24  O   UNL     1     -38.655  26.332   3.585  0.00  0.00    -0.379 OA
ATOM     25  H   UNL     1     -39.085  25.645   4.120  0.00  0.00    +0.211 HD
ENDBRANCH  22  24
BRANCH  20  26
ATOM     26  C   UNL     1     -36.279  25.272   5.148  0.00  0.00    +0.169 C 
BRANCH  26  27
ATOM     27  O   UNL     1     -36.481  26.673   5.163  0.00  0.00    -0.379 OA
ATOM     28  H   UNL     1     -37.349  26.879   4.779  0.00  0.00    +0.211 HD
ENDBRANCH  26  27
ENDBRANCH  20  26
ENDBRANCH   8  21
BRANCH   9  29
ATOM     29  O   UNL     1     -34.095  18.790   1.972  0.00  0.00    -0.506 OA
ATOM     30  H   UNL     1     -33.692  18.161   2.538  0.00  0.00    +0.292 HD
ENDBRANCH   9  29
BRANCH   4  31
ATOM     31  C   UNL     1     -32.912  16.544  -0.023  0.00  0.00    +0.048 C 
BRANCH  31  32
ATOM     32  C   UNL     1     -32.263  15.216  -0.393  0.00  0.00    +0.004 C 
ATOM     33  C   UNL     1     -32.259  15.009  -1.899  0.00  0.00    +0.000 C 
ENDBRANCH  31  32
ENDBRANCH   4  31
TORSDOF 7
ENDMDL
