MODEL 1
REMARK VINA RESULT:      -5.7      0.000      0.000
REMARK  Name = 191343
REMARK  9 active torsions:
REMARK  status: ('A' for Active; 'I' for Inactive)
REMARK    1  A    between atoms: C_4  and  O_17
REMARK    2  A    between atoms: C_4  and  C_19
REMARK    3  A    between atoms: C_5  and  N_8
REMARK    4  A    between atoms: C_9  and  C_11
REMARK    5  A    between atoms: C_11  and  N_13
REMARK    6  A    between atoms: C_19  and  C_20
REMARK    7  A    between atoms: C_20  and  C_21
REMARK    8  A    between atoms: C_21  and  C_23
REMARK    9  A    between atoms: C_23  and  O_24
REMARK                            x       y       z     vdW  Elec       q    Type
REMARK                         _______ _______ _______ _____ _____    ______ ____
ROOT
ATOM      1 CL   UNL     1     -35.326  27.526   0.608  0.00  0.00    +0.006 Cl
ATOM      2  O   UNL     1     -34.447  28.551   3.619  0.00  0.00    -0.271 OA
ATOM      3  N   UNL     1     -35.578  27.056   2.193  0.00  0.00    -0.181 N 
ATOM      4  C   UNL     1     -35.519  26.288   4.115  0.00  0.00    +0.193 C 
ATOM      5  C   UNL     1     -36.063  25.814   2.759  0.00  0.00    +0.199 C 
ATOM      6  C   UNL     1     -35.062  27.544   3.353  0.00  0.00    +0.268 C 
ENDROOT
BRANCH   5   8
ATOM      7  O   UNL     1     -37.625  23.486   3.429  0.00  0.00    -0.277 OA
ATOM      8  N   UNL     1     -37.528  25.680   2.693  0.00  0.00    -0.289 N 
ATOM      9  C   UNL     1     -38.188  24.507   3.039  0.00  0.00    +0.203 C 
ATOM     10  H   UNL     1     -38.061  26.451   2.391  0.00  0.00    +0.151 HD
BRANCH   9  11
ATOM     11  C   UNL     1     -39.697  24.620   2.867  0.00  0.00    +0.013 C 
ATOM     12  C   UNL     1     -40.027  25.589   1.737  0.00  0.00    -0.015 C 
BRANCH  11  13
ATOM     13  N   UNL     1     -40.268  25.098   4.123  0.00  0.00    +0.387 N 
ATOM     14  H   UNL     1     -40.620  26.048   3.997  0.00  0.00    -0.089 HD
ATOM     15  H   UNL     1     -39.548  25.095   4.846  0.00  0.00    -0.089 HD
ATOM     16  H   UNL     1     -41.034  24.486   4.404  0.00  0.00    -0.089 HD
ENDBRANCH  11  13
ENDBRANCH   9  11
ENDBRANCH   5   8
BRANCH   4  17
ATOM     17  O   UNL     1     -36.467  26.576   5.157  0.00  0.00    -0.375 OA
ATOM     18  H   UNL     1     -36.771  25.747   5.556  0.00  0.00    +0.211 HD
ENDBRANCH   4  17
BRANCH   4  19
ATOM     19  C   UNL     1     -34.394  25.450   4.671  0.00  0.00    +0.040 C 
BRANCH  19  20
ATOM     20  C   UNL     1     -34.899  24.351   5.614  0.00  0.00    +0.015 C 
BRANCH  20  21
ATOM     21  C   UNL     1     -34.673  22.942   5.061  0.00  0.00    +0.109 C 
BRANCH  21  23
ATOM     22  O   UNL     1     -36.173  22.120   6.794  0.00  0.00    -0.250 OA
ATOM     23  C   UNL     1     -35.397  21.894   5.875  0.00  0.00    +0.314 C 
BRANCH  23  24
ATOM     24  O   UNL     1     -35.087  20.640   5.458  0.00  0.00    -0.480 OA
ATOM     25  H   UNL     1     -34.195  20.353   5.459  0.00  0.00    +0.295 HD
ENDBRANCH  23  24
ENDBRANCH  21  23
ENDBRANCH  20  21
ENDBRANCH  19  20
ENDBRANCH   4  19
TORSDOF 9
ENDMDL
MODEL 2
REMARK VINA RESULT:      -5.5      3.706      5.005
REMARK  Name = 191343
REMARK  9 active torsions:
REMARK  status: ('A' for Active; 'I' for Inactive)
REMARK    1  A    between atoms: C_4  and  O_17
REMARK    2  A    between atoms: C_4  and  C_19
REMARK    3  A    between atoms: C_5  and  N_8
REMARK    4  A    between atoms: C_9  and  C_11
REMARK    5  A    between atoms: C_11  and  N_13
REMARK    6  A    between atoms: C_19  and  C_20
REMARK    7  A    between atoms: C_20  and  C_21
REMARK    8  A    between atoms: C_21  and  C_23
REMARK    9  A    between atoms: C_23  and  O_24
REMARK                            x       y       z     vdW  Elec       q    Type
REMARK                         _______ _______ _______ _____ _____    ______ ____
ROOT
ATOM      1 CL   UNL     1     -35.535  24.030   5.633  0.00  0.00    +0.006 Cl
ATOM      2  O   UNL     1     -34.986  20.825   5.064  0.00  0.00    -0.271 OA
ATOM      3  N   UNL     1     -35.939  22.896   4.472  0.00  0.00    -0.181 N 
ATOM      4  C   UNL     1     -36.064  21.581   2.877  0.00  0.00    +0.193 C 
ATOM      5  C   UNL     1     -36.457  23.045   3.127  0.00  0.00    +0.199 C 
ATOM      6  C   UNL     1     -35.553  21.600   4.328  0.00  0.00    +0.268 C 
ENDROOT
BRANCH   5   8
ATOM      7  O   UNL     1     -37.756  25.613   3.292  0.00  0.00    -0.277 OA
ATOM      8  N   UNL     1     -37.906  23.311   3.090  0.00  0.00    -0.289 N 
ATOM      9  C   UNL     1     -38.433  24.593   3.178  0.00  0.00    +0.203 C 
ATOM     10  H   UNL     1     -38.524  22.550   3.000  0.00  0.00    +0.151 HD
BRANCH   9  11
ATOM     11  C   UNL     1     -39.956  24.596   3.134  0.00  0.00    +0.013 C 
ATOM     12  C   UNL     1     -40.441  24.536   1.690  0.00  0.00    -0.015 C 
BRANCH  11  13
ATOM     13  N   UNL     1     -40.430  25.819   3.775  0.00  0.00    +0.387 N 
ATOM     14  H   UNL     1     -40.848  25.590   4.678  0.00  0.00    -0.089 HD
ATOM     15  H   UNL     1     -41.128  26.266   3.181  0.00  0.00    -0.089 HD
ATOM     16  H   UNL     1     -39.647  26.456   3.916  0.00  0.00    -0.089 HD
ENDBRANCH  11  13
ENDBRANCH   9  11
ENDBRANCH   5   8
BRANCH   4  17
ATOM     17  O   UNL     1     -37.118  20.627   2.664  0.00  0.00    -0.375 OA
ATOM     18  H   UNL     1     -37.804  21.023   2.106  0.00  0.00    +0.211 HD
ENDBRANCH   4  17
BRANCH   4  19
ATOM     19  C   UNL     1     -34.987  21.387   1.838  0.00  0.00    +0.040 C 
BRANCH  19  20
ATOM     20  C   UNL     1     -34.752  19.907   1.514  0.00  0.00    +0.015 C 
BRANCH  20  21
ATOM     21  C   UNL     1     -33.302  19.604   1.131  0.00  0.00    +0.109 C 
BRANCH  21  23
ATOM     22  O   UNL     1     -31.972  17.627   1.635  0.00  0.00    -0.250 OA
ATOM     23  C   UNL     1     -33.000  18.124   1.195  0.00  0.00    +0.314 C 
BRANCH  23  24
ATOM     24  O   UNL     1     -34.028  17.386   0.702  0.00  0.00    -0.480 OA
ATOM     25  H   UNL     1     -33.958  16.992  -0.145  0.00  0.00    +0.295 HD
ENDBRANCH  23  24
ENDBRANCH  21  23
ENDBRANCH  20  21
ENDBRANCH  19  20
ENDBRANCH   4  19
TORSDOF 9
ENDMDL
MODEL 3
REMARK VINA RESULT:      -5.5      5.270      6.962
REMARK  Name = 191343
REMARK  9 active torsions:
REMARK  status: ('A' for Active; 'I' for Inactive)
REMARK    1  A    between atoms: C_4  and  O_17
REMARK    2  A    between atoms: C_4  and  C_19
REMARK    3  A    between atoms: C_5  and  N_8
REMARK    4  A    between atoms: C_9  and  C_11
REMARK    5  A    between atoms: C_11  and  N_13
REMARK    6  A    between atoms: C_19  and  C_20
REMARK    7  A    between atoms: C_20  and  C_21
REMARK    8  A    between atoms: C_21  and  C_23
REMARK    9  A    between atoms: C_23  and  O_24
REMARK                            x       y       z     vdW  Elec       q    Type
REMARK                         _______ _______ _______ _____ _____    ______ ____
ROOT
ATOM      1 CL   UNL     1     -33.405  30.130   3.211  0.00  0.00    +0.006 Cl
ATOM      2  O   UNL     1     -31.344  31.294   5.511  0.00  0.00    -0.271 OA
ATOM      3  N   UNL     1     -32.503  29.522   4.481  0.00  0.00    -0.181 N 
ATOM      4  C   UNL     1     -31.075  28.770   5.778  0.00  0.00    +0.193 C 
ATOM      5  C   UNL     1     -32.107  28.168   4.813  0.00  0.00    +0.199 C 
ATOM      6  C   UNL     1     -31.611  30.132   5.305  0.00  0.00    +0.268 C 
ENDROOT
BRANCH   5   8
ATOM      7  O   UNL     1     -33.973  26.383   3.532  0.00  0.00    -0.277 OA
ATOM      8  N   UNL     1     -33.179  27.392   5.460  0.00  0.00    -0.289 N 
ATOM      9  C   UNL     1     -34.030  26.556   4.748  0.00  0.00    +0.203 C 
ATOM     10  H   UNL     1     -33.297  27.470   6.434  0.00  0.00    +0.151 HD
BRANCH   9  11
ATOM     11  C   UNL     1     -35.062  25.883   5.644  0.00  0.00    +0.013 C 
ATOM     12  C   UNL     1     -35.055  24.376   5.416  0.00  0.00    -0.015 C 
BRANCH  11  13
ATOM     13  N   UNL     1     -36.376  26.435   5.326  0.00  0.00    +0.387 N 
ATOM     14  H   UNL     1     -37.061  25.679   5.283  0.00  0.00    -0.089 HD
ATOM     15  H   UNL     1     -36.335  26.910   4.424  0.00  0.00    -0.089 HD
ATOM     16  H   UNL     1     -36.650  27.101   6.048  0.00  0.00    -0.089 HD
ENDBRANCH  11  13
ENDBRANCH   9  11
ENDBRANCH   5   8
BRANCH   4  17
ATOM     17  O   UNL     1     -31.260  28.551   7.187  0.00  0.00    -0.375 OA
ATOM     18  H   UNL     1     -32.140  28.861   7.449  0.00  0.00    +0.211 HD
ENDBRANCH   4  17
BRANCH   4  19
ATOM     19  C   UNL     1     -29.636  28.503   5.410  0.00  0.00    +0.040 C 
BRANCH  19  20
ATOM     20  C   UNL     1     -28.798  28.067   6.617  0.00  0.00    +0.015 C 
BRANCH  20  21
ATOM     21  C   UNL     1     -27.603  28.987   6.876  0.00  0.00    +0.109 C 
BRANCH  21  23
ATOM     22  O   UNL     1     -27.088  30.738   8.489  0.00  0.00    -0.250 OA
ATOM     23  C   UNL     1     -27.770  29.780   8.154  0.00  0.00    +0.314 C 
BRANCH  23  24
ATOM     24  O   UNL     1     -28.794  29.299   8.905  0.00  0.00    -0.480 OA
ATOM     25  H   UNL     1     -28.625  28.940   9.754  0.00  0.00    +0.295 HD
ENDBRANCH  23  24
ENDBRANCH  21  23
ENDBRANCH  20  21
ENDBRANCH  19  20
ENDBRANCH   4  19
TORSDOF 9
ENDMDL
MODEL 4
REMARK VINA RESULT:      -5.4      4.547      6.500
REMARK  Name = 191343
REMARK  9 active torsions:
REMARK  status: ('A' for Active; 'I' for Inactive)
REMARK    1  A    between atoms: C_4  and  O_17
REMARK    2  A    between atoms: C_4  and  C_19
REMARK    3  A    between atoms: C_5  and  N_8
REMARK    4  A    between atoms: C_9  and  C_11
REMARK    5  A    between atoms: C_11  and  N_13
REMARK    6  A    between atoms: C_19  and  C_20
REMARK    7  A    between atoms: C_20  and  C_21
REMARK    8  A    between atoms: C_21  and  C_23
REMARK    9  A    between atoms: C_23  and  O_24
REMARK                            x       y       z     vdW  Elec       q    Type
REMARK                         _______ _______ _______ _____ _____    ______ ____
ROOT
ATOM      1 CL   UNL     1     -37.019  21.213  -0.481  0.00  0.00    +0.006 Cl
ATOM      2  O   UNL     1     -38.230  22.128   2.450  0.00  0.00    -0.271 OA
ATOM      3  N   UNL     1     -36.471  21.343   1.094  0.00  0.00    -0.181 N 
ATOM      4  C   UNL     1     -35.736  21.905   2.946  0.00  0.00    +0.193 C 
ATOM      5  C   UNL     1     -35.132  21.359   1.644  0.00  0.00    +0.199 C 
ATOM      6  C   UNL     1     -37.082  21.832   2.206  0.00  0.00    +0.268 C 
ENDROOT
BRANCH   5   8
ATOM      7  O   UNL     1     -32.699  20.433   0.404  0.00  0.00    -0.277 OA
ATOM      8  N   UNL     1     -34.534  20.016   1.754  0.00  0.00    -0.289 N 
ATOM      9  C   UNL     1     -33.352  19.669   1.113  0.00  0.00    +0.203 C 
ATOM     10  H   UNL     1     -34.991  19.340   2.304  0.00  0.00    +0.151 HD
BRANCH   9  11
ATOM     11  C   UNL     1     -32.957  18.221   1.373  0.00  0.00    +0.013 C 
ATOM     12  C   UNL     1     -31.511  17.985   0.953  0.00  0.00    -0.015 C 
BRANCH  11  13
ATOM     13  N   UNL     1     -33.852  17.358   0.606  0.00  0.00    +0.387 N 
ATOM     14  H   UNL     1     -33.379  16.478   0.396  0.00  0.00    -0.089 HD
ATOM     15  H   UNL     1     -34.109  17.823  -0.265  0.00  0.00    -0.089 HD
ATOM     16  H   UNL     1     -34.694  17.169   1.151  0.00  0.00    -0.089 HD
ENDBRANCH  11  13
ENDBRANCH   9  11
ENDBRANCH   5   8
BRANCH   4  17
ATOM     17  O   UNL     1     -35.690  21.067   4.114  0.00  0.00    -0.375 OA
ATOM     18  H   UNL     1     -35.385  20.182   3.864  0.00  0.00    +0.211 HD
ENDBRANCH   4  17
BRANCH   4  19
ATOM     19  C   UNL     1     -35.296  23.303   3.308  0.00  0.00    +0.040 C 
BRANCH  19  20
ATOM     20  C   UNL     1     -34.904  23.425   4.785  0.00  0.00    +0.015 C 
BRANCH  20  21
ATOM     21  C   UNL     1     -35.846  24.334   5.577  0.00  0.00    +0.109 C 
BRANCH  21  23
ATOM     22  O   UNL     1     -34.251  26.172   5.678  0.00  0.00    -0.250 OA
ATOM     23  C   UNL     1     -35.400  25.779   5.536  0.00  0.00    +0.314 C 
BRANCH  23  24
ATOM     24  O   UNL     1     -36.447  26.614   5.311  0.00  0.00    -0.480 OA
ATOM     25  H   UNL     1     -36.292  27.511   5.088  0.00  0.00    +0.295 HD
ENDBRANCH  23  24
ENDBRANCH  21  23
ENDBRANCH  20  21
ENDBRANCH  19  20
ENDBRANCH   4  19
TORSDOF 9
ENDMDL
MODEL 5
REMARK VINA RESULT:      -5.3      2.833      3.287
REMARK  Name = 191343
REMARK  9 active torsions:
REMARK  status: ('A' for Active; 'I' for Inactive)
REMARK    1  A    between atoms: C_4  and  O_17
REMARK    2  A    between atoms: C_4  and  C_19
REMARK    3  A    between atoms: C_5  and  N_8
REMARK    4  A    between atoms: C_9  and  C_11
REMARK    5  A    between atoms: C_11  and  N_13
REMARK    6  A    between atoms: C_19  and  C_20
REMARK    7  A    between atoms: C_20  and  C_21
REMARK    8  A    between atoms: C_21  and  C_23
REMARK    9  A    between atoms: C_23  and  O_24
REMARK                            x       y       z     vdW  Elec       q    Type
REMARK                         _______ _______ _______ _____ _____    ______ ____
ROOT
ATOM      1 CL   UNL     1     -36.903  25.606  -0.641  0.00  0.00    +0.006 Cl
ATOM      2  O   UNL     1     -38.424  27.070   1.896  0.00  0.00    -0.271 OA
ATOM      3  N   UNL     1     -37.171  25.297   0.981  0.00  0.00    -0.181 N 
ATOM      4  C   UNL     1     -37.175  25.164   3.047  0.00  0.00    +0.193 C 
ATOM      5  C   UNL     1     -36.543  24.367   1.896  0.00  0.00    +0.199 C 
ATOM      6  C   UNL     1     -37.758  26.060   1.941  0.00  0.00    +0.268 C 
ENDROOT
BRANCH   5   8
ATOM      7  O   UNL     1     -35.402  22.269   0.281  0.00  0.00    -0.277 OA
ATOM      8  N   UNL     1     -37.040  22.988   1.753  0.00  0.00    -0.289 N 
ATOM      9  C   UNL     1     -36.413  22.047   0.944  0.00  0.00    +0.203 C 
ATOM     10  H   UNL     1     -37.847  22.722   2.250  0.00  0.00    +0.151 HD
BRANCH   9  11
ATOM     11  C   UNL     1     -37.133  20.705   0.955  0.00  0.00    +0.013 C 
ATOM     12  C   UNL     1     -38.588  20.884   0.540  0.00  0.00    -0.015 C 
BRANCH  11  13
ATOM     13  N   UNL     1     -37.057  20.155   2.306  0.00  0.00    +0.387 N 
ATOM     14  H   UNL     1     -36.678  20.861   2.939  0.00  0.00    -0.089 HD
ATOM     15  H   UNL     1     -36.450  19.336   2.307  0.00  0.00    -0.089 HD
ATOM     16  H   UNL     1     -37.990  19.887   2.618  0.00  0.00    -0.089 HD
ENDBRANCH  11  13
ENDBRANCH   9  11
ENDBRANCH   5   8
BRANCH   4  17
ATOM     17  O   UNL     1     -38.186  24.518   3.839  0.00  0.00    -0.375 OA
ATOM     18  H   UNL     1     -38.615  23.826   3.313  0.00  0.00    +0.211 HD
ENDBRANCH   4  17
BRANCH   4  19
ATOM     19  C   UNL     1     -36.185  25.854   3.954  0.00  0.00    +0.040 C 
BRANCH  19  20
ATOM     20  C   UNL     1     -36.081  25.175   5.325  0.00  0.00    +0.015 C 
BRANCH  20  21
ATOM     21  C   UNL     1     -35.078  24.020   5.342  0.00  0.00    +0.109 C 
BRANCH  21  23
ATOM     22  O   UNL     1     -35.768  22.127   6.711  0.00  0.00    -0.250 OA
ATOM     23  C   UNL     1     -35.749  22.695   5.627  0.00  0.00    +0.314 C 
BRANCH  23  24
ATOM     24  O   UNL     1     -36.351  22.195   4.517  0.00  0.00    -0.480 OA
ATOM     25  H   UNL     1     -36.198  22.591   3.682  0.00  0.00    +0.295 HD
ENDBRANCH  23  24
ENDBRANCH  21  23
ENDBRANCH  20  21
ENDBRANCH  19  20
ENDBRANCH   4  19
TORSDOF 9
ENDMDL
MODEL 6
REMARK VINA RESULT:      -5.3      3.234      4.327
REMARK  Name = 191343
REMARK  9 active torsions:
REMARK  status: ('A' for Active; 'I' for Inactive)
REMARK    1  A    between atoms: C_4  and  O_17
REMARK    2  A    between atoms: C_4  and  C_19
REMARK    3  A    between atoms: C_5  and  N_8
REMARK    4  A    between atoms: C_9  and  C_11
REMARK    5  A    between atoms: C_11  and  N_13
REMARK    6  A    between atoms: C_19  and  C_20
REMARK    7  A    between atoms: C_20  and  C_21
REMARK    8  A    between atoms: C_21  and  C_23
REMARK    9  A    between atoms: C_23  and  O_24
REMARK                            x       y       z     vdW  Elec       q    Type
REMARK                         _______ _______ _______ _____ _____    ______ ____
ROOT
ATOM      1 CL   UNL     1     -31.286  28.440   4.725  0.00  0.00    +0.006 Cl
ATOM      2  O   UNL     1     -33.013  26.832   7.033  0.00  0.00    -0.271 OA
ATOM      3  N   UNL     1     -32.763  27.664   4.844  0.00  0.00    -0.181 N 
ATOM      4  C   UNL     1     -34.367  26.357   4.922  0.00  0.00    +0.193 C 
ATOM      5  C   UNL     1     -33.678  27.186   3.828  0.00  0.00    +0.199 C 
ATOM      6  C   UNL     1     -33.310  26.955   5.867  0.00  0.00    +0.268 C 
ENDROOT
BRANCH   5   8
ATOM      7  O   UNL     1     -32.943  29.001   1.712  0.00  0.00    -0.277 OA
ATOM      8  N   UNL     1     -34.509  28.255   3.247  0.00  0.00    -0.289 N 
ATOM      9  C   UNL     1     -34.058  29.080   2.224  0.00  0.00    +0.203 C 
ATOM     10  H   UNL     1     -35.419  28.390   3.597  0.00  0.00    +0.151 HD
BRANCH   9  11
ATOM     11  C   UNL     1     -35.098  30.114   1.814  0.00  0.00    +0.013 C 
ATOM     12  C   UNL     1     -35.431  31.023   2.992  0.00  0.00    -0.015 C 
BRANCH  11  13
ATOM     13  N   UNL     1     -36.296  29.407   1.369  0.00  0.00    +0.387 N 
ATOM     14  H   UNL     1     -36.042  28.467   1.063  0.00  0.00    -0.089 HD
ATOM     15  H   UNL     1     -36.722  29.914   0.593  0.00  0.00    -0.089 HD
ATOM     16  H   UNL     1     -36.961  29.345   2.139  0.00  0.00    -0.089 HD
ENDBRANCH  11  13
ENDBRANCH   9  11
ENDBRANCH   5   8
BRANCH   4  17
ATOM     17  O   UNL     1     -35.712  26.709   5.289  0.00  0.00    -0.375 OA
ATOM     18  H   UNL     1     -35.754  26.874   6.243  0.00  0.00    +0.211 HD
ENDBRANCH   4  17
BRANCH   4  19
ATOM     19  C   UNL     1     -34.267  24.863   4.738  0.00  0.00    +0.040 C 
BRANCH  19  20
ATOM     20  C   UNL     1     -35.549  24.137   5.166  0.00  0.00    +0.015 C 
BRANCH  20  21
ATOM     21  C   UNL     1     -35.273  22.875   5.985  0.00  0.00    +0.109 C 
BRANCH  21  23
ATOM     22  O   UNL     1     -35.488  21.601   3.920  0.00  0.00    -0.250 OA
ATOM     23  C   UNL     1     -35.341  21.626   5.134  0.00  0.00    +0.314 C 
BRANCH  23  24
ATOM     24  O   UNL     1     -35.210  20.505   5.889  0.00  0.00    -0.480 OA
ATOM     25  H   UNL     1     -35.101  19.671   5.476  0.00  0.00    +0.295 HD
ENDBRANCH  23  24
ENDBRANCH  21  23
ENDBRANCH  20  21
ENDBRANCH  19  20
ENDBRANCH   4  19
TORSDOF 9
ENDMDL
MODEL 7
REMARK VINA RESULT:      -5.1      5.920      7.036
REMARK  Name = 191343
REMARK  9 active torsions:
REMARK  status: ('A' for Active; 'I' for Inactive)
REMARK    1  A    between atoms: C_4  and  O_17
REMARK    2  A    between atoms: C_4  and  C_19
REMARK    3  A    between atoms: C_5  and  N_8
REMARK    4  A    between atoms: C_9  and  C_11
REMARK    5  A    between atoms: C_11  and  N_13
REMARK    6  A    between atoms: C_19  and  C_20
REMARK    7  A    between atoms: C_20  and  C_21
REMARK    8  A    between atoms: C_21  and  C_23
REMARK    9  A    between atoms: C_23  and  O_24
REMARK                            x       y       z     vdW  Elec       q    Type
REMARK                         _______ _______ _______ _____ _____    ______ ____
ROOT
ATOM      1 CL   UNL     1     -39.223  20.457  -1.259  0.00  0.00    +0.006 Cl
ATOM      2  O   UNL     1     -39.233  21.653   1.817  0.00  0.00    -0.271 OA
ATOM      3  N   UNL     1     -38.258  20.364   0.104  0.00  0.00    -0.181 N 
ATOM      4  C   UNL     1     -36.909  20.611   1.655  0.00  0.00    +0.193 C 
ATOM      5  C   UNL     1     -36.889  19.925   0.281  0.00  0.00    +0.199 C 
ATOM      6  C   UNL     1     -38.354  21.002   1.301  0.00  0.00    +0.268 C 
ENDROOT
BRANCH   5   8
ATOM      7  O   UNL     1     -36.140  18.188  -1.895  0.00  0.00    -0.277 OA
ATOM      8  N   UNL     1     -36.750  18.459   0.323  0.00  0.00    -0.289 N 
ATOM      9  C   UNL     1     -36.382  17.710  -0.788  0.00  0.00    +0.203 C 
ATOM     10  H   UNL     1     -36.926  17.992   1.172  0.00  0.00    +0.151 HD
BRANCH   9  11
ATOM     11  C   UNL     1     -36.328  16.218  -0.488  0.00  0.00    +0.013 C 
ATOM     12  C   UNL     1     -36.385  15.417  -1.783  0.00  0.00    -0.015 C 
BRANCH  11  13
ATOM     13  N   UNL     1     -37.465  15.881   0.364  0.00  0.00    +0.387 N 
ATOM     14  H   UNL     1     -37.559  14.866   0.420  0.00  0.00    -0.089 HD
ATOM     15  H   UNL     1     -38.317  16.281  -0.030  0.00  0.00    -0.089 HD
ATOM     16  H   UNL     1     -37.314  16.259   1.299  0.00  0.00    -0.089 HD
ENDBRANCH  11  13
ENDBRANCH   9  11
ENDBRANCH   5   8
BRANCH   4  17
ATOM     17  O   UNL     1     -36.821  19.779   2.825  0.00  0.00    -0.375 OA
ATOM     18  H   UNL     1     -36.033  20.020   3.334  0.00  0.00    +0.211 HD
ENDBRANCH   4  17
BRANCH   4  19
ATOM     19  C   UNL     1     -35.961  21.777   1.792  0.00  0.00    +0.040 C 
BRANCH  19  20
ATOM     20  C   UNL     1     -35.053  21.648   3.021  0.00  0.00    +0.015 C 
BRANCH  20  21
ATOM     21  C   UNL     1     -35.432  22.615   4.144  0.00  0.00    +0.109 C 
BRANCH  21  23
ATOM     22  O   UNL     1     -35.799  22.452   6.547  0.00  0.00    -0.250 OA
ATOM     23  C   UNL     1     -35.491  21.923   5.487  0.00  0.00    +0.314 C 
BRANCH  23  24
ATOM     24  O   UNL     1     -35.162  20.609   5.383  0.00  0.00    -0.480 OA
ATOM     25  H   UNL     1     -35.835  19.960   5.322  0.00  0.00    +0.295 HD
ENDBRANCH  23  24
ENDBRANCH  21  23
ENDBRANCH  20  21
ENDBRANCH  19  20
ENDBRANCH   4  19
TORSDOF 9
ENDMDL
MODEL 8
REMARK VINA RESULT:      -5.0      3.418      6.266
REMARK  Name = 191343
REMARK  9 active torsions:
REMARK  status: ('A' for Active; 'I' for Inactive)
REMARK    1  A    between atoms: C_4  and  O_17
REMARK    2  A    between atoms: C_4  and  C_19
REMARK    3  A    between atoms: C_5  and  N_8
REMARK    4  A    between atoms: C_9  and  C_11
REMARK    5  A    between atoms: C_11  and  N_13
REMARK    6  A    between atoms: C_19  and  C_20
REMARK    7  A    between atoms: C_20  and  C_21
REMARK    8  A    between atoms: C_21  and  C_23
REMARK    9  A    between atoms: C_23  and  O_24
REMARK                            x       y       z     vdW  Elec       q    Type
REMARK                         _______ _______ _______ _____ _____    ______ ____
ROOT
ATOM      1 CL   UNL     1     -37.211  20.030   1.296  0.00  0.00    +0.006 Cl
ATOM      2  O   UNL     1     -40.375  20.960   1.427  0.00  0.00    -0.271 OA
ATOM      3  N   UNL     1     -38.087  21.353   1.826  0.00  0.00    -0.181 N 
ATOM      4  C   UNL     1     -39.158  23.106   2.081  0.00  0.00    +0.193 C 
ATOM      5  C   UNL     1     -37.678  22.702   2.159  0.00  0.00    +0.199 C 
ATOM      6  C   UNL     1     -39.414  21.631   1.728  0.00  0.00    +0.268 C 
ENDROOT
BRANCH   5   8
ATOM      7  O   UNL     1     -36.259  24.963   3.246  0.00  0.00    -0.277 OA
ATOM      8  N   UNL     1     -37.077  22.811   3.499  0.00  0.00    -0.289 N 
ATOM      9  C   UNL     1     -36.410  23.952   3.929  0.00  0.00    +0.203 C 
ATOM     10  H   UNL     1     -37.151  22.046   4.114  0.00  0.00    +0.151 HD
BRANCH   9  11
ATOM     11  C   UNL     1     -35.866  23.805   5.344  0.00  0.00    +0.013 C 
ATOM     12  C   UNL     1     -34.384  24.157   5.378  0.00  0.00    -0.015 C 
BRANCH  11  13
ATOM     13  N   UNL     1     -36.066  22.422   5.770  0.00  0.00    +0.387 N 
ATOM     14  H   UNL     1     -36.592  22.409   6.645  0.00  0.00    -0.089 HD
ATOM     15  H   UNL     1     -35.160  21.976   5.912  0.00  0.00    -0.089 HD
ATOM     16  H   UNL     1     -36.586  21.917   5.054  0.00  0.00    -0.089 HD
ENDBRANCH  11  13
ENDBRANCH   9  11
ENDBRANCH   5   8
BRANCH   4  17
ATOM     17  O   UNL     1     -39.809  23.516   3.295  0.00  0.00    -0.375 OA
ATOM     18  H   UNL     1     -39.311  23.184   4.057  0.00  0.00    +0.211 HD
ENDBRANCH   4  17
BRANCH   4  19
ATOM     19  C   UNL     1     -39.488  24.080   0.976  0.00  0.00    +0.040 C 
BRANCH  19  20
ATOM     20  C   UNL     1     -40.710  24.945   1.309  0.00  0.00    +0.015 C 
BRANCH  20  21
ATOM     21  C   UNL     1     -40.383  26.438   1.370  0.00  0.00    +0.109 C 
BRANCH  21  23
ATOM     22  O   UNL     1     -38.045  27.124   1.372  0.00  0.00    -0.250 OA
ATOM     23  C   UNL     1     -39.019  26.692   1.973  0.00  0.00    +0.314 C 
BRANCH  23  24
ATOM     24  O   UNL     1     -38.998  26.385   3.296  0.00  0.00    -0.480 OA
ATOM     25  H   UNL     1     -38.181  26.234   3.729  0.00  0.00    +0.295 HD
ENDBRANCH  23  24
ENDBRANCH  21  23
ENDBRANCH  20  21
ENDBRANCH  19  20
ENDBRANCH   4  19
TORSDOF 9
ENDMDL
MODEL 9
REMARK VINA RESULT:      -5.0      2.864      5.487
REMARK  Name = 191343
REMARK  9 active torsions:
REMARK  status: ('A' for Active; 'I' for Inactive)
REMARK    1  A    between atoms: C_4  and  O_17
REMARK    2  A    between atoms: C_4  and  C_19
REMARK    3  A    between atoms: C_5  and  N_8
REMARK    4  A    between atoms: C_9  and  C_11
REMARK    5  A    between atoms: C_11  and  N_13
REMARK    6  A    between atoms: C_19  and  C_20
REMARK    7  A    between atoms: C_20  and  C_21
REMARK    8  A    between atoms: C_21  and  C_23
REMARK    9  A    between atoms: C_23  and  O_24
REMARK                            x       y       z     vdW  Elec       q    Type
REMARK                         _______ _______ _______ _____ _____    ______ ____
ROOT
ATOM      1 CL   UNL     1     -33.654  22.008   0.353  0.00  0.00    +0.006 Cl
ATOM      2  O   UNL     1     -35.836  19.948   1.728  0.00  0.00    -0.271 OA
ATOM      3  N   UNL     1     -34.995  22.115   1.347  0.00  0.00    -0.181 N 
ATOM      4  C   UNL     1     -36.869  22.230   2.221  0.00  0.00    +0.193 C 
ATOM      5  C   UNL     1     -35.831  23.241   1.710  0.00  0.00    +0.199 C 
ATOM      6  C   UNL     1     -35.864  21.157   1.767  0.00  0.00    +0.268 C 
ENDROOT
BRANCH   5   8
ATOM      7  O   UNL     1     -35.737  26.121   1.753  0.00  0.00    -0.277 OA
ATOM      8  N   UNL     1     -35.234  24.094   2.753  0.00  0.00    -0.289 N 
ATOM      9  C   UNL     1     -35.241  25.481   2.678  0.00  0.00    +0.203 C 
ATOM     10  H   UNL     1     -34.814  23.664   3.532  0.00  0.00    +0.151 HD
BRANCH   9  11
ATOM     11  C   UNL     1     -34.546  26.128   3.870  0.00  0.00    +0.013 C 
ATOM     12  C   UNL     1     -33.994  25.056   4.802  0.00  0.00    -0.015 C 
BRANCH  11  13
ATOM     13  N   UNL     1     -35.521  26.956   4.574  0.00  0.00    +0.387 N 
ATOM     14  H   UNL     1     -36.416  26.918   4.085  0.00  0.00    -0.089 HD
ATOM     15  H   UNL     1     -35.189  27.920   4.604  0.00  0.00    -0.089 HD
ATOM     16  H   UNL     1     -35.639  26.608   5.526  0.00  0.00    -0.089 HD
ENDBRANCH  11  13
ENDBRANCH   9  11
ENDBRANCH   5   8
BRANCH   4  17
ATOM     17  O   UNL     1     -37.134  22.191   3.633  0.00  0.00    -0.375 OA
ATOM     18  H   UNL     1     -36.615  21.480   4.040  0.00  0.00    +0.211 HD
ENDBRANCH   4  17
BRANCH   4  19
ATOM     19  C   UNL     1     -38.172  22.226   1.460  0.00  0.00    +0.040 C 
BRANCH  19  20
ATOM     20  C   UNL     1     -39.292  22.945   2.223  0.00  0.00    +0.015 C 
BRANCH  20  21
ATOM     21  C   UNL     1     -39.284  24.459   2.004  0.00  0.00    +0.109 C 
BRANCH  21  23
ATOM     22  O   UNL     1     -38.083  24.770   4.100  0.00  0.00    -0.250 OA
ATOM     23  C   UNL     1     -38.839  25.205   3.243  0.00  0.00    +0.314 C 
BRANCH  23  24
ATOM     24  O   UNL     1     -39.384  26.448   3.295  0.00  0.00    -0.480 OA
ATOM     25  H   UNL     1     -38.937  27.137   3.746  0.00  0.00    +0.295 HD
ENDBRANCH  23  24
ENDBRANCH  21  23
ENDBRANCH  20  21
ENDBRANCH  19  20
ENDBRANCH   4  19
TORSDOF 9
ENDMDL
