MODEL 1
REMARK VINA RESULT:      -6.3      0.000      0.000
REMARK  Name = 5487248
REMARK  6 active torsions:
REMARK  status: ('A' for Active; 'I' for Inactive)
REMARK    1  A    between atoms: C_4  and  C_19
REMARK    2  A    between atoms: C_11  and  O_16
REMARK    3  A    between atoms: C_14  and  O_23
REMARK    4  A    between atoms: C_15  and  O_25
REMARK    5  A    between atoms: C_19  and  O_20
REMARK    6  A    between atoms: O_20  and  C_21
REMARK                            x       y       z     vdW  Elec       q    Type
REMARK                         _______ _______ _______ _____ _____    ______ ____
ROOT
ATOM      1  O   UNL     1     -36.261  21.564   2.893  0.00  0.00    -0.418 OA
ATOM      2  O   UNL     1     -35.138  20.752   5.485  0.00  0.00    -0.288 OA
ATOM      3  O   UNL     1     -37.075  21.471   0.782  0.00  0.00    -0.244 OA
ATOM      4  C   UNL     1     -35.553  24.297   5.316  0.00  0.00    +0.132 C 
ATOM      5  C   UNL     1     -36.029  23.710   4.027  0.00  0.00    +0.029 A 
ATOM      6  C   UNL     1     -35.199  23.076   6.180  0.00  0.00    +0.088 C 
ATOM      7  C   UNL     1     -35.917  22.386   3.949  0.00  0.00    +0.180 A 
ATOM      8  C   UNL     1     -36.613  24.396   2.886  0.00  0.00    +0.043 A 
ATOM      9  C   UNL     1     -35.380  21.921   5.230  0.00  0.00    +0.208 C 
ATOM     10  C   UNL     1     -36.974  23.623   1.769  0.00  0.00    +0.082 A 
ATOM     11  C   UNL     1     -36.834  25.778   2.862  0.00  0.00    +0.171 C 
ATOM     12  C   UNL     1     -36.777  22.143   1.763  0.00  0.00    +0.346 A 
ATOM     13  C   UNL     1     -37.537  24.235   0.642  0.00  0.00    +0.046 C 
ATOM     14  C   UNL     1     -37.397  26.383   1.736  0.00  0.00    +0.202 C 
ATOM     15  C   UNL     1     -37.745  25.614   0.628  0.00  0.00    +0.171 C 
ENDROOT
BRANCH  11  16
ATOM     16  O   UNL     1     -36.549  26.587   3.922  0.00  0.00    -0.503 OA
ATOM     17  H   UNL     1     -37.180  27.214   4.216  0.00  0.00    +0.292 HD
ENDBRANCH  11  16
BRANCH   4  19
ATOM     18  O   UNL     1     -33.427  24.792   4.294  0.00  0.00    -0.250 OA
ATOM     19  C   UNL     1     -34.305  25.101   5.087  0.00  0.00    +0.321 C 
BRANCH  19  20
ATOM     20  O   UNL     1     -34.318  26.201   5.893  0.00  0.00    -0.448 OA
BRANCH  20  21
ATOM     21  C   UNL     1     -33.231  27.114   5.704  0.00  0.00    +0.209 C 
ATOM     22  C   UNL     1     -32.529  27.325   7.029  0.00  0.00    +0.051 C 
ENDBRANCH  20  21
ENDBRANCH  19  20
ENDBRANCH   4  19
BRANCH  14  23
ATOM     23  O   UNL     1     -37.613  27.730   1.718  0.00  0.00    -0.501 OA
ATOM     24  H   UNL     1     -36.888  28.322   1.757  0.00  0.00    +0.292 HD
ENDBRANCH  14  23
BRANCH  15  25
ATOM     25  O   UNL     1     -38.296  26.195  -0.474  0.00  0.00    -0.503 OA
ATOM     26  H   UNL     1     -39.195  26.040  -0.686  0.00  0.00    +0.292 HD
ENDBRANCH  15  25
TORSDOF 6
ENDMDL
MODEL 2
REMARK VINA RESULT:      -6.1      2.214      2.416
REMARK  Name = 5487248
REMARK  6 active torsions:
REMARK  status: ('A' for Active; 'I' for Inactive)
REMARK    1  A    between atoms: C_4  and  C_19
REMARK    2  A    between atoms: C_11  and  O_16
REMARK    3  A    between atoms: C_14  and  O_23
REMARK    4  A    between atoms: C_15  and  O_25
REMARK    5  A    between atoms: C_19  and  O_20
REMARK    6  A    between atoms: O_20  and  C_21
REMARK                            x       y       z     vdW  Elec       q    Type
REMARK                         _______ _______ _______ _____ _____    ______ ____
ROOT
ATOM      1  O   UNL     1     -37.773  21.211   2.107  0.00  0.00    -0.418 OA
ATOM      2  O   UNL     1     -35.224  20.623   3.446  0.00  0.00    -0.288 OA
ATOM      3  O   UNL     1     -39.643  20.976   0.852  0.00  0.00    -0.244 OA
ATOM      4  C   UNL     1     -36.247  23.992   4.050  0.00  0.00    +0.132 C 
ATOM      5  C   UNL     1     -37.283  23.337   3.197  0.00  0.00    +0.029 A 
ATOM      6  C   UNL     1     -35.253  22.865   4.374  0.00  0.00    +0.088 C 
ATOM      7  C   UNL     1     -37.018  22.070   2.881  0.00  0.00    +0.180 A 
ATOM      8  C   UNL     1     -38.531  23.896   2.706  0.00  0.00    +0.043 A 
ATOM      9  C   UNL     1     -35.761  21.714   3.544  0.00  0.00    +0.208 C 
ATOM     10  C   UNL     1     -39.345  23.081   1.899  0.00  0.00    +0.082 A 
ATOM     11  C   UNL     1     -38.953  25.196   3.009  0.00  0.00    +0.171 C 
ATOM     12  C   UNL     1     -38.943  21.681   1.570  0.00  0.00    +0.346 A 
ATOM     13  C   UNL     1     -40.556  23.573   1.396  0.00  0.00    +0.046 C 
ATOM     14  C   UNL     1     -40.162  25.681   2.505  0.00  0.00    +0.202 C 
ATOM     15  C   UNL     1     -40.960  24.872   1.700  0.00  0.00    +0.171 C 
ENDROOT
BRANCH  11  16
ATOM     16  O   UNL     1     -38.240  26.031   3.818  0.00  0.00    -0.503 OA
ATOM     17  H   UNL     1     -37.935  26.853   3.489  0.00  0.00    +0.292 HD
ENDBRANCH  11  16
BRANCH   4  19
ATOM     18  O   UNL     1     -35.132  24.908   2.120  0.00  0.00    -0.250 OA
ATOM     19  C   UNL     1     -35.529  25.055   3.267  0.00  0.00    +0.321 C 
BRANCH  19  20
ATOM     20  O   UNL     1     -35.400  26.176   4.032  0.00  0.00    -0.448 OA
BRANCH  20  21
ATOM     21  C   UNL     1     -34.068  26.477   4.461  0.00  0.00    +0.209 C 
ATOM     22  C   UNL     1     -33.956  26.211   5.947  0.00  0.00    +0.051 C 
ENDBRANCH  20  21
ENDBRANCH  19  20
ENDBRANCH   4  19
BRANCH  14  23
ATOM     23  O   UNL     1     -40.570  26.947   2.806  0.00  0.00    -0.501 OA
ATOM     24  H   UNL     1     -40.164  27.683   2.390  0.00  0.00    +0.292 HD
ENDBRANCH  14  23
BRANCH  15  25
ATOM     25  O   UNL     1     -42.142  25.337   1.206  0.00  0.00    -0.503 OA
ATOM     26  H   UNL     1     -42.146  25.953   0.501  0.00  0.00    +0.292 HD
ENDBRANCH  15  25
TORSDOF 6
ENDMDL
MODEL 3
REMARK VINA RESULT:      -6.1      2.510      5.194
REMARK  Name = 5487248
REMARK  6 active torsions:
REMARK  status: ('A' for Active; 'I' for Inactive)
REMARK    1  A    between atoms: C_4  and  C_19
REMARK    2  A    between atoms: C_11  and  O_16
REMARK    3  A    between atoms: C_14  and  O_23
REMARK    4  A    between atoms: C_15  and  O_25
REMARK    5  A    between atoms: C_19  and  O_20
REMARK    6  A    between atoms: O_20  and  C_21
REMARK                            x       y       z     vdW  Elec       q    Type
REMARK                         _______ _______ _______ _____ _____    ______ ____
ROOT
ATOM      1  O   UNL     1     -37.474  21.694   2.625  0.00  0.00    -0.418 OA
ATOM      2  O   UNL     1     -40.118  21.283   1.409  0.00  0.00    -0.288 OA
ATOM      3  O   UNL     1     -35.444  21.281   3.539  0.00  0.00    -0.244 OA
ATOM      4  C   UNL     1     -39.464  24.757   1.924  0.00  0.00    +0.132 C 
ATOM      5  C   UNL     1     -38.275  23.985   2.395  0.00  0.00    +0.029 A 
ATOM      6  C   UNL     1     -40.394  23.692   1.323  0.00  0.00    +0.088 C 
ATOM      7  C   UNL     1     -38.391  22.664   2.273  0.00  0.00    +0.180 A 
ATOM      8  C   UNL     1     -37.024  24.495   2.931  0.00  0.00    +0.043 A 
ATOM      9  C   UNL     1     -39.690  22.401   1.648  0.00  0.00    +0.208 C 
ATOM     10  C   UNL     1     -36.048  23.562   3.324  0.00  0.00    +0.082 A 
ATOM     11  C   UNL     1     -36.754  25.862   3.062  0.00  0.00    +0.171 C 
ATOM     12  C   UNL     1     -36.286  22.095   3.180  0.00  0.00    +0.346 A 
ATOM     13  C   UNL     1     -34.827  24.000   3.851  0.00  0.00    +0.046 C 
ATOM     14  C   UNL     1     -35.534  26.294   3.587  0.00  0.00    +0.202 C 
ATOM     15  C   UNL     1     -34.574  25.365   3.983  0.00  0.00    +0.171 C 
ENDROOT
BRANCH  11  16
ATOM     16  O   UNL     1     -37.633  26.827   2.665  0.00  0.00    -0.503 OA
ATOM     17  H   UNL     1     -37.864  26.906   1.760  0.00  0.00    +0.292 HD
ENDBRANCH  11  16
BRANCH   4  19
ATOM     18  O   UNL     1     -40.341  24.845   4.167  0.00  0.00    -0.250 OA
ATOM     19  C   UNL     1     -40.159  25.398   3.091  0.00  0.00    +0.321 C 
BRANCH  19  20
ATOM     20  O   UNL     1     -40.541  26.663   2.756  0.00  0.00    -0.448 OA
BRANCH  20  21
ATOM     21  C   UNL     1     -41.955  26.880   2.683  0.00  0.00    +0.209 C 
ATOM     22  C   UNL     1     -42.387  27.714   3.870  0.00  0.00    +0.051 C 
ENDBRANCH  20  21
ENDBRANCH  19  20
ENDBRANCH   4  19
BRANCH  14  23
ATOM     23  O   UNL     1     -35.275  27.627   3.710  0.00  0.00    -0.501 OA
ATOM     24  H   UNL     1     -35.494  28.077   4.503  0.00  0.00    +0.292 HD
ENDBRANCH  14  23
BRANCH  15  25
ATOM     25  O   UNL     1     -33.381  25.777   4.494  0.00  0.00    -0.503 OA
ATOM     26  H   UNL     1     -32.732  25.147   4.738  0.00  0.00    +0.292 HD
ENDBRANCH  15  25
TORSDOF 6
ENDMDL
MODEL 4
REMARK VINA RESULT:      -5.9      1.877      5.195
REMARK  Name = 5487248
REMARK  6 active torsions:
REMARK  status: ('A' for Active; 'I' for Inactive)
REMARK    1  A    between atoms: C_4  and  C_19
REMARK    2  A    between atoms: C_11  and  O_16
REMARK    3  A    between atoms: C_14  and  O_23
REMARK    4  A    between atoms: C_15  and  O_25
REMARK    5  A    between atoms: C_19  and  O_20
REMARK    6  A    between atoms: O_20  and  C_21
REMARK                            x       y       z     vdW  Elec       q    Type
REMARK                         _______ _______ _______ _____ _____    ______ ____
ROOT
ATOM      1  O   UNL     1     -36.667  22.519   4.291  0.00  0.00    -0.418 OA
ATOM      2  O   UNL     1     -38.612  21.677   2.256  0.00  0.00    -0.288 OA
ATOM      3  O   UNL     1     -35.326  22.503   6.116  0.00  0.00    -0.244 OA
ATOM      4  C   UNL     1     -37.471  25.007   1.645  0.00  0.00    +0.132 C 
ATOM      5  C   UNL     1     -36.777  24.493   2.865  0.00  0.00    +0.029 A 
ATOM      6  C   UNL     1     -38.289  23.808   1.141  0.00  0.00    +0.088 C 
ATOM      7  C   UNL     1     -37.123  23.256   3.217  0.00  0.00    +0.180 A 
ATOM      8  C   UNL     1     -35.771  25.158   3.677  0.00  0.00    +0.043 A 
ATOM      9  C   UNL     1     -38.081  22.776   2.219  0.00  0.00    +0.208 C 
ATOM     10  C   UNL     1     -35.270  24.470   4.796  0.00  0.00    +0.082 A 
ATOM     11  C   UNL     1     -35.282  26.436   3.385  0.00  0.00    +0.171 C 
ATOM     12  C   UNL     1     -35.748  23.095   5.130  0.00  0.00    +0.346 A 
ATOM     13  C   UNL     1     -34.303  25.067   5.614  0.00  0.00    +0.046 C 
ATOM     14  C   UNL     1     -34.316  27.026   4.203  0.00  0.00    +0.202 C 
ATOM     15  C   UNL     1     -33.830  26.344   5.316  0.00  0.00    +0.171 C 
ENDROOT
BRANCH  11  16
ATOM     16  O   UNL     1     -35.687  27.148   2.294  0.00  0.00    -0.503 OA
ATOM     17  H   UNL     1     -36.596  27.342   2.173  0.00  0.00    +0.292 HD
ENDBRANCH  11  16
BRANCH   4  19
ATOM     18  O   UNL     1     -38.415  27.220   1.497  0.00  0.00    -0.250 OA
ATOM     19  C   UNL     1     -38.418  26.113   2.017  0.00  0.00    +0.321 C 
BRANCH  19  20
ATOM     20  O   UNL     1     -39.254  25.684   3.005  0.00  0.00    -0.448 OA
BRANCH  20  21
ATOM     21  C   UNL     1     -40.581  26.218   2.962  0.00  0.00    +0.209 C 
ATOM     22  C   UNL     1     -41.380  25.472   1.915  0.00  0.00    +0.051 C 
ENDBRANCH  20  21
ENDBRANCH  19  20
ENDBRANCH   4  19
BRANCH  14  23
ATOM     23  O   UNL     1     -33.840  28.271   3.913  0.00  0.00    -0.501 OA
ATOM     24  H   UNL     1     -34.042  28.671   3.089  0.00  0.00    +0.292 HD
ENDBRANCH  14  23
BRANCH  15  25
ATOM     25  O   UNL     1     -32.886  26.911   6.119  0.00  0.00    -0.503 OA
ATOM     26  H   UNL     1     -32.011  27.025   5.805  0.00  0.00    +0.292 HD
ENDBRANCH  15  25
TORSDOF 6
ENDMDL
MODEL 5
REMARK VINA RESULT:      -5.9      1.873      4.507
REMARK  Name = 5487248
REMARK  6 active torsions:
REMARK  status: ('A' for Active; 'I' for Inactive)
REMARK    1  A    between atoms: C_4  and  C_19
REMARK    2  A    between atoms: C_11  and  O_16
REMARK    3  A    between atoms: C_14  and  O_23
REMARK    4  A    between atoms: C_15  and  O_25
REMARK    5  A    between atoms: C_19  and  O_20
REMARK    6  A    between atoms: O_20  and  C_21
REMARK                            x       y       z     vdW  Elec       q    Type
REMARK                         _______ _______ _______ _____ _____    ______ ____
ROOT
ATOM      1  O   UNL     1     -37.464  27.271   1.823  0.00  0.00    -0.418 OA
ATOM      2  O   UNL     1     -34.948  28.330   2.911  0.00  0.00    -0.288 OA
ATOM      3  O   UNL     1     -39.485  27.158   0.806  0.00  0.00    -0.244 OA
ATOM      4  C   UNL     1     -35.260  24.831   3.562  0.00  0.00    +0.132 C 
ATOM      5  C   UNL     1     -36.468  25.273   2.802  0.00  0.00    +0.029 A 
ATOM      6  C   UNL     1     -34.370  26.083   3.621  0.00  0.00    +0.088 C 
ATOM      7  C   UNL     1     -36.488  26.570   2.503  0.00  0.00    +0.180 A 
ATOM      8  C   UNL     1     -37.584  24.467   2.337  0.00  0.00    +0.043 A 
ATOM      9  C   UNL     1     -35.240  27.148   3.006  0.00  0.00    +0.208 C 
ATOM     10  C   UNL     1     -38.623  25.117   1.647  0.00  0.00    +0.082 A 
ATOM     11  C   UNL     1     -37.659  23.084   2.538  0.00  0.00    +0.171 C 
ATOM     12  C   UNL     1     -38.571  26.588   1.391  0.00  0.00    +0.346 A 
ATOM     13  C   UNL     1     -39.723  24.388   1.181  0.00  0.00    +0.046 C 
ATOM     14  C   UNL     1     -38.759  22.361   2.069  0.00  0.00    +0.202 C 
ATOM     15  C   UNL     1     -39.789  23.012   1.395  0.00  0.00    +0.171 C 
ENDROOT
BRANCH  11  16
ATOM     16  O   UNL     1     -36.673  22.376   3.160  0.00  0.00    -0.503 OA
ATOM     17  H   UNL     1     -36.828  21.492   3.428  0.00  0.00    +0.292 HD
ENDBRANCH  11  16
BRANCH   4  19
ATOM     18  O   UNL     1     -36.592  24.926   5.568  0.00  0.00    -0.250 OA
ATOM     19  C   UNL     1     -35.643  24.447   4.963  0.00  0.00    +0.321 C 
BRANCH  19  20
ATOM     20  O   UNL     1     -34.776  23.505   5.431  0.00  0.00    -0.448 OA
BRANCH  20  21
ATOM     21  C   UNL     1     -35.330  22.565   6.358  0.00  0.00    +0.209 C 
ATOM     22  C   UNL     1     -35.037  21.162   5.872  0.00  0.00    +0.051 C 
ENDBRANCH  20  21
ENDBRANCH  19  20
ENDBRANCH   4  19
BRANCH  14  23
ATOM     23  O   UNL     1     -38.825  21.013   2.266  0.00  0.00    -0.501 OA
ATOM     24  H   UNL     1     -38.082  20.550   2.600  0.00  0.00    +0.292 HD
ENDBRANCH  14  23
BRANCH  15  25
ATOM     25  O   UNL     1     -40.864  22.314   0.933  0.00  0.00    -0.503 OA
ATOM     26  H   UNL     1     -41.201  21.592   1.425  0.00  0.00    +0.292 HD
ENDBRANCH  15  25
TORSDOF 6
ENDMDL
MODEL 6
REMARK VINA RESULT:      -5.8      2.466      5.970
REMARK  Name = 5487248
REMARK  6 active torsions:
REMARK  status: ('A' for Active; 'I' for Inactive)
REMARK    1  A    between atoms: C_4  and  C_19
REMARK    2  A    between atoms: C_11  and  O_16
REMARK    3  A    between atoms: C_14  and  O_23
REMARK    4  A    between atoms: C_15  and  O_25
REMARK    5  A    between atoms: C_19  and  O_20
REMARK    6  A    between atoms: O_20  and  C_21
REMARK                            x       y       z     vdW  Elec       q    Type
REMARK                         _______ _______ _______ _____ _____    ______ ____
ROOT
ATOM      1  O   UNL     1     -35.795  20.662   3.001  0.00  0.00    -0.418 OA
ATOM      2  O   UNL     1     -36.542  18.821   0.836  0.00  0.00    -0.288 OA
ATOM      3  O   UNL     1     -34.788  21.518   4.841  0.00  0.00    -0.244 OA
ATOM      4  C   UNL     1     -38.426  21.851   0.656  0.00  0.00    +0.132 C 
ATOM      5  C   UNL     1     -37.495  21.951   1.820  0.00  0.00    +0.029 A 
ATOM      6  C   UNL     1     -38.063  20.513  -0.007  0.00  0.00    +0.088 C 
ATOM      7  C   UNL     1     -36.736  20.873   2.013  0.00  0.00    +0.180 A 
ATOM      8  C   UNL     1     -37.304  23.069   2.728  0.00  0.00    +0.043 A 
ATOM      9  C   UNL     1     -37.053  19.925   0.943  0.00  0.00    +0.208 C 
ATOM     10  C   UNL     1     -36.369  22.919   3.768  0.00  0.00    +0.082 A 
ATOM     11  C   UNL     1     -37.999  24.278   2.603  0.00  0.00    +0.171 C 
ATOM     12  C   UNL     1     -35.589  21.656   3.924  0.00  0.00    +0.346 A 
ATOM     13  C   UNL     1     -36.149  23.965   4.673  0.00  0.00    +0.046 C 
ATOM     14  C   UNL     1     -37.775  25.318   3.508  0.00  0.00    +0.202 C 
ATOM     15  C   UNL     1     -36.855  25.161   4.541  0.00  0.00    +0.171 C 
ENDROOT
BRANCH  11  16
ATOM     16  O   UNL     1     -38.889  24.513   1.597  0.00  0.00    -0.503 OA
ATOM     17  H   UNL     1     -39.394  25.302   1.593  0.00  0.00    +0.292 HD
ENDBRANCH  11  16
BRANCH   4  19
ATOM     18  O   UNL     1     -40.220  21.082   2.070  0.00  0.00    -0.250 OA
ATOM     19  C   UNL     1     -39.848  21.780   1.136  0.00  0.00    +0.321 C 
BRANCH  19  20
ATOM     20  O   UNL     1     -40.628  22.599   0.376  0.00  0.00    -0.448 OA
BRANCH  20  21
ATOM     21  C   UNL     1     -41.391  21.948  -0.645  0.00  0.00    +0.209 C 
ATOM     22  C   UNL     1     -42.587  22.809  -0.991  0.00  0.00    +0.051 C 
ENDBRANCH  20  21
ENDBRANCH  19  20
ENDBRANCH   4  19
BRANCH  14  23
ATOM     23  O   UNL     1     -38.453  26.494   3.380  0.00  0.00    -0.501 OA
ATOM     24  H   UNL     1     -38.619  26.850   2.529  0.00  0.00    +0.292 HD
ENDBRANCH  14  23
BRANCH  15  25
ATOM     25  O   UNL     1     -36.629  26.171   5.427  0.00  0.00    -0.503 OA
ATOM     26  H   UNL     1     -36.438  27.033   5.117  0.00  0.00    +0.292 HD
ENDBRANCH  15  25
TORSDOF 6
ENDMDL
MODEL 7
REMARK VINA RESULT:      -5.8      2.114      4.996
REMARK  Name = 5487248
REMARK  6 active torsions:
REMARK  status: ('A' for Active; 'I' for Inactive)
REMARK    1  A    between atoms: C_4  and  C_19
REMARK    2  A    between atoms: C_11  and  O_16
REMARK    3  A    between atoms: C_14  and  O_23
REMARK    4  A    between atoms: C_15  and  O_25
REMARK    5  A    between atoms: C_19  and  O_20
REMARK    6  A    between atoms: O_20  and  C_21
REMARK                            x       y       z     vdW  Elec       q    Type
REMARK                         _______ _______ _______ _____ _____    ______ ____
ROOT
ATOM      1  O   UNL     1     -35.169  20.931   3.936  0.00  0.00    -0.418 OA
ATOM      2  O   UNL     1     -34.548  19.175   1.663  0.00  0.00    -0.288 OA
ATOM      3  O   UNL     1     -35.545  21.657   6.048  0.00  0.00    -0.244 OA
ATOM      4  C   UNL     1     -35.294  22.491   0.562  0.00  0.00    +0.132 C 
ATOM      5  C   UNL     1     -35.391  22.463   2.052  0.00  0.00    +0.029 A 
ATOM      6  C   UNL     1     -34.802  21.085   0.187  0.00  0.00    +0.088 C 
ATOM      7  C   UNL     1     -35.148  21.273   2.598  0.00  0.00    +0.180 A 
ATOM      8  C   UNL     1     -35.683  23.561   2.958  0.00  0.00    +0.043 A 
ATOM      9  C   UNL     1     -34.809  20.358   1.506  0.00  0.00    +0.208 C 
ATOM     10  C   UNL     1     -35.734  23.283   4.335  0.00  0.00    +0.082 A 
ATOM     11  C   UNL     1     -35.904  24.871   2.517  0.00  0.00    +0.171 C 
ATOM     12  C   UNL     1     -35.482  21.904   4.849  0.00  0.00    +0.346 A 
ATOM     13  C   UNL     1     -36.017  24.305   5.250  0.00  0.00    +0.046 C 
ATOM     14  C   UNL     1     -36.184  25.887   3.434  0.00  0.00    +0.202 C 
ATOM     15  C   UNL     1     -36.242  25.604   4.796  0.00  0.00    +0.171 C 
ENDROOT
BRANCH  11  16
ATOM     16  O   UNL     1     -35.830  25.227   1.203  0.00  0.00    -0.503 OA
ATOM     17  H   UNL     1     -34.997  25.274   0.776  0.00  0.00    +0.292 HD
ENDBRANCH  11  16
BRANCH   4  19
ATOM     18  O   UNL     1     -36.900  23.534  -0.902  0.00  0.00    -0.250 OA
ATOM     19  C   UNL     1     -36.654  22.701  -0.040  0.00  0.00    +0.321 C 
BRANCH  19  20
ATOM     20  O   UNL     1     -37.541  21.832   0.523  0.00  0.00    -0.448 OA
BRANCH  20  21
ATOM     21  C   UNL     1     -38.876  22.326   0.670  0.00  0.00    +0.209 C 
ATOM     22  C   UNL     1     -39.136  22.618   2.133  0.00  0.00    +0.051 C 
ENDBRANCH  20  21
ENDBRANCH  19  20
ENDBRANCH   4  19
BRANCH  14  23
ATOM     23  O   UNL     1     -36.397  27.162   2.999  0.00  0.00    -0.501 OA
ATOM     24  H   UNL     1     -36.878  27.315   2.210  0.00  0.00    +0.292 HD
ENDBRANCH  14  23
BRANCH  15  25
ATOM     25  O   UNL     1     -36.513  26.589   5.698  0.00  0.00    -0.503 OA
ATOM     26  H   UNL     1     -35.915  27.301   5.808  0.00  0.00    +0.292 HD
ENDBRANCH  15  25
TORSDOF 6
ENDMDL
MODEL 8
REMARK VINA RESULT:      -5.7      2.107      5.711
REMARK  Name = 5487248
REMARK  6 active torsions:
REMARK  status: ('A' for Active; 'I' for Inactive)
REMARK    1  A    between atoms: C_4  and  C_19
REMARK    2  A    between atoms: C_11  and  O_16
REMARK    3  A    between atoms: C_14  and  O_23
REMARK    4  A    between atoms: C_15  and  O_25
REMARK    5  A    between atoms: C_19  and  O_20
REMARK    6  A    between atoms: O_20  and  C_21
REMARK                            x       y       z     vdW  Elec       q    Type
REMARK                         _______ _______ _______ _____ _____    ______ ____
ROOT
ATOM      1  O   UNL     1     -34.952  26.898   4.382  0.00  0.00    -0.418 OA
ATOM      2  O   UNL     1     -35.586  28.865   2.292  0.00  0.00    -0.288 OA
ATOM      3  O   UNL     1     -34.269  25.992   6.342  0.00  0.00    -0.244 OA
ATOM      4  C   UNL     1     -36.216  25.536   1.159  0.00  0.00    +0.132 C 
ATOM      5  C   UNL     1     -35.722  25.463   2.567  0.00  0.00    +0.029 A 
ATOM      6  C   UNL     1     -36.333  27.042   0.876  0.00  0.00    +0.088 C 
ATOM      7  C   UNL     1     -35.432  26.643   3.112  0.00  0.00    +0.180 A 
ATOM      8  C   UNL     1     -35.551  24.285   3.402  0.00  0.00    +0.043 A 
ATOM      9  C   UNL     1     -35.752  27.668   2.117  0.00  0.00    +0.208 C 
ATOM     10  C   UNL     1     -35.051  24.469   4.703  0.00  0.00    +0.082 A 
ATOM     11  C   UNL     1     -35.868  22.993   2.968  0.00  0.00    +0.171 C 
ATOM     12  C   UNL     1     -34.722  25.833   5.214  0.00  0.00    +0.346 A 
ATOM     13  C   UNL     1     -34.864  23.367   5.547  0.00  0.00    +0.046 C 
ATOM     14  C   UNL     1     -35.680  21.898   3.814  0.00  0.00    +0.202 C 
ATOM     15  C   UNL     1     -35.177  22.085   5.099  0.00  0.00    +0.171 C 
ENDROOT
BRANCH  11  16
ATOM     16  O   UNL     1     -36.396  22.740   1.736  0.00  0.00    -0.503 OA
ATOM     17  H   UNL     1     -36.591  23.449   1.155  0.00  0.00    +0.292 HD
ENDBRANCH  11  16
BRANCH   4  19
ATOM     18  O   UNL     1     -35.387  23.946  -0.452  0.00  0.00    -0.250 OA
ATOM     19  C   UNL     1     -35.198  24.949   0.223  0.00  0.00    +0.321 C 
BRANCH  19  20
ATOM     20  O   UNL     1     -34.062  25.702   0.255  0.00  0.00    -0.448 OA
BRANCH  20  21
ATOM     21  C   UNL     1     -32.870  25.001   0.627  0.00  0.00    +0.209 C 
ATOM     22  C   UNL     1     -32.108  25.828   1.640  0.00  0.00    +0.051 C 
ENDBRANCH  20  21
ENDBRANCH  19  20
ENDBRANCH   4  19
BRANCH  14  23
ATOM     23  O   UNL     1     -35.994  20.641   3.387  0.00  0.00    -0.501 OA
ATOM     24  H   UNL     1     -36.880  20.427   3.168  0.00  0.00    +0.292 HD
ENDBRANCH  14  23
BRANCH  15  25
ATOM     25  O   UNL     1     -34.992  21.023   5.932  0.00  0.00    -0.503 OA
ATOM     26  H   UNL     1     -35.669  20.383   6.034  0.00  0.00    +0.292 HD
ENDBRANCH  15  25
TORSDOF 6
ENDMDL
MODEL 9
REMARK VINA RESULT:      -5.6      2.309      4.663
REMARK  Name = 5487248
REMARK  6 active torsions:
REMARK  status: ('A' for Active; 'I' for Inactive)
REMARK    1  A    between atoms: C_4  and  C_19
REMARK    2  A    between atoms: C_11  and  O_16
REMARK    3  A    between atoms: C_14  and  O_23
REMARK    4  A    between atoms: C_15  and  O_25
REMARK    5  A    between atoms: C_19  and  O_20
REMARK    6  A    between atoms: O_20  and  C_21
REMARK                            x       y       z     vdW  Elec       q    Type
REMARK                         _______ _______ _______ _____ _____    ______ ____
ROOT
ATOM      1  O   UNL     1     -39.532  23.364   2.380  0.00  0.00    -0.418 OA
ATOM      2  O   UNL     1     -39.530  26.193   3.175  0.00  0.00    -0.288 OA
ATOM      3  O   UNL     1     -40.252  21.286   1.837  0.00  0.00    -0.244 OA
ATOM      4  C   UNL     1     -36.199  24.971   2.761  0.00  0.00    +0.132 C 
ATOM      5  C   UNL     1     -37.145  23.856   2.453  0.00  0.00    +0.029 A 
ATOM      6  C   UNL     1     -37.109  26.183   3.012  0.00  0.00    +0.088 C 
ATOM      7  C   UNL     1     -38.432  24.173   2.583  0.00  0.00    +0.180 A 
ATOM      8  C   UNL     1     -36.835  22.507   2.012  0.00  0.00    +0.043 A 
ATOM      9  C   UNL     1     -38.492  25.588   2.959  0.00  0.00    +0.208 C 
ATOM     10  C   UNL     1     -37.907  21.622   1.798  0.00  0.00    +0.082 A 
ATOM     11  C   UNL     1     -35.527  22.062   1.786  0.00  0.00    +0.171 C 
ATOM     12  C   UNL     1     -39.318  22.062   2.005  0.00  0.00    +0.346 A 
ATOM     13  C   UNL     1     -37.663  20.309   1.377  0.00  0.00    +0.046 C 
ATOM     14  C   UNL     1     -35.289  20.752   1.365  0.00  0.00    +0.202 C 
ATOM     15  C   UNL     1     -36.354  19.878   1.163  0.00  0.00    +0.171 C 
ENDROOT
BRANCH  11  16
ATOM     16  O   UNL     1     -34.440  22.873   1.931  0.00  0.00    -0.503 OA
ATOM     17  H   UNL     1     -34.556  23.793   2.066  0.00  0.00    +0.292 HD
ENDBRANCH  11  16
BRANCH   4  19
ATOM     18  O   UNL     1     -34.279  25.004   4.218  0.00  0.00    -0.250 OA
ATOM     19  C   UNL     1     -35.439  24.671   4.022  0.00  0.00    +0.321 C 
BRANCH  19  20
ATOM     20  O   UNL     1     -36.241  23.982   4.884  0.00  0.00    -0.448 OA
BRANCH  20  21
ATOM     21  C   UNL     1     -35.561  23.291   5.937  0.00  0.00    +0.209 C 
ATOM     22  C   UNL     1     -35.219  21.893   5.468  0.00  0.00    +0.051 C 
ENDBRANCH  20  21
ENDBRANCH  19  20
ENDBRANCH   4  19
BRANCH  14  23
ATOM     23  O   UNL     1     -34.013  20.325   1.143  0.00  0.00    -0.501 OA
ATOM     24  H   UNL     1     -33.294  20.917   1.253  0.00  0.00    +0.292 HD
ENDBRANCH  14  23
BRANCH  15  25
ATOM     25  O   UNL     1     -36.132  18.599   0.750  0.00  0.00    -0.503 OA
ATOM     26  H   UNL     1     -36.692  17.907   1.042  0.00  0.00    +0.292 HD
ENDBRANCH  15  25
TORSDOF 6
ENDMDL
