MODEL 1
REMARK VINA RESULT:      -5.1      0.000      0.000
REMARK  Name = 60172
REMARK  7 active torsions:
REMARK  status: ('A' for Active; 'I' for Inactive)
REMARK    1  A    between atoms: N_1  and  C_13
REMARK    2  A    between atoms: C_13  and  C_14
REMARK    3  A    between atoms: C_14  and  O_15
REMARK    4  A    between atoms: O_15  and  C_16
REMARK    5  A    between atoms: C_16  and  P_17
REMARK    6  A    between atoms: P_17  and  O_19
REMARK    7  A    between atoms: P_17  and  O_21
REMARK                            x       y       z     vdW  Elec       q    Type
REMARK                         _______ _______ _______ _____ _____    ______ ____
ROOT
ATOM      1  N   UNL     1     -36.334  22.489   2.060  0.00  0.00    -0.269 N 
ATOM      2  N   UNL     1     -35.495  20.841   3.275  0.00  0.00    -0.242 NA
ATOM      3  N   UNL     1     -36.353  24.278   3.699  0.00  0.00    -0.228 NA
ATOM      4  N   UNL     1     -35.484  23.502   5.844  0.00  0.00    -0.229 NA
ATOM      5  C   UNL     1     -36.117  23.023   3.287  0.00  0.00    +0.151 C 
ATOM      6  C   UNL     1     -35.593  21.980   4.033  0.00  0.00    +0.140 C 
ATOM      7  C   UNL     1     -35.952  21.185   2.089  0.00  0.00    +0.221 C 
ATOM      8  C   UNL     1     -35.270  22.255   5.359  0.00  0.00    +0.143 C 
ATOM      9  C   UNL     1     -36.004  24.422   4.996  0.00  0.00    +0.253 C 
ATOM     10  N   UNL     1     -34.732  21.256   6.188  0.00  0.00    -0.342 N 
ATOM     11  H   UNL     1     -34.509  21.462   7.125  0.00  0.00    +0.144 HD
ATOM     12  H   UNL     1     -34.579  20.351   5.833  0.00  0.00    +0.144 HD
ENDROOT
BRANCH   1  13
ATOM     13  C   UNL     1     -36.883  23.186   0.899  0.00  0.00    +0.126 C 
BRANCH  13  14
ATOM     14  C   UNL     1     -38.360  22.886   0.685  0.00  0.00    +0.164 C 
BRANCH  14  15
ATOM     15  O   UNL     1     -39.133  23.561   1.670  0.00  0.00    -0.340 OA
BRANCH  15  16
ATOM     16  C   UNL     1     -39.522  24.855   1.233  0.00  0.00    +0.258 C 
BRANCH  16  17
ATOM     17  P   UNL     1     -39.544  25.849   2.709  0.00  0.00    +0.367 P 
ATOM     18  O   UNL     1     -40.729  26.759   2.838  0.00  0.00    -0.256 OA
BRANCH  17  19
ATOM     19  O   UNL     1     -38.107  26.588   2.694  0.00  0.00    -0.322 OA
ATOM     20  H   UNL     1     -38.174  27.437   3.158  0.00  0.00    +0.220 HD
ENDBRANCH  17  19
BRANCH  17  21
ATOM     21  O   UNL     1     -39.388  24.757   3.891  0.00  0.00    -0.322 OA
ATOM     22  H   UNL     1     -39.621  25.165   4.740  0.00  0.00    +0.220 HD
ENDBRANCH  17  21
ENDBRANCH  16  17
ENDBRANCH  15  16
ENDBRANCH  14  15
ENDBRANCH  13  14
ENDBRANCH   1  13
TORSDOF 7
ENDMDL
MODEL 2
REMARK VINA RESULT:      -5.0      1.941      3.404
REMARK  Name = 60172
REMARK  7 active torsions:
REMARK  status: ('A' for Active; 'I' for Inactive)
REMARK    1  A    between atoms: N_1  and  C_13
REMARK    2  A    between atoms: C_13  and  C_14
REMARK    3  A    between atoms: C_14  and  O_15
REMARK    4  A    between atoms: O_15  and  C_16
REMARK    5  A    between atoms: C_16  and  P_17
REMARK    6  A    between atoms: P_17  and  O_19
REMARK    7  A    between atoms: P_17  and  O_21
REMARK                            x       y       z     vdW  Elec       q    Type
REMARK                         _______ _______ _______ _____ _____    ______ ____
ROOT
ATOM      1  N   UNL     1     -36.672  24.441   3.105  0.00  0.00    -0.269 N 
ATOM      2  N   UNL     1     -36.265  23.893   5.209  0.00  0.00    -0.242 NA
ATOM      3  N   UNL     1     -36.014  22.393   1.982  0.00  0.00    -0.228 NA
ATOM      4  N   UNL     1     -35.238  20.730   3.592  0.00  0.00    -0.229 NA
ATOM      5  C   UNL     1     -36.201  23.171   3.060  0.00  0.00    +0.151 C 
ATOM      6  C   UNL     1     -35.953  22.844   4.383  0.00  0.00    +0.140 C 
ATOM      7  C   UNL     1     -36.696  24.841   4.403  0.00  0.00    +0.221 C 
ATOM      8  C   UNL     1     -35.453  21.569   4.633  0.00  0.00    +0.143 C 
ATOM      9  C   UNL     1     -35.528  21.188   2.350  0.00  0.00    +0.253 C 
ATOM     10  N   UNL     1     -35.174  21.154   5.946  0.00  0.00    -0.342 N 
ATOM     11  H   UNL     1     -34.820  20.249   6.111  0.00  0.00    +0.144 HD
ATOM     12  H   UNL     1     -35.331  21.766   6.701  0.00  0.00    +0.144 HD
ENDROOT
BRANCH   1  13
ATOM     13  C   UNL     1     -37.084  25.251   1.961  0.00  0.00    +0.126 C 
BRANCH  13  14
ATOM     14  C   UNL     1     -38.594  25.263   1.769  0.00  0.00    +0.164 C 
BRANCH  14  15
ATOM     15  O   UNL     1     -38.990  24.128   1.011  0.00  0.00    -0.340 OA
BRANCH  15  16
ATOM     16  C   UNL     1     -39.904  23.312   1.730  0.00  0.00    +0.258 C 
BRANCH  16  17
ATOM     17  P   UNL     1     -39.601  21.659   1.141  0.00  0.00    +0.367 P 
ATOM     18  O   UNL     1     -40.814  20.941   0.629  0.00  0.00    -0.256 OA
BRANCH  17  19
ATOM     19  O   UNL     1     -38.850  20.944   2.380  0.00  0.00    -0.322 OA
ATOM     20  H   UNL     1     -37.900  20.884   2.192  0.00  0.00    +0.220 HD
ENDBRANCH  17  19
BRANCH  17  21
ATOM     21  O   UNL     1     -38.419  21.864   0.058  0.00  0.00    -0.322 OA
ATOM     22  H   UNL     1     -38.730  22.445  -0.654  0.00  0.00    +0.220 HD
ENDBRANCH  17  21
ENDBRANCH  16  17
ENDBRANCH  15  16
ENDBRANCH  14  15
ENDBRANCH  13  14
ENDBRANCH   1  13
TORSDOF 7
ENDMDL
MODEL 3
REMARK VINA RESULT:      -4.8      3.276      4.681
REMARK  Name = 60172
REMARK  7 active torsions:
REMARK  status: ('A' for Active; 'I' for Inactive)
REMARK    1  A    between atoms: N_1  and  C_13
REMARK    2  A    between atoms: C_13  and  C_14
REMARK    3  A    between atoms: C_14  and  O_15
REMARK    4  A    between atoms: O_15  and  C_16
REMARK    5  A    between atoms: C_16  and  P_17
REMARK    6  A    between atoms: P_17  and  O_19
REMARK    7  A    between atoms: P_17  and  O_21
REMARK                            x       y       z     vdW  Elec       q    Type
REMARK                         _______ _______ _______ _____ _____    ______ ____
ROOT
ATOM      1  N   UNL     1     -38.481  23.604   2.528  0.00  0.00    -0.269 N 
ATOM      2  N   UNL     1     -38.370  25.724   3.151  0.00  0.00    -0.242 NA
ATOM      3  N   UNL     1     -36.699  22.657   3.875  0.00  0.00    -0.228 NA
ATOM      4  N   UNL     1     -35.636  24.375   5.244  0.00  0.00    -0.229 NA
ATOM      5  C   UNL     1     -37.475  23.659   3.435  0.00  0.00    +0.151 C 
ATOM      6  C   UNL     1     -37.420  24.990   3.814  0.00  0.00    +0.140 C 
ATOM      7  C   UNL     1     -38.992  24.855   2.382  0.00  0.00    +0.221 C 
ATOM      8  C   UNL     1     -36.456  25.336   4.757  0.00  0.00    +0.143 C 
ATOM      9  C   UNL     1     -35.807  23.113   4.780  0.00  0.00    +0.253 C 
ATOM     10  N   UNL     1     -36.331  26.665   5.199  0.00  0.00    -0.342 N 
ATOM     11  H   UNL     1     -35.644  26.898   5.866  0.00  0.00    +0.144 HD
ATOM     12  H   UNL     1     -36.927  27.361   4.843  0.00  0.00    +0.144 HD
ENDROOT
BRANCH   1  13
ATOM     13  C   UNL     1     -38.943  22.412   1.822  0.00  0.00    +0.126 C 
BRANCH  13  14
ATOM     14  C   UNL     1     -38.511  22.394   0.363  0.00  0.00    +0.164 C 
BRANCH  14  15
ATOM     15  O   UNL     1     -37.139  22.033   0.274  0.00  0.00    -0.340 OA
BRANCH  15  16
ATOM     16  C   UNL     1     -36.977  20.634   0.087  0.00  0.00    +0.258 C 
BRANCH  16  17
ATOM     17  P   UNL     1     -35.759  20.150   1.292  0.00  0.00    +0.367 P 
ATOM     18  O   UNL     1     -34.832  19.059   0.846  0.00  0.00    -0.256 OA
BRANCH  17  19
ATOM     19  O   UNL     1     -36.636  19.814   2.607  0.00  0.00    -0.322 OA
ATOM     20  H   UNL     1     -36.062  19.816   3.388  0.00  0.00    +0.220 HD
ENDBRANCH  17  19
BRANCH  17  21
ATOM     21  O   UNL     1     -35.041  21.547   1.672  0.00  0.00    -0.322 OA
ATOM     22  H   UNL     1     -34.465  21.415   2.442  0.00  0.00    +0.220 HD
ENDBRANCH  17  21
ENDBRANCH  16  17
ENDBRANCH  15  16
ENDBRANCH  14  15
ENDBRANCH  13  14
ENDBRANCH   1  13
TORSDOF 7
ENDMDL
MODEL 4
REMARK VINA RESULT:      -4.8      2.067      2.636
REMARK  Name = 60172
REMARK  7 active torsions:
REMARK  status: ('A' for Active; 'I' for Inactive)
REMARK    1  A    between atoms: N_1  and  C_13
REMARK    2  A    between atoms: C_13  and  C_14
REMARK    3  A    between atoms: C_14  and  O_15
REMARK    4  A    between atoms: O_15  and  C_16
REMARK    5  A    between atoms: C_16  and  P_17
REMARK    6  A    between atoms: P_17  and  O_19
REMARK    7  A    between atoms: P_17  and  O_21
REMARK                            x       y       z     vdW  Elec       q    Type
REMARK                         _______ _______ _______ _____ _____    ______ ____
ROOT
ATOM      1  N   UNL     1     -35.210  22.250   1.797  0.00  0.00    -0.269 N 
ATOM      2  N   UNL     1     -35.264  20.845   3.504  0.00  0.00    -0.242 NA
ATOM      3  N   UNL     1     -35.748  24.331   2.923  0.00  0.00    -0.228 NA
ATOM      4  N   UNL     1     -36.090  23.964   5.312  0.00  0.00    -0.229 NA
ATOM      5  C   UNL     1     -35.519  23.010   2.876  0.00  0.00    +0.151 C 
ATOM      6  C   UNL     1     -35.549  22.116   3.934  0.00  0.00    +0.140 C 
ATOM      7  C   UNL     1     -35.066  20.963   2.208  0.00  0.00    +0.221 C 
ATOM      8  C   UNL     1     -35.846  22.637   5.190  0.00  0.00    +0.143 C 
ATOM      9  C   UNL     1     -36.026  24.717   4.187  0.00  0.00    +0.253 C 
ATOM     10  N   UNL     1     -35.896  21.802   6.320  0.00  0.00    -0.342 N 
ATOM     11  H   UNL     1     -36.109  22.182   7.203  0.00  0.00    +0.144 HD
ATOM     12  H   UNL     1     -35.720  20.838   6.228  0.00  0.00    +0.144 HD
ENDROOT
BRANCH   1  13
ATOM     13  C   UNL     1     -35.057  22.723   0.423  0.00  0.00    +0.126 C 
BRANCH  13  14
ATOM     14  C   UNL     1     -36.225  22.321  -0.466  0.00  0.00    +0.164 C 
BRANCH  14  15
ATOM     15  O   UNL     1     -37.439  22.808   0.089  0.00  0.00    -0.340 OA
BRANCH  15  16
ATOM     16  C   UNL     1     -38.466  21.827   0.043  0.00  0.00    +0.258 C 
BRANCH  16  17
ATOM     17  P   UNL     1     -39.119  21.771   1.699  0.00  0.00    +0.367 P 
ATOM     18  O   UNL     1     -39.212  23.102   2.384  0.00  0.00    -0.256 OA
BRANCH  17  19
ATOM     19  O   UNL     1     -38.187  20.679   2.440  0.00  0.00    -0.322 OA
ATOM     20  H   UNL     1     -38.698  20.234   3.133  0.00  0.00    +0.220 HD
ENDBRANCH  17  19
BRANCH  17  21
ATOM     21  O   UNL     1     -40.525  20.996   1.514  0.00  0.00    -0.322 OA
ATOM     22  H   UNL     1     -41.251  21.640   1.514  0.00  0.00    +0.220 HD
ENDBRANCH  17  21
ENDBRANCH  16  17
ENDBRANCH  15  16
ENDBRANCH  14  15
ENDBRANCH  13  14
ENDBRANCH   1  13
TORSDOF 7
ENDMDL
MODEL 5
REMARK VINA RESULT:      -4.8      2.740      4.550
REMARK  Name = 60172
REMARK  7 active torsions:
REMARK  status: ('A' for Active; 'I' for Inactive)
REMARK    1  A    between atoms: N_1  and  C_13
REMARK    2  A    between atoms: C_13  and  C_14
REMARK    3  A    between atoms: C_14  and  O_15
REMARK    4  A    between atoms: O_15  and  C_16
REMARK    5  A    between atoms: C_16  and  P_17
REMARK    6  A    between atoms: P_17  and  O_19
REMARK    7  A    between atoms: P_17  and  O_21
REMARK                            x       y       z     vdW  Elec       q    Type
REMARK                         _______ _______ _______ _____ _____    ______ ____
ROOT
ATOM      1  N   UNL     1     -36.496  22.150   2.949  0.00  0.00    -0.269 N 
ATOM      2  N   UNL     1     -37.779  20.938   1.616  0.00  0.00    -0.242 NA
ATOM      3  N   UNL     1     -37.967  24.030   3.384  0.00  0.00    -0.228 NA
ATOM      4  N   UNL     1     -40.093  23.759   2.217  0.00  0.00    -0.229 NA
ATOM      5  C   UNL     1     -37.649  22.852   2.827  0.00  0.00    +0.151 C 
ATOM      6  C   UNL     1     -38.439  22.081   1.990  0.00  0.00    +0.140 C 
ATOM      7  C   UNL     1     -36.608  21.014   2.213  0.00  0.00    +0.221 C 
ATOM      8  C   UNL     1     -39.706  22.574   1.690  0.00  0.00    +0.143 C 
ATOM      9  C   UNL     1     -39.212  24.404   3.020  0.00  0.00    +0.253 C 
ATOM     10  N   UNL     1     -40.574  21.855   0.850  0.00  0.00    -0.342 N 
ATOM     11  H   UNL     1     -41.468  22.215   0.644  0.00  0.00    +0.144 HD
ATOM     12  H   UNL     1     -40.290  20.994   0.468  0.00  0.00    +0.144 HD
ENDROOT
BRANCH   1  13
ATOM     13  C   UNL     1     -35.328  22.539   3.735  0.00  0.00    +0.126 C 
BRANCH  13  14
ATOM     14  C   UNL     1     -35.624  22.607   5.226  0.00  0.00    +0.164 C 
BRANCH  14  15
ATOM     15  O   UNL     1     -35.478  23.946   5.683  0.00  0.00    -0.340 OA
BRANCH  15  16
ATOM     16  C   UNL     1     -34.464  24.635   4.966  0.00  0.00    +0.258 C 
BRANCH  16  17
ATOM     17  P   UNL     1     -35.203  26.187   4.505  0.00  0.00    +0.367 P 
ATOM     18  O   UNL     1     -34.328  27.387   4.711  0.00  0.00    -0.256 OA
BRANCH  17  19
ATOM     19  O   UNL     1     -36.597  26.203   5.323  0.00  0.00    -0.322 OA
ATOM     20  H   UNL     1     -36.420  26.080   6.268  0.00  0.00    +0.220 HD
ENDBRANCH  17  19
BRANCH  17  21
ATOM     21  O   UNL     1     -35.671  25.934   2.979  0.00  0.00    -0.322 OA
ATOM     22  H   UNL     1     -36.639  25.978   2.926  0.00  0.00    +0.220 HD
ENDBRANCH  17  21
ENDBRANCH  16  17
ENDBRANCH  15  16
ENDBRANCH  14  15
ENDBRANCH  13  14
ENDBRANCH   1  13
TORSDOF 7
ENDMDL
MODEL 6
REMARK VINA RESULT:      -4.7      3.314      4.586
REMARK  Name = 60172
REMARK  7 active torsions:
REMARK  status: ('A' for Active; 'I' for Inactive)
REMARK    1  A    between atoms: N_1  and  C_13
REMARK    2  A    between atoms: C_13  and  C_14
REMARK    3  A    between atoms: C_14  and  O_15
REMARK    4  A    between atoms: O_15  and  C_16
REMARK    5  A    between atoms: C_16  and  P_17
REMARK    6  A    between atoms: P_17  and  O_19
REMARK    7  A    between atoms: P_17  and  O_21
REMARK                            x       y       z     vdW  Elec       q    Type
REMARK                         _______ _______ _______ _____ _____    ______ ____
ROOT
ATOM      1  N   UNL     1     -36.899  26.178   3.051  0.00  0.00    -0.269 N 
ATOM      2  N   UNL     1     -35.161  27.116   2.056  0.00  0.00    -0.242 NA
ATOM      3  N   UNL     1     -35.918  25.590   5.190  0.00  0.00    -0.228 NA
ATOM      4  N   UNL     1     -33.573  26.262   5.286  0.00  0.00    -0.229 NA
ATOM      5  C   UNL     1     -35.891  26.110   3.954  0.00  0.00    +0.151 C 
ATOM      6  C   UNL     1     -34.812  26.701   3.317  0.00  0.00    +0.140 C 
ATOM      7  C   UNL     1     -36.428  26.783   1.929  0.00  0.00    +0.221 C 
ATOM      8  C   UNL     1     -33.619  26.769   4.030  0.00  0.00    +0.143 C 
ATOM      9  C   UNL     1     -34.709  25.713   5.780  0.00  0.00    +0.253 C 
ATOM     10  N   UNL     1     -32.475  27.354   3.461  0.00  0.00    -0.342 N 
ATOM     11  H   UNL     1     -31.636  27.395   3.976  0.00  0.00    +0.144 HD
ATOM     12  H   UNL     1     -32.511  27.721   2.548  0.00  0.00    +0.144 HD
ENDROOT
BRANCH   1  13
ATOM     13  C   UNL     1     -38.262  25.686   3.240  0.00  0.00    +0.126 C 
BRANCH  13  14
ATOM     14  C   UNL     1     -38.563  24.460   2.389  0.00  0.00    +0.164 C 
BRANCH  14  15
ATOM     15  O   UNL     1     -38.320  23.281   3.146  0.00  0.00    -0.340 OA
BRANCH  15  16
ATOM     16  C   UNL     1     -37.537  22.346   2.418  0.00  0.00    +0.258 C 
BRANCH  16  17
ATOM     17  P   UNL     1     -36.007  22.229   3.322  0.00  0.00    +0.367 P 
ATOM     18  O   UNL     1     -34.873  23.023   2.744  0.00  0.00    -0.256 OA
BRANCH  17  19
ATOM     19  O   UNL     1     -35.748  20.638   3.431  0.00  0.00    -0.322 OA
ATOM     20  H   UNL     1     -34.862  20.431   3.099  0.00  0.00    +0.220 HD
ENDBRANCH  17  19
BRANCH  17  21
ATOM     21  O   UNL     1     -36.434  22.641   4.825  0.00  0.00    -0.322 OA
ATOM     22  H   UNL     1     -35.673  22.534   5.418  0.00  0.00    +0.220 HD
ENDBRANCH  17  21
ENDBRANCH  16  17
ENDBRANCH  15  16
ENDBRANCH  14  15
ENDBRANCH  13  14
ENDBRANCH   1  13
TORSDOF 7
ENDMDL
MODEL 7
REMARK VINA RESULT:      -4.7      2.971      4.166
REMARK  Name = 60172
REMARK  7 active torsions:
REMARK  status: ('A' for Active; 'I' for Inactive)
REMARK    1  A    between atoms: N_1  and  C_13
REMARK    2  A    between atoms: C_13  and  C_14
REMARK    3  A    between atoms: C_14  and  O_15
REMARK    4  A    between atoms: O_15  and  C_16
REMARK    5  A    between atoms: C_16  and  P_17
REMARK    6  A    between atoms: P_17  and  O_19
REMARK    7  A    between atoms: P_17  and  O_21
REMARK                            x       y       z     vdW  Elec       q    Type
REMARK                         _______ _______ _______ _____ _____    ______ ____
ROOT
ATOM      1  N   UNL     1     -37.745  23.787   2.676  0.00  0.00    -0.269 N 
ATOM      2  N   UNL     1     -38.002  22.115   1.251  0.00  0.00    -0.242 NA
ATOM      3  N   UNL     1     -36.109  22.828   4.189  0.00  0.00    -0.228 NA
ATOM      4  N   UNL     1     -35.508  20.565   3.499  0.00  0.00    -0.229 NA
ATOM      5  C   UNL     1     -36.918  22.809   3.119  0.00  0.00    +0.151 C 
ATOM      6  C   UNL     1     -37.091  21.772   2.217  0.00  0.00    +0.140 C 
ATOM      7  C   UNL     1     -38.377  23.339   1.559  0.00  0.00    +0.221 C 
ATOM      8  C   UNL     1     -36.345  20.617   2.436  0.00  0.00    +0.143 C 
ATOM      9  C   UNL     1     -35.442  21.659   4.297  0.00  0.00    +0.253 C 
ATOM     10  N   UNL     1     -36.458  19.516   1.569  0.00  0.00    -0.342 N 
ATOM     11  H   UNL     1     -35.926  18.704   1.735  0.00  0.00    +0.144 HD
ATOM     12  H   UNL     1     -37.068  19.556   0.798  0.00  0.00    +0.144 HD
ENDROOT
BRANCH   1  13
ATOM     13  C   UNL     1     -37.933  25.102   3.286  0.00  0.00    +0.126 C 
BRANCH  13  14
ATOM     14  C   UNL     1     -37.048  26.168   2.657  0.00  0.00    +0.164 C 
BRANCH  14  15
ATOM     15  O   UNL     1     -35.685  25.895   2.954  0.00  0.00    -0.340 OA
BRANCH  15  16
ATOM     16  C   UNL     1     -35.120  26.899   3.786  0.00  0.00    +0.258 C 
BRANCH  16  17
ATOM     17  P   UNL     1     -34.395  26.011   5.147  0.00  0.00    +0.367 P 
ATOM     18  O   UNL     1     -33.558  26.847   6.070  0.00  0.00    -0.256 OA
BRANCH  17  19
ATOM     19  O   UNL     1     -33.619  24.786   4.434  0.00  0.00    -0.322 OA
ATOM     20  H   UNL     1     -34.126  24.486   3.664  0.00  0.00    +0.220 HD
ENDBRANCH  17  19
BRANCH  17  21
ATOM     21  O   UNL     1     -35.667  25.292   5.838  0.00  0.00    -0.322 OA
ATOM     22  H   UNL     1     -36.439  25.876   5.779  0.00  0.00    +0.220 HD
ENDBRANCH  17  21
ENDBRANCH  16  17
ENDBRANCH  15  16
ENDBRANCH  14  15
ENDBRANCH  13  14
ENDBRANCH   1  13
TORSDOF 7
ENDMDL
MODEL 8
REMARK VINA RESULT:      -4.7      4.512      6.154
REMARK  Name = 60172
REMARK  7 active torsions:
REMARK  status: ('A' for Active; 'I' for Inactive)
REMARK    1  A    between atoms: N_1  and  C_13
REMARK    2  A    between atoms: C_13  and  C_14
REMARK    3  A    between atoms: C_14  and  O_15
REMARK    4  A    between atoms: O_15  and  C_16
REMARK    5  A    between atoms: C_16  and  P_17
REMARK    6  A    between atoms: P_17  and  O_19
REMARK    7  A    between atoms: P_17  and  O_21
REMARK                            x       y       z     vdW  Elec       q    Type
REMARK                         _______ _______ _______ _____ _____    ______ ____
ROOT
ATOM      1  N   UNL     1     -35.990  24.639   4.438  0.00  0.00    -0.269 N 
ATOM      2  N   UNL     1     -35.810  22.503   3.896  0.00  0.00    -0.242 NA
ATOM      3  N   UNL     1     -38.103  25.186   3.379  0.00  0.00    -0.228 NA
ATOM      4  N   UNL     1     -39.039  23.236   2.247  0.00  0.00    -0.229 NA
ATOM      5  C   UNL     1     -37.099  24.360   3.711  0.00  0.00    +0.151 C 
ATOM      6  C   UNL     1     -36.971  23.021   3.380  0.00  0.00    +0.140 C 
ATOM      7  C   UNL     1     -35.243  23.508   4.528  0.00  0.00    +0.221 C 
ATOM      8  C   UNL     1     -37.993  22.460   2.620  0.00  0.00    +0.143 C 
ATOM      9  C   UNL     1     -39.029  24.532   2.644  0.00  0.00    +0.253 C 
ATOM     10  N   UNL     1     -37.945  21.107   2.241  0.00  0.00    -0.342 N 
ATOM     11  H   UNL     1     -38.674  20.722   1.702  0.00  0.00    +0.144 HD
ATOM     12  H   UNL     1     -37.184  20.546   2.513  0.00  0.00    +0.144 HD
ENDROOT
BRANCH   1  13
ATOM     13  C   UNL     1     -35.646  25.931   5.027  0.00  0.00    +0.126 C 
BRANCH  13  14
ATOM     14  C   UNL     1     -34.397  25.863   5.894  0.00  0.00    +0.164 C 
BRANCH  14  15
ATOM     15  O   UNL     1     -33.587  27.007   5.658  0.00  0.00    -0.340 OA
BRANCH  15  16
ATOM     16  C   UNL     1     -32.710  27.260   6.747  0.00  0.00    +0.258 C 
BRANCH  16  17
ATOM     17  P   UNL     1     -31.595  28.515   6.153  0.00  0.00    +0.367 P 
ATOM     18  O   UNL     1     -30.467  28.006   5.308  0.00  0.00    -0.256 OA
BRANCH  17  19
ATOM     19  O   UNL     1     -31.151  29.297   7.496  0.00  0.00    -0.322 OA
ATOM     20  H   UNL     1     -31.933  29.684   7.919  0.00  0.00    +0.220 HD
ENDBRANCH  17  19
BRANCH  17  21
ATOM     21  O   UNL     1     -32.580  29.567   5.420  0.00  0.00    -0.322 OA
ATOM     22  H   UNL     1     -33.324  29.088   5.021  0.00  0.00    +0.220 HD
ENDBRANCH  17  21
ENDBRANCH  16  17
ENDBRANCH  15  16
ENDBRANCH  14  15
ENDBRANCH  13  14
ENDBRANCH   1  13
TORSDOF 7
ENDMDL
MODEL 9
REMARK VINA RESULT:      -4.7      2.754      4.630
REMARK  Name = 60172
REMARK  7 active torsions:
REMARK  status: ('A' for Active; 'I' for Inactive)
REMARK    1  A    between atoms: N_1  and  C_13
REMARK    2  A    between atoms: C_13  and  C_14
REMARK    3  A    between atoms: C_14  and  O_15
REMARK    4  A    between atoms: O_15  and  C_16
REMARK    5  A    between atoms: C_16  and  P_17
REMARK    6  A    between atoms: P_17  and  O_19
REMARK    7  A    between atoms: P_17  and  O_21
REMARK                            x       y       z     vdW  Elec       q    Type
REMARK                         _______ _______ _______ _____ _____    ______ ____
ROOT
ATOM      1  N   UNL     1     -36.007  24.538   4.950  0.00  0.00    -0.269 N 
ATOM      2  N   UNL     1     -36.006  22.341   4.689  0.00  0.00    -0.242 NA
ATOM      3  N   UNL     1     -37.414  25.201   3.087  0.00  0.00    -0.228 NA
ATOM      4  N   UNL     1     -38.161  23.250   1.824  0.00  0.00    -0.229 NA
ATOM      5  C   UNL     1     -36.778  24.306   3.859  0.00  0.00    +0.151 C 
ATOM      6  C   UNL     1     -36.767  22.929   3.711  0.00  0.00    +0.140 C 
ATOM      7  C   UNL     1     -35.562  23.342   5.419  0.00  0.00    +0.221 C 
ATOM      8  C   UNL     1     -37.495  22.405   2.646  0.00  0.00    +0.143 C 
ATOM      9  C   UNL     1     -38.081  24.576   2.093  0.00  0.00    +0.253 C 
ATOM     10  N   UNL     1     -37.540  21.018   2.422  0.00  0.00    -0.342 N 
ATOM     11  H   UNL     1     -38.057  20.659   1.665  0.00  0.00    +0.144 HD
ATOM     12  H   UNL     1     -37.054  20.406   3.020  0.00  0.00    +0.144 HD
ENDROOT
BRANCH   1  13
ATOM     13  C   UNL     1     -35.700  25.843   5.529  0.00  0.00    +0.126 C 
BRANCH  13  14
ATOM     14  C   UNL     1     -34.259  26.266   5.283  0.00  0.00    +0.164 C 
BRANCH  14  15
ATOM     15  O   UNL     1     -34.234  27.431   4.468  0.00  0.00    -0.340 OA
BRANCH  15  16
ATOM     16  C   UNL     1     -34.246  27.103   3.086  0.00  0.00    +0.258 C 
BRANCH  16  17
ATOM     17  P   UNL     1     -35.091  28.460   2.302  0.00  0.00    +0.367 P 
ATOM     18  O   UNL     1     -34.477  28.922   1.014  0.00  0.00    -0.256 OA
BRANCH  17  19
ATOM     19  O   UNL     1     -35.178  29.578   3.465  0.00  0.00    -0.322 OA
ATOM     20  H   UNL     1     -36.085  29.624   3.803  0.00  0.00    +0.220 HD
ENDBRANCH  17  19
BRANCH  17  21
ATOM     21  O   UNL     1     -36.613  27.928   2.183  0.00  0.00    -0.322 OA
ATOM     22  H   UNL     1     -36.608  26.983   1.963  0.00  0.00    +0.220 HD
ENDBRANCH  17  21
ENDBRANCH  16  17
ENDBRANCH  15  16
ENDBRANCH  14  15
ENDBRANCH  13  14
ENDBRANCH   1  13
TORSDOF 7
ENDMDL
