MODEL 1
REMARK VINA RESULT:      -7.5      0.000      0.000
REMARK  Name = 51000408
REMARK  4 active torsions:
REMARK  status: ('A' for Active; 'I' for Inactive)
REMARK    1  A    between atoms: C_4  and  C_11
REMARK    2  A    between atoms: C_5  and  C_22
REMARK    3  A    between atoms: C_10  and  S_16
REMARK    4  A    between atoms: N_21  and  C_24
REMARK                            x       y       z     vdW  Elec       q    Type
REMARK                         _______ _______ _______ _____ _____    ______ ____
ROOT
ATOM      1  N   UNL     1     -35.073  23.591   3.827  0.00  0.00    -0.397 NA
ATOM      2  N   UNL     1     -37.755  24.345   3.501  0.00  0.00    -0.247 NA
ATOM      3  N   UNL     1     -38.266  22.137   2.790  0.00  0.00    -0.341 N 
ATOM      4  C   UNL     1     -35.500  24.844   4.088  0.00  0.00    +0.134 C 
ATOM      5  C   UNL     1     -36.011  22.723   3.400  0.00  0.00    +0.215 C 
ATOM      6  C   UNL     1     -36.817  25.213   3.928  0.00  0.00    +0.185 C 
ATOM      7  C   UNL     1     -37.329  23.094   3.240  0.00  0.00    +0.156 C 
ATOM      8  H   UNL     1     -39.210  22.390   2.671  0.00  0.00    +0.144 HD
ATOM      9  H   UNL     1     -37.976  21.217   2.594  0.00  0.00    +0.144 HD
ENDROOT
BRANCH   4  11
ATOM     10  C   UNL     1     -32.540  27.565   5.425  0.00  0.00    +0.106 C 
ATOM     11  C   UNL     1     -34.490  25.774   4.545  0.00  0.00    +0.027 C 
ATOM     12  C   UNL     1     -32.810  27.442   4.061  0.00  0.00    +0.018 C 
ATOM     13  C   UNL     1     -33.245  26.792   6.347  0.00  0.00    +0.018 C 
ATOM     14  C   UNL     1     -33.785  26.546   3.622  0.00  0.00    +0.004 C 
ATOM     15  C   UNL     1     -34.219  25.896   5.908  0.00  0.00    +0.004 C 
BRANCH  10  16
ATOM     16  S   UNL     1     -31.320  28.686   5.976  0.00  0.00    +0.010 S 
ATOM     17  O   UNL     1     -31.809  29.365   7.167  0.00  0.00    -0.169 OA
ATOM     18  O   UNL     1     -30.048  27.979   6.016  0.00  0.00    -0.169 OA
ATOM     19  C   UNL     1     -31.227  29.907   4.686  0.00  0.00    +0.182 C 
ENDBRANCH  10  16
ENDBRANCH   4  11
BRANCH   5  22
ATOM     20  O   UNL     1     -35.296  20.616   4.076  0.00  0.00    -0.267 OA
ATOM     21  N   UNL     1     -35.349  21.059   1.773  0.00  0.00    -0.278 N 
ATOM     22  C   UNL     1     -35.531  21.378   3.125  0.00  0.00    +0.282 C 
ATOM     23  H   UNL     1     -35.581  21.769   1.130  0.00  0.00    +0.155 HD
BRANCH  21  24
ATOM     24  C   UNL     1     -34.876  19.849   1.208  0.00  0.00    +0.051 C 
ATOM     25  C   UNL     1     -33.623  19.355   1.569  0.00  0.00    +0.015 C 
ATOM     26  C   UNL     1     -35.662  19.152   0.291  0.00  0.00    +0.015 C 
ATOM     27  C   UNL     1     -33.155  18.164   1.014  0.00  0.00    +0.001 C 
ATOM     28  C   UNL     1     -35.195  17.960  -0.265  0.00  0.00    +0.001 C 
ATOM     29  C   UNL     1     -33.941  17.467   0.097  0.00  0.00    +0.000 C 
ENDBRANCH  21  24
ENDBRANCH   5  22
TORSDOF 4
ENDMDL
MODEL 2
REMARK VINA RESULT:      -7.5      0.377      1.392
REMARK  Name = 51000408
REMARK  4 active torsions:
REMARK  status: ('A' for Active; 'I' for Inactive)
REMARK    1  A    between atoms: C_4  and  C_11
REMARK    2  A    between atoms: C_5  and  C_22
REMARK    3  A    between atoms: C_10  and  S_16
REMARK    4  A    between atoms: N_21  and  C_24
REMARK                            x       y       z     vdW  Elec       q    Type
REMARK                         _______ _______ _______ _____ _____    ______ ____
ROOT
ATOM      1  N   UNL     1     -35.087  23.428   3.632  0.00  0.00    -0.397 NA
ATOM      2  N   UNL     1     -37.792  24.090   3.289  0.00  0.00    -0.247 NA
ATOM      3  N   UNL     1     -38.232  21.851   2.626  0.00  0.00    -0.341 N 
ATOM      4  C   UNL     1     -35.554  24.672   3.865  0.00  0.00    +0.134 C 
ATOM      5  C   UNL     1     -35.997  22.522   3.224  0.00  0.00    +0.215 C 
ATOM      6  C   UNL     1     -36.882  24.996   3.696  0.00  0.00    +0.185 C 
ATOM      7  C   UNL     1     -37.326  22.847   3.056  0.00  0.00    +0.156 C 
ATOM      8  H   UNL     1     -39.184  22.072   2.502  0.00  0.00    +0.144 HD
ATOM      9  H   UNL     1     -37.912  20.937   2.451  0.00  0.00    +0.144 HD
ENDROOT
BRANCH   4  11
ATOM     10  C   UNL     1     -32.687  27.517   5.146  0.00  0.00    +0.106 C 
ATOM     11  C   UNL     1     -34.574  25.643   4.302  0.00  0.00    +0.027 C 
ATOM     12  C   UNL     1     -33.351  26.725   6.083  0.00  0.00    +0.018 C 
ATOM     13  C   UNL     1     -32.968  27.373   3.787  0.00  0.00    +0.018 C 
ATOM     14  C   UNL     1     -34.294  25.787   5.661  0.00  0.00    +0.004 C 
ATOM     15  C   UNL     1     -33.911  26.436   3.365  0.00  0.00    +0.004 C 
BRANCH  10  16
ATOM     16  S   UNL     1     -31.506  28.690   5.673  0.00  0.00    +0.010 S 
ATOM     17  O   UNL     1     -32.187  29.746   6.408  0.00  0.00    -0.169 OA
ATOM     18  O   UNL     1     -30.406  27.968   6.297  0.00  0.00    -0.169 OA
ATOM     19  C   UNL     1     -30.900  29.415   4.167  0.00  0.00    +0.182 C 
ENDBRANCH  10  16
ENDBRANCH   4  11
BRANCH   5  22
ATOM     20  O   UNL     1     -35.250  20.440   3.945  0.00  0.00    -0.267 OA
ATOM     21  N   UNL     1     -35.242  20.858   1.637  0.00  0.00    -0.278 N 
ATOM     22  C   UNL     1     -35.475  21.187   2.979  0.00  0.00    +0.282 C 
ATOM     23  H   UNL     1     -35.472  21.556   0.979  0.00  0.00    +0.155 HD
BRANCH  21  24
ATOM     24  C   UNL     1     -34.721  19.655   1.100  0.00  0.00    +0.051 C 
ATOM     25  C   UNL     1     -35.466  18.927   0.173  0.00  0.00    +0.015 C 
ATOM     26  C   UNL     1     -33.466  19.199   1.500  0.00  0.00    +0.015 C 
ATOM     27  C   UNL     1     -34.954  17.741  -0.356  0.00  0.00    +0.001 C 
ATOM     28  C   UNL     1     -32.954  18.013   0.972  0.00  0.00    +0.001 C 
ATOM     29  C   UNL     1     -33.699  17.285   0.043  0.00  0.00    +0.000 C 
ENDBRANCH  21  24
ENDBRANCH   5  22
TORSDOF 4
ENDMDL
MODEL 3
REMARK VINA RESULT:      -7.4      7.148      9.316
REMARK  Name = 51000408
REMARK  4 active torsions:
REMARK  status: ('A' for Active; 'I' for Inactive)
REMARK    1  A    between atoms: C_4  and  C_11
REMARK    2  A    between atoms: C_5  and  C_22
REMARK    3  A    between atoms: C_10  and  S_16
REMARK    4  A    between atoms: N_21  and  C_24
REMARK                            x       y       z     vdW  Elec       q    Type
REMARK                         _______ _______ _______ _____ _____    ______ ____
ROOT
ATOM      1  N   UNL     1     -40.901  26.639   3.336  0.00  0.00    -0.397 NA
ATOM      2  N   UNL     1     -41.927  25.149   1.193  0.00  0.00    -0.247 NA
ATOM      3  N   UNL     1     -39.722  24.446   0.655  0.00  0.00    -0.341 N 
ATOM      4  C   UNL     1     -42.220  26.604   3.057  0.00  0.00    +0.134 C 
ATOM      5  C   UNL     1     -40.105  25.917   2.524  0.00  0.00    +0.215 C 
ATOM      6  C   UNL     1     -42.723  25.872   2.004  0.00  0.00    +0.185 C 
ATOM      7  C   UNL     1     -40.610  25.184   1.471  0.00  0.00    +0.156 C 
ATOM      8  H   UNL     1     -40.071  23.919  -0.100  0.00  0.00    +0.144 HD
ATOM      9  H   UNL     1     -38.756  24.458   0.842  0.00  0.00    +0.144 HD
ENDROOT
BRANCH   4  11
ATOM     10  C   UNL     1     -44.718  28.882   5.611  0.00  0.00    +0.106 C 
ATOM     11  C   UNL     1     -43.072  27.382   3.931  0.00  0.00    +0.027 C 
ATOM     12  C   UNL     1     -45.126  27.620   5.180  0.00  0.00    +0.018 C 
ATOM     13  C   UNL     1     -43.487  29.394   5.201  0.00  0.00    +0.018 C 
ATOM     14  C   UNL     1     -44.304  26.870   4.340  0.00  0.00    +0.004 C 
ATOM     15  C   UNL     1     -42.664  28.644   4.361  0.00  0.00    +0.004 C 
BRANCH  10  16
ATOM     16  S   UNL     1     -45.747  29.821   6.664  0.00  0.00    +0.010 S 
ATOM     17  O   UNL     1     -47.047  29.983   6.029  0.00  0.00    -0.169 OA
ATOM     18  O   UNL     1     -45.660  29.250   8.001  0.00  0.00    -0.169 OA
ATOM     19  C   UNL     1     -44.987  31.429   6.705  0.00  0.00    +0.182 C 
ENDBRANCH  10  16
ENDBRANCH   4  11
BRANCH   5  22
ATOM     20  O   UNL     1     -37.951  26.731   2.198  0.00  0.00    -0.267 OA
ATOM     21  N   UNL     1     -38.258  25.107   3.862  0.00  0.00    -0.278 N 
ATOM     22  C   UNL     1     -38.687  25.967   2.842  0.00  0.00    +0.282 C 
ATOM     23  H   UNL     1     -38.961  24.560   4.284  0.00  0.00    +0.155 HD
BRANCH  21  24
ATOM     24  C   UNL     1     -36.948  24.922   4.368  0.00  0.00    +0.051 C 
ATOM     25  C   UNL     1     -36.260  23.738   4.100  0.00  0.00    +0.015 C 
ATOM     26  C   UNL     1     -36.346  25.921   5.132  0.00  0.00    +0.015 C 
ATOM     27  C   UNL     1     -34.970  23.554   4.598  0.00  0.00    +0.001 C 
ATOM     28  C   UNL     1     -35.056  25.737   5.630  0.00  0.00    +0.001 C 
ATOM     29  C   UNL     1     -34.368  24.552   5.362  0.00  0.00    +0.000 C 
ENDBRANCH  21  24
ENDBRANCH   5  22
TORSDOF 4
ENDMDL
MODEL 4
REMARK VINA RESULT:      -7.3      3.447      8.249
REMARK  Name = 51000408
REMARK  4 active torsions:
REMARK  status: ('A' for Active; 'I' for Inactive)
REMARK    1  A    between atoms: C_4  and  C_11
REMARK    2  A    between atoms: C_5  and  C_22
REMARK    3  A    between atoms: C_10  and  S_16
REMARK    4  A    between atoms: N_21  and  C_24
REMARK                            x       y       z     vdW  Elec       q    Type
REMARK                         _______ _______ _______ _____ _____    ______ ____
ROOT
ATOM      1  N   UNL     1     -35.152  23.463   2.698  0.00  0.00    -0.397 NA
ATOM      2  N   UNL     1     -37.886  22.891   2.947  0.00  0.00    -0.247 NA
ATOM      3  N   UNL     1     -38.217  25.016   3.955  0.00  0.00    -0.341 N 
ATOM      4  C   UNL     1     -35.679  22.296   2.275  0.00  0.00    +0.134 C 
ATOM      5  C   UNL     1     -36.017  24.338   3.248  0.00  0.00    +0.215 C 
ATOM      6  C   UNL     1     -37.021  22.016   2.397  0.00  0.00    +0.185 C 
ATOM      7  C   UNL     1     -37.360  24.056   3.370  0.00  0.00    +0.156 C 
ATOM      8  H   UNL     1     -39.178  24.826   4.048  0.00  0.00    +0.144 HD
ATOM      9  H   UNL     1     -37.852  25.874   4.270  0.00  0.00    +0.144 HD
ENDROOT
BRANCH   4  11
ATOM     10  C   UNL     1     -32.950  19.550   0.553  0.00  0.00    +0.106 C 
ATOM     11  C   UNL     1     -34.747  21.358   1.686  0.00  0.00    +0.027 C 
ATOM     12  C   UNL     1     -33.787  19.143   1.592  0.00  0.00    +0.018 C 
ATOM     13  C   UNL     1     -33.011  20.861   0.081  0.00  0.00    +0.018 C 
ATOM     14  C   UNL     1     -34.686  20.047   2.158  0.00  0.00    +0.004 C 
ATOM     15  C   UNL     1     -33.910  21.766   0.647  0.00  0.00    +0.004 C 
BRANCH  10  16
ATOM     16  S   UNL     1     -31.825  18.419  -0.157  0.00  0.00    +0.010 S 
ATOM     17  O   UNL     1     -31.539  17.370   0.811  0.00  0.00    -0.169 OA
ATOM     18  O   UNL     1     -32.319  18.067  -1.480  0.00  0.00    -0.169 OA
ATOM     19  C   UNL     1     -30.327  19.355  -0.363  0.00  0.00    +0.182 C 
ENDBRANCH  10  16
ENDBRANCH   4  11
BRANCH   5  22
ATOM     20  O   UNL     1     -35.929  26.661   3.319  0.00  0.00    -0.267 OA
ATOM     21  N   UNL     1     -34.302  25.476   4.523  0.00  0.00    -0.278 N 
ATOM     22  C   UNL     1     -35.429  25.590   3.697  0.00  0.00    +0.282 C 
ATOM     23  H   UNL     1     -34.022  24.556   4.739  0.00  0.00    +0.155 HD
BRANCH  21  24
ATOM     24  C   UNL     1     -33.514  26.508   5.088  0.00  0.00    +0.051 C 
ATOM     25  C   UNL     1     -33.325  26.562   6.469  0.00  0.00    +0.015 C 
ATOM     26  C   UNL     1     -32.928  27.469   4.265  0.00  0.00    +0.015 C 
ATOM     27  C   UNL     1     -32.549  27.578   7.027  0.00  0.00    +0.001 C 
ATOM     28  C   UNL     1     -32.152  28.486   4.823  0.00  0.00    +0.001 C 
ATOM     29  C   UNL     1     -31.963  28.540   6.205  0.00  0.00    +0.000 C 
ENDBRANCH  21  24
ENDBRANCH   5  22
TORSDOF 4
ENDMDL
MODEL 5
REMARK VINA RESULT:      -7.1      4.172      8.879
REMARK  Name = 51000408
REMARK  4 active torsions:
REMARK  status: ('A' for Active; 'I' for Inactive)
REMARK    1  A    between atoms: C_4  and  C_11
REMARK    2  A    between atoms: C_5  and  C_22
REMARK    3  A    between atoms: C_10  and  S_16
REMARK    4  A    between atoms: N_21  and  C_24
REMARK                            x       y       z     vdW  Elec       q    Type
REMARK                         _______ _______ _______ _____ _____    ______ ____
ROOT
ATOM      1  N   UNL     1     -34.311  19.882   2.024  0.00  0.00    -0.397 NA
ATOM      2  N   UNL     1     -36.697  19.374   0.639  0.00  0.00    -0.247 NA
ATOM      3  N   UNL     1     -37.820  20.918   2.053  0.00  0.00    -0.341 N 
ATOM      4  C   UNL     1     -34.369  19.011   0.996  0.00  0.00    +0.134 C 
ATOM      5  C   UNL     1     -35.467  20.493   2.348  0.00  0.00    +0.215 C 
ATOM      6  C   UNL     1     -35.540  18.762   0.316  0.00  0.00    +0.185 C 
ATOM      7  C   UNL     1     -36.640  20.243   1.667  0.00  0.00    +0.156 C 
ATOM      8  H   UNL     1     -38.663  20.747   1.574  0.00  0.00    +0.144 HD
ATOM      9  H   UNL     1     -37.799  21.557   2.801  0.00  0.00    +0.144 HD
ENDROOT
BRANCH   4  11
ATOM     10  C   UNL     1     -30.729  17.089  -0.008  0.00  0.00    +0.106 C 
ATOM     11  C   UNL     1     -33.125  18.355   0.652  0.00  0.00    +0.027 C 
ATOM     12  C   UNL     1     -31.929  16.380  -0.058  0.00  0.00    +0.018 C 
ATOM     13  C   UNL     1     -30.727  18.431   0.373  0.00  0.00    +0.018 C 
ATOM     14  C   UNL     1     -33.127  17.013   0.272  0.00  0.00    +0.004 C 
ATOM     15  C   UNL     1     -31.925  19.064   0.703  0.00  0.00    +0.004 C 
BRANCH  10  16
ATOM     16  S   UNL     1     -29.228  16.297  -0.422  0.00  0.00    +0.010 S 
ATOM     17  O   UNL     1     -29.301  14.903  -0.006  0.00  0.00    -0.169 OA
ATOM     18  O   UNL     1     -28.916  16.624  -1.806  0.00  0.00    -0.169 OA
ATOM     19  C   UNL     1     -28.014  17.082   0.613  0.00  0.00    +0.182 C 
ENDBRANCH  10  16
ENDBRANCH   4  11
BRANCH   5  22
ATOM     20  O   UNL     1     -35.377  20.988   4.618  0.00  0.00    -0.267 OA
ATOM     21  N   UNL     1     -35.341  22.786   3.112  0.00  0.00    -0.278 N 
ATOM     22  C   UNL     1     -35.384  21.428   3.458  0.00  0.00    +0.282 C 
ATOM     23  H   UNL     1     -35.352  22.982   2.146  0.00  0.00    +0.155 HD
BRANCH  21  24
ATOM     24  C   UNL     1     -35.282  23.913   3.968  0.00  0.00    +0.051 C 
ATOM     25  C   UNL     1     -34.047  24.450   4.329  0.00  0.00    +0.015 C 
ATOM     26  C   UNL     1     -36.459  24.485   4.450  0.00  0.00    +0.015 C 
ATOM     27  C   UNL     1     -33.987  25.559   5.172  0.00  0.00    +0.001 C 
ATOM     28  C   UNL     1     -36.400  25.595   5.294  0.00  0.00    +0.001 C 
ATOM     29  C   UNL     1     -35.163  26.132   5.655  0.00  0.00    +0.000 C 
ENDBRANCH  21  24
ENDBRANCH   5  22
TORSDOF 4
ENDMDL
MODEL 6
REMARK VINA RESULT:      -7.0      3.697      8.449
REMARK  Name = 51000408
REMARK  4 active torsions:
REMARK  status: ('A' for Active; 'I' for Inactive)
REMARK    1  A    between atoms: C_4  and  C_11
REMARK    2  A    between atoms: C_5  and  C_22
REMARK    3  A    between atoms: C_10  and  S_16
REMARK    4  A    between atoms: N_21  and  C_24
REMARK                            x       y       z     vdW  Elec       q    Type
REMARK                         _______ _______ _______ _____ _____    ______ ____
ROOT
ATOM      1  N   UNL     1     -36.200  21.953   2.488  0.00  0.00    -0.397 NA
ATOM      2  N   UNL     1     -38.890  21.796   1.707  0.00  0.00    -0.247 NA
ATOM      3  N   UNL     1     -39.337  23.785   2.927  0.00  0.00    -0.341 N 
ATOM      4  C   UNL     1     -36.660  20.956   1.704  0.00  0.00    +0.134 C 
ATOM      5  C   UNL     1     -37.110  22.869   2.874  0.00  0.00    +0.215 C 
ATOM      6  C   UNL     1     -37.981  20.880   1.321  0.00  0.00    +0.185 C 
ATOM      7  C   UNL     1     -38.432  22.792   2.490  0.00  0.00    +0.156 C 
ATOM      8  H   UNL     1     -40.284  23.740   2.659  0.00  0.00    +0.144 HD
ATOM      9  H   UNL     1     -39.022  24.521   3.499  0.00  0.00    +0.144 HD
ENDROOT
BRANCH   4  11
ATOM     10  C   UNL     1     -33.792  18.080   0.498  0.00  0.00    +0.106 C 
ATOM     11  C   UNL     1     -35.681  19.973   1.293  0.00  0.00    +0.027 C 
ATOM     12  C   UNL     1     -33.494  18.973   1.528  0.00  0.00    +0.018 C 
ATOM     13  C   UNL     1     -35.034  18.135  -0.135  0.00  0.00    +0.018 C 
ATOM     14  C   UNL     1     -34.439  19.919   1.926  0.00  0.00    +0.004 C 
ATOM     15  C   UNL     1     -35.978  19.082   0.262  0.00  0.00    +0.004 C 
BRANCH  10  16
ATOM     16  S   UNL     1     -32.610  16.895  -0.000  0.00  0.00    +0.010 S 
ATOM     17  O   UNL     1     -31.490  16.927   0.930  0.00  0.00    -0.169 OA
ATOM     18  O   UNL     1     -33.309  15.642  -0.247  0.00  0.00    -0.169 OA
ATOM     19  C   UNL     1     -32.006  17.502  -1.559  0.00  0.00    +0.182 C 
ENDBRANCH  10  16
ENDBRANCH   4  11
BRANCH   5  22
ATOM     20  O   UNL     1     -37.351  24.469   4.545  0.00  0.00    -0.267 OA
ATOM     21  N   UNL     1     -35.257  24.295   3.501  0.00  0.00    -0.278 N 
ATOM     22  C   UNL     1     -36.595  23.936   3.718  0.00  0.00    +0.282 C 
ATOM     23  H   UNL     1     -34.782  23.778   2.808  0.00  0.00    +0.155 HD
BRANCH  21  24
ATOM     24  C   UNL     1     -34.498  25.302   4.146  0.00  0.00    +0.051 C 
ATOM     25  C   UNL     1     -33.811  26.249   3.387  0.00  0.00    +0.015 C 
ATOM     26  C   UNL     1     -34.438  25.346   5.538  0.00  0.00    +0.015 C 
ATOM     27  C   UNL     1     -33.062  27.241   4.021  0.00  0.00    +0.001 C 
ATOM     28  C   UNL     1     -33.689  26.338   6.173  0.00  0.00    +0.001 C 
ATOM     29  C   UNL     1     -33.001  27.286   5.413  0.00  0.00    +0.000 C 
ENDBRANCH  21  24
ENDBRANCH   5  22
TORSDOF 4
ENDMDL
MODEL 7
REMARK VINA RESULT:      -7.0      3.421      5.856
REMARK  Name = 51000408
REMARK  4 active torsions:
REMARK  status: ('A' for Active; 'I' for Inactive)
REMARK    1  A    between atoms: C_4  and  C_11
REMARK    2  A    between atoms: C_5  and  C_22
REMARK    3  A    between atoms: C_10  and  S_16
REMARK    4  A    between atoms: N_21  and  C_24
REMARK                            x       y       z     vdW  Elec       q    Type
REMARK                         _______ _______ _______ _____ _____    ______ ____
ROOT
ATOM      1  N   UNL     1     -36.104  25.713   3.821  0.00  0.00    -0.397 NA
ATOM      2  N   UNL     1     -35.719  22.953   4.141  0.00  0.00    -0.247 NA
ATOM      3  N   UNL     1     -37.788  22.560   3.041  0.00  0.00    -0.341 N 
ATOM      4  C   UNL     1     -35.012  25.210   4.431  0.00  0.00    +0.134 C 
ATOM      5  C   UNL     1     -37.000  24.811   3.375  0.00  0.00    +0.215 C 
ATOM      6  C   UNL     1     -34.823  23.855   4.588  0.00  0.00    +0.185 C 
ATOM      7  C   UNL     1     -36.811  23.455   3.532  0.00  0.00    +0.156 C 
ATOM      8  H   UNL     1     -37.663  21.589   3.148  0.00  0.00    +0.144 HD
ATOM      9  H   UNL     1     -38.592  22.906   2.593  0.00  0.00    +0.144 HD
ENDROOT
BRANCH   4  11
ATOM     10  C   UNL     1     -32.203  28.055   5.836  0.00  0.00    +0.106 C 
ATOM     11  C   UNL     1     -34.052  26.182   4.910  0.00  0.00    +0.027 C 
ATOM     12  C   UNL     1     -32.804  27.168   6.729  0.00  0.00    +0.018 C 
ATOM     13  C   UNL     1     -32.528  28.006   4.480  0.00  0.00    +0.018 C 
ATOM     14  C   UNL     1     -33.728  26.231   6.266  0.00  0.00    +0.004 C 
ATOM     15  C   UNL     1     -33.452  27.069   4.017  0.00  0.00    +0.004 C 
BRANCH  10  16
ATOM     16  S   UNL     1     -31.046  29.228   6.414  0.00  0.00    +0.010 S 
ATOM     17  O   UNL     1     -31.570  29.851   7.621  0.00  0.00    -0.169 OA
ATOM     18  O   UNL     1     -29.737  28.590   6.440  0.00  0.00    -0.169 OA
ATOM     19  C   UNL     1     -31.019  30.482   5.153  0.00  0.00    +0.182 C 
ENDBRANCH  10  16
ENDBRANCH   4  11
BRANCH   5  22
ATOM     20  O   UNL     1     -38.035  25.938   1.623  0.00  0.00    -0.267 OA
ATOM     21  N   UNL     1     -39.381  25.244   3.414  0.00  0.00    -0.278 N 
ATOM     22  C   UNL     1     -38.171  25.373   2.720  0.00  0.00    +0.282 C 
ATOM     23  H   UNL     1     -39.332  24.768   4.276  0.00  0.00    +0.155 HD
BRANCH  21  24
ATOM     24  C   UNL     1     -40.667  25.709   3.041  0.00  0.00    +0.051 C 
ATOM     25  C   UNL     1     -41.265  25.236   1.873  0.00  0.00    +0.015 C 
ATOM     26  C   UNL     1     -41.333  26.637   3.840  0.00  0.00    +0.015 C 
ATOM     27  C   UNL     1     -42.530  25.693   1.504  0.00  0.00    +0.001 C 
ATOM     28  C   UNL     1     -42.598  27.095   3.471  0.00  0.00    +0.001 C 
ATOM     29  C   UNL     1     -43.197  26.621   2.302  0.00  0.00    +0.000 C 
ENDBRANCH  21  24
ENDBRANCH   5  22
TORSDOF 4
ENDMDL
MODEL 8
REMARK VINA RESULT:      -6.9      4.292      8.439
REMARK  Name = 51000408
REMARK  4 active torsions:
REMARK  status: ('A' for Active; 'I' for Inactive)
REMARK    1  A    between atoms: C_4  and  C_11
REMARK    2  A    between atoms: C_5  and  C_22
REMARK    3  A    between atoms: C_10  and  S_16
REMARK    4  A    between atoms: N_21  and  C_24
REMARK                            x       y       z     vdW  Elec       q    Type
REMARK                         _______ _______ _______ _____ _____    ______ ____
ROOT
ATOM      1  N   UNL     1     -36.571  24.015   2.675  0.00  0.00    -0.397 NA
ATOM      2  N   UNL     1     -35.180  24.734   5.003  0.00  0.00    -0.247 NA
ATOM      3  N   UNL     1     -36.717  26.513   5.345  0.00  0.00    -0.341 N 
ATOM      4  C   UNL     1     -35.482  23.339   3.095  0.00  0.00    +0.134 C 
ATOM      5  C   UNL     1     -36.951  25.057   3.441  0.00  0.00    +0.215 C 
ATOM      6  C   UNL     1     -34.799  23.692   4.238  0.00  0.00    +0.185 C 
ATOM      7  C   UNL     1     -36.267  25.410   4.584  0.00  0.00    +0.156 C 
ATOM      8  H   UNL     1     -36.237  26.774   6.164  0.00  0.00    +0.144 HD
ATOM      9  H   UNL     1     -37.510  27.019   5.057  0.00  0.00    +0.144 HD
ENDROOT
BRANCH   4  11
ATOM     10  C   UNL     1     -34.293  20.068   0.678  0.00  0.00    +0.106 C 
ATOM     11  C   UNL     1     -35.075  22.221   2.270  0.00  0.00    +0.027 C 
ATOM     12  C   UNL     1     -34.093  21.375   0.231  0.00  0.00    +0.018 C 
ATOM     13  C   UNL     1     -34.885  19.839   1.920  0.00  0.00    +0.018 C 
ATOM     14  C   UNL     1     -34.484  22.451   1.027  0.00  0.00    +0.004 C 
ATOM     15  C   UNL     1     -35.276  20.916   2.716  0.00  0.00    +0.004 C 
BRANCH  10  16
ATOM     16  S   UNL     1     -33.804  18.720  -0.318  0.00  0.00    +0.010 S 
ATOM     17  O   UNL     1     -34.985  17.954  -0.688  0.00  0.00    -0.169 OA
ATOM     18  O   UNL     1     -32.917  19.228  -1.355  0.00  0.00    -0.169 OA
ATOM     19  C   UNL     1     -32.841  17.693   0.770  0.00  0.00    +0.182 C 
ENDBRANCH  10  16
ENDBRANCH   4  11
BRANCH   5  22
ATOM     20  O   UNL     1     -37.978  26.826   2.333  0.00  0.00    -0.267 OA
ATOM     21  N   UNL     1     -39.363  25.206   3.313  0.00  0.00    -0.278 N 
ATOM     22  C   UNL     1     -38.127  25.773   2.972  0.00  0.00    +0.282 C 
ATOM     23  H   UNL     1     -39.322  24.364   3.823  0.00  0.00    +0.155 HD
BRANCH  21  24
ATOM     24  C   UNL     1     -40.664  25.684   3.019  0.00  0.00    +0.051 C 
ATOM     25  C   UNL     1     -41.295  25.303   1.835  0.00  0.00    +0.015 C 
ATOM     26  C   UNL     1     -41.313  26.536   3.913  0.00  0.00    +0.015 C 
ATOM     27  C   UNL     1     -42.575  25.774   1.545  0.00  0.00    +0.001 C 
ATOM     28  C   UNL     1     -42.594  27.007   3.622  0.00  0.00    +0.001 C 
ATOM     29  C   UNL     1     -43.225  26.625   2.438  0.00  0.00    +0.000 C 
ENDBRANCH  21  24
ENDBRANCH   5  22
TORSDOF 4
ENDMDL
MODEL 9
REMARK VINA RESULT:      -6.9      2.508      3.121
REMARK  Name = 51000408
REMARK  4 active torsions:
REMARK  status: ('A' for Active; 'I' for Inactive)
REMARK    1  A    between atoms: C_4  and  C_11
REMARK    2  A    between atoms: C_5  and  C_22
REMARK    3  A    between atoms: C_10  and  S_16
REMARK    4  A    between atoms: N_21  and  C_24
REMARK                            x       y       z     vdW  Elec       q    Type
REMARK                         _______ _______ _______ _____ _____    ______ ____
ROOT
ATOM      1  N   UNL     1     -35.834  23.599   2.418  0.00  0.00    -0.397 NA
ATOM      2  N   UNL     1     -38.598  23.160   2.234  0.00  0.00    -0.247 NA
ATOM      3  N   UNL     1     -38.199  20.819   2.172  0.00  0.00    -0.341 N 
ATOM      4  C   UNL     1     -36.719  24.616   2.402  0.00  0.00    +0.134 C 
ATOM      5  C   UNL     1     -36.355  22.360   2.340  0.00  0.00    +0.215 C 
ATOM      6  C   UNL     1     -38.076  24.400   2.312  0.00  0.00    +0.185 C 
ATOM      7  C   UNL     1     -37.714  22.144   2.250  0.00  0.00    +0.156 C 
ATOM      8  H   UNL     1     -39.168  20.653   2.106  0.00  0.00    +0.144 HD
ATOM      9  H   UNL     1     -37.570  20.062   2.182  0.00  0.00    +0.144 HD
ENDROOT
BRANCH   4  11
ATOM     10  C   UNL     1     -35.071  28.512   2.648  0.00  0.00    +0.106 C 
ATOM     11  C   UNL     1     -36.156  25.947   2.485  0.00  0.00    +0.027 C 
ATOM     12  C   UNL     1     -34.547  27.482   3.430  0.00  0.00    +0.018 C 
ATOM     13  C   UNL     1     -36.138  28.259   1.785  0.00  0.00    +0.018 C 
ATOM     14  C   UNL     1     -35.090  26.200   3.348  0.00  0.00    +0.004 C 
ATOM     15  C   UNL     1     -36.680  26.976   1.704  0.00  0.00    +0.004 C 
BRANCH  10  16
ATOM     16  S   UNL     1     -34.392  30.118   2.749  0.00  0.00    +0.010 S 
ATOM     17  O   UNL     1     -34.140  30.608   1.402  0.00  0.00    -0.169 OA
ATOM     18  O   UNL     1     -35.219  30.897   3.659  0.00  0.00    -0.169 OA
ATOM     19  C   UNL     1     -32.806  29.879   3.519  0.00  0.00    +0.182 C 
ENDBRANCH  10  16
ENDBRANCH   4  11
BRANCH   5  22
ATOM     20  O   UNL     1     -35.327  20.537   3.354  0.00  0.00    -0.267 OA
ATOM     21  N   UNL     1     -34.559  21.175   1.231  0.00  0.00    -0.278 N 
ATOM     22  C   UNL     1     -35.384  21.277   2.360  0.00  0.00    +0.282 C 
ATOM     23  H   UNL     1     -34.725  21.835   0.519  0.00  0.00    +0.155 HD
BRANCH  21  24
ATOM     24  C   UNL     1     -33.519  20.247   0.980  0.00  0.00    +0.051 C 
ATOM     25  C   UNL     1     -33.573  18.972   1.542  0.00  0.00    +0.015 C 
ATOM     26  C   UNL     1     -32.441  20.609   0.173  0.00  0.00    +0.015 C 
ATOM     27  C   UNL     1     -32.549  18.057   1.296  0.00  0.00    +0.001 C 
ATOM     28  C   UNL     1     -31.416  19.695  -0.073  0.00  0.00    +0.001 C 
ATOM     29  C   UNL     1     -31.471  18.418   0.489  0.00  0.00    +0.000 C 
ENDBRANCH  21  24
ENDBRANCH   5  22
TORSDOF 4
ENDMDL
