MODEL 1
REMARK VINA RESULT:      -5.7      0.000      0.000
REMARK  Name = 5283119
REMARK  17 active torsions:
REMARK  status: ('A' for Active; 'I' for Inactive)
REMARK    1  A    between atoms: C_2  and  C_9
REMARK    2  A    between atoms: C_3  and  C_19
REMARK    3  A    between atoms: C_4  and  O_7
REMARK    4  A    between atoms: C_10  and  C_11
REMARK    5  A    between atoms: C_11  and  O_12
REMARK    6  A    between atoms: C_11  and  C_14
REMARK    7  A    between atoms: C_14  and  C_15
REMARK    8  A    between atoms: C_15  and  C_16
REMARK    9  A    between atoms: C_16  and  C_17
REMARK   10  A    between atoms: C_19  and  C_20
REMARK   11  A    between atoms: C_21  and  C_22
REMARK   12  A    between atoms: C_22  and  C_23
REMARK   13  A    between atoms: C_23  and  C_24
REMARK   14  A    between atoms: C_24  and  C_27
REMARK   15  A    between atoms: N_26  and  C_29
REMARK   16  A    between atoms: C_29  and  C_30
REMARK   17  A    between atoms: C_30  and  O_31
REMARK                            x       y       z     vdW  Elec       q    Type
REMARK                         _______ _______ _______ _____ _____    ______ ____
ROOT
ATOM      1  O   UNL     1     -33.710  26.785   5.598  0.00  0.00    -0.296 OA
ATOM      2  C   UNL     1     -35.502  24.609   3.466  0.00  0.00    +0.056 C 
ATOM      3  C   UNL     1     -34.116  25.008   3.995  0.00  0.00    +0.068 C 
ATOM      4  C   UNL     1     -36.395  24.641   4.713  0.00  0.00    +0.122 C 
ATOM      5  C   UNL     1     -35.940  25.881   5.479  0.00  0.00    +0.094 C 
ATOM      6  C   UNL     1     -34.490  25.993   5.084  0.00  0.00    +0.153 C 
ENDROOT
BRANCH   4   7
ATOM      7  O   UNL     1     -37.757  24.761   4.336  0.00  0.00    -0.384 OA
ATOM      8  H   UNL     1     -38.212  23.919   4.495  0.00  0.00    +0.210 HD
ENDBRANCH   4   7
BRANCH   2   9
ATOM      9  C   UNL     1     -35.497  23.278   2.786  0.00  0.00    -0.026 C 
ATOM     10  C   UNL     1     -35.353  22.110   3.430  0.00  0.00    -0.002 C 
BRANCH  10  11
ATOM     11  C   UNL     1     -35.346  20.776   2.740  0.00  0.00    +0.132 C 
BRANCH  11  12
ATOM     12  O   UNL     1     -36.653  20.208   2.845  0.00  0.00    -0.380 OA
ATOM     13  H   UNL     1     -36.684  19.606   3.605  0.00  0.00    +0.211 HD
ENDBRANCH  11  12
BRANCH  11  14
ATOM     14  C   UNL     1     -35.007  20.877   1.247  0.00  0.00    +0.034 C 
BRANCH  14  15
ATOM     15  C   UNL     1     -34.494  19.560   0.653  0.00  0.00    +0.003 C 
BRANCH  15  16
ATOM     16  C   UNL     1     -33.467  18.853   1.543  0.00  0.00    +0.000 C 
BRANCH  16  17
ATOM     17  C   UNL     1     -32.066  18.803   0.932  0.00  0.00    +0.000 C 
ATOM     18  C   UNL     1     -31.859  19.927  -0.073  0.00  0.00    +0.000 C 
ENDBRANCH  16  17
ENDBRANCH  15  16
ENDBRANCH  14  15
ENDBRANCH  11  14
ENDBRANCH  10  11
ENDBRANCH   2   9
BRANCH   3  19
ATOM     19  C   UNL     1     -33.220  25.625   2.935  0.00  0.00    +0.033 C 
BRANCH  19  20
ATOM     20  C   UNL     1     -34.023  26.226   1.819  0.00  0.00    -0.030 C 
ATOM     21  C   UNL     1     -33.996  27.528   1.498  0.00  0.00    -0.031 C 
BRANCH  21  22
ATOM     22  C   UNL     1     -33.157  28.547   2.215  0.00  0.00    +0.026 C 
BRANCH  22  23
ATOM     23  C   UNL     1     -33.989  29.326   3.240  0.00  0.00    +0.014 C 
BRANCH  23  24
ATOM     24  C   UNL     1     -33.403  30.706   3.534  0.00  0.00    +0.085 C 
BRANCH  24  27
ATOM     25  O   UNL     1     -31.318  31.459   4.506  0.00  0.00    -0.275 OA
ATOM     26  N   UNL     1     -32.452  29.690   5.495  0.00  0.00    -0.302 N 
ATOM     27  C   UNL     1     -32.273  30.689   4.549  0.00  0.00    +0.223 C 
ATOM     28  H   UNL     1     -33.258  29.127   5.435  0.00  0.00    +0.150 HD
BRANCH  26  29
ATOM     29  C   UNL     1     -31.514  29.435   6.564  0.00  0.00    +0.121 C 
BRANCH  29  30
ATOM     30  C   UNL     1     -30.427  28.467   6.134  0.00  0.00    +0.158 C 
BRANCH  30  31
ATOM     31  O   UNL     1     -29.512  28.276   7.206  0.00  0.00    -0.380 OA
ATOM     32  H   UNL     1     -28.841  28.975   7.186  0.00  0.00    +0.211 HD
ENDBRANCH  30  31
ENDBRANCH  29  30
ENDBRANCH  26  29
ENDBRANCH  24  27
ENDBRANCH  23  24
ENDBRANCH  22  23
ENDBRANCH  21  22
ENDBRANCH  19  20
ENDBRANCH   3  19
TORSDOF 17
ENDMDL
MODEL 2
REMARK VINA RESULT:      -5.6      4.503      6.331
REMARK  Name = 5283119
REMARK  17 active torsions:
REMARK  status: ('A' for Active; 'I' for Inactive)
REMARK    1  A    between atoms: C_2  and  C_9
REMARK    2  A    between atoms: C_3  and  C_19
REMARK    3  A    between atoms: C_4  and  O_7
REMARK    4  A    between atoms: C_10  and  C_11
REMARK    5  A    between atoms: C_11  and  O_12
REMARK    6  A    between atoms: C_11  and  C_14
REMARK    7  A    between atoms: C_14  and  C_15
REMARK    8  A    between atoms: C_15  and  C_16
REMARK    9  A    between atoms: C_16  and  C_17
REMARK   10  A    between atoms: C_19  and  C_20
REMARK   11  A    between atoms: C_21  and  C_22
REMARK   12  A    between atoms: C_22  and  C_23
REMARK   13  A    between atoms: C_23  and  C_24
REMARK   14  A    between atoms: C_24  and  C_27
REMARK   15  A    between atoms: N_26  and  C_29
REMARK   16  A    between atoms: C_29  and  C_30
REMARK   17  A    between atoms: C_30  and  O_31
REMARK                            x       y       z     vdW  Elec       q    Type
REMARK                         _______ _______ _______ _____ _____    ______ ____
ROOT
ATOM      1  O   UNL     1     -35.847  25.206   5.646  0.00  0.00    -0.296 OA
ATOM      2  C   UNL     1     -35.820  22.055   4.046  0.00  0.00    +0.056 C 
ATOM      3  C   UNL     1     -35.697  23.575   3.856  0.00  0.00    +0.068 C 
ATOM      4  C   UNL     1     -35.002  21.776   5.314  0.00  0.00    +0.122 C 
ATOM      5  C   UNL     1     -35.348  22.929   6.254  0.00  0.00    +0.094 C 
ATOM      6  C   UNL     1     -35.659  24.048   5.294  0.00  0.00    +0.153 C 
ENDROOT
BRANCH   4   7
ATOM      7  O   UNL     1     -35.393  20.536   5.884  0.00  0.00    -0.384 OA
ATOM      8  H   UNL     1     -35.248  19.826   5.240  0.00  0.00    +0.210 HD
ENDBRANCH   4   7
BRANCH   2   9
ATOM      9  C   UNL     1     -35.336  21.286   2.859  0.00  0.00    -0.026 C 
ATOM     10  C   UNL     1     -36.100  20.435   2.158  0.00  0.00    -0.002 C 
BRANCH  10  11
ATOM     11  C   UNL     1     -35.608  19.662   0.968  0.00  0.00    +0.132 C 
BRANCH  11  12
ATOM     12  O   UNL     1     -36.224  20.200  -0.204  0.00  0.00    -0.380 OA
ATOM     13  H   UNL     1     -36.300  21.163  -0.117  0.00  0.00    +0.211 HD
ENDBRANCH  11  12
BRANCH  11  14
ATOM     14  C   UNL     1     -34.088  19.766   0.776  0.00  0.00    +0.034 C 
BRANCH  14  15
ATOM     15  C   UNL     1     -33.329  18.541   1.297  0.00  0.00    +0.003 C 
BRANCH  15  16
ATOM     16  C   UNL     1     -31.838  18.555   0.942  0.00  0.00    +0.000 C 
BRANCH  16  17
ATOM     17  C   UNL     1     -31.423  19.768   0.108  0.00  0.00    +0.000 C 
ATOM     18  C   UNL     1     -30.906  19.348  -1.260  0.00  0.00    +0.000 C 
ENDBRANCH  16  17
ENDBRANCH  15  16
ENDBRANCH  14  15
ENDBRANCH  11  14
ENDBRANCH  10  11
ENDBRANCH   2   9
BRANCH   3  19
ATOM     19  C   UNL     1     -36.849  24.180   3.074  0.00  0.00    +0.033 C 
BRANCH  19  20
ATOM     20  C   UNL     1     -36.464  24.453   1.649  0.00  0.00    -0.030 C 
ATOM     21  C   UNL     1     -37.134  23.976   0.591  0.00  0.00    -0.031 C 
BRANCH  21  22
ATOM     22  C   UNL     1     -38.356  23.109   0.697  0.00  0.00    +0.026 C 
BRANCH  22  23
ATOM     23  C   UNL     1     -39.637  23.942   0.581  0.00  0.00    +0.014 C 
BRANCH  23  24
ATOM     24  C   UNL     1     -40.278  24.214   1.941  0.00  0.00    +0.085 C 
BRANCH  24  27
ATOM     25  O   UNL     1     -39.574  26.442   2.572  0.00  0.00    -0.275 OA
ATOM     26  N   UNL     1     -41.816  26.056   2.102  0.00  0.00    -0.302 N 
ATOM     27  C   UNL     1     -40.484  25.690   2.237  0.00  0.00    +0.223 C 
ATOM     28  H   UNL     1     -42.465  25.369   1.826  0.00  0.00    +0.150 HD
BRANCH  26  29
ATOM     29  C   UNL     1     -42.296  27.397   2.346  0.00  0.00    +0.121 C 
BRANCH  29  30
ATOM     30  C   UNL     1     -42.630  27.612   3.811  0.00  0.00    +0.158 C 
BRANCH  30  31
ATOM     31  O   UNL     1     -41.450  27.978   4.516  0.00  0.00    -0.380 OA
ATOM     32  H   UNL     1     -41.023  28.724   4.067  0.00  0.00    +0.211 HD
ENDBRANCH  30  31
ENDBRANCH  29  30
ENDBRANCH  26  29
ENDBRANCH  24  27
ENDBRANCH  23  24
ENDBRANCH  22  23
ENDBRANCH  21  22
ENDBRANCH  19  20
ENDBRANCH   3  19
TORSDOF 17
ENDMDL
MODEL 3
REMARK VINA RESULT:      -5.6      1.890      2.815
REMARK  Name = 5283119
REMARK  17 active torsions:
REMARK  status: ('A' for Active; 'I' for Inactive)
REMARK    1  A    between atoms: C_2  and  C_9
REMARK    2  A    between atoms: C_3  and  C_19
REMARK    3  A    between atoms: C_4  and  O_7
REMARK    4  A    between atoms: C_10  and  C_11
REMARK    5  A    between atoms: C_11  and  O_12
REMARK    6  A    between atoms: C_11  and  C_14
REMARK    7  A    between atoms: C_14  and  C_15
REMARK    8  A    between atoms: C_15  and  C_16
REMARK    9  A    between atoms: C_16  and  C_17
REMARK   10  A    between atoms: C_19  and  C_20
REMARK   11  A    between atoms: C_21  and  C_22
REMARK   12  A    between atoms: C_22  and  C_23
REMARK   13  A    between atoms: C_23  and  C_24
REMARK   14  A    between atoms: C_24  and  C_27
REMARK   15  A    between atoms: N_26  and  C_29
REMARK   16  A    between atoms: C_29  and  C_30
REMARK   17  A    between atoms: C_30  and  O_31
REMARK                            x       y       z     vdW  Elec       q    Type
REMARK                         _______ _______ _______ _____ _____    ______ ____
ROOT
ATOM      1  O   UNL     1     -35.965  25.292   5.572  0.00  0.00    -0.296 OA
ATOM      2  C   UNL     1     -35.755  22.150   3.969  0.00  0.00    +0.056 C 
ATOM      3  C   UNL     1     -35.674  23.674   3.787  0.00  0.00    +0.068 C 
ATOM      4  C   UNL     1     -34.989  21.894   5.274  0.00  0.00    +0.122 C 
ATOM      5  C   UNL     1     -35.418  23.030   6.198  0.00  0.00    +0.094 C 
ATOM      6  C   UNL     1     -35.721  24.143   5.227  0.00  0.00    +0.153 C 
ENDROOT
BRANCH   4   7
ATOM      7  O   UNL     1     -35.364  20.640   5.822  0.00  0.00    -0.384 OA
ATOM      8  H   UNL     1     -36.262  20.415   5.530  0.00  0.00    +0.210 HD
ENDBRANCH   4   7
BRANCH   2   9
ATOM      9  C   UNL     1     -35.189  21.402   2.804  0.00  0.00    -0.026 C 
ATOM     10  C   UNL     1     -35.784  20.341   2.238  0.00  0.00    -0.002 C 
BRANCH  10  11
ATOM     11  C   UNL     1     -35.210  19.591   1.069  0.00  0.00    +0.132 C 
BRANCH  11  12
ATOM     12  O   UNL     1     -35.281  20.432  -0.084  0.00  0.00    -0.380 OA
ATOM     13  H   UNL     1     -35.144  19.899  -0.882  0.00  0.00    +0.211 HD
ENDBRANCH  11  12
BRANCH  11  14
ATOM     14  C   UNL     1     -33.736  19.211   1.270  0.00  0.00    +0.034 C 
BRANCH  14  15
ATOM     15  C   UNL     1     -32.771  20.081   0.458  0.00  0.00    +0.003 C 
BRANCH  15  16
ATOM     16  C   UNL     1     -31.411  19.418   0.219  0.00  0.00    +0.000 C 
BRANCH  16  17
ATOM     17  C   UNL     1     -31.270  18.055   0.899  0.00  0.00    +0.000 C 
ATOM     18  C   UNL     1     -29.813  17.626   0.984  0.00  0.00    +0.000 C 
ENDBRANCH  16  17
ENDBRANCH  15  16
ENDBRANCH  14  15
ENDBRANCH  11  14
ENDBRANCH  10  11
ENDBRANCH   2   9
BRANCH   3  19
ATOM     19  C   UNL     1     -36.808  24.243   2.953  0.00  0.00    +0.033 C 
BRANCH  19  20
ATOM     20  C   UNL     1     -36.306  24.813   1.659  0.00  0.00    -0.030 C 
ATOM     21  C   UNL     1     -36.033  26.113   1.473  0.00  0.00    -0.031 C 
BRANCH  21  22
ATOM     22  C   UNL     1     -36.196  27.161   2.537  0.00  0.00    +0.026 C 
BRANCH  22  23
ATOM     23  C   UNL     1     -34.857  27.831   2.863  0.00  0.00    +0.014 C 
BRANCH  23  24
ATOM     24  C   UNL     1     -33.699  26.834   2.880  0.00  0.00    +0.085 C 
BRANCH  24  27
ATOM     25  O   UNL     1     -31.470  27.183   3.759  0.00  0.00    -0.275 OA
ATOM     26  N   UNL     1     -33.278  27.217   5.217  0.00  0.00    -0.302 N 
ATOM     27  C   UNL     1     -32.676  27.102   3.972  0.00  0.00    +0.223 C 
ATOM     28  H   UNL     1     -34.258  27.135   5.273  0.00  0.00    +0.150 HD
BRANCH  26  29
ATOM     29  C   UNL     1     -32.536  27.450   6.435  0.00  0.00    +0.121 C 
BRANCH  29  30
ATOM     30  C   UNL     1     -31.957  28.852   6.476  0.00  0.00    +0.158 C 
BRANCH  30  31
ATOM     31  O   UNL     1     -30.680  28.818   7.100  0.00  0.00    -0.380 OA
ATOM     32  H   UNL     1     -30.302  27.929   7.014  0.00  0.00    +0.211 HD
ENDBRANCH  30  31
ENDBRANCH  29  30
ENDBRANCH  26  29
ENDBRANCH  24  27
ENDBRANCH  23  24
ENDBRANCH  22  23
ENDBRANCH  21  22
ENDBRANCH  19  20
ENDBRANCH   3  19
TORSDOF 17
ENDMDL
MODEL 4
REMARK VINA RESULT:      -5.6      4.935      9.449
REMARK  Name = 5283119
REMARK  17 active torsions:
REMARK  status: ('A' for Active; 'I' for Inactive)
REMARK    1  A    between atoms: C_2  and  C_9
REMARK    2  A    between atoms: C_3  and  C_19
REMARK    3  A    between atoms: C_4  and  O_7
REMARK    4  A    between atoms: C_10  and  C_11
REMARK    5  A    between atoms: C_11  and  O_12
REMARK    6  A    between atoms: C_11  and  C_14
REMARK    7  A    between atoms: C_14  and  C_15
REMARK    8  A    between atoms: C_15  and  C_16
REMARK    9  A    between atoms: C_16  and  C_17
REMARK   10  A    between atoms: C_19  and  C_20
REMARK   11  A    between atoms: C_21  and  C_22
REMARK   12  A    between atoms: C_22  and  C_23
REMARK   13  A    between atoms: C_23  and  C_24
REMARK   14  A    between atoms: C_24  and  C_27
REMARK   15  A    between atoms: N_26  and  C_29
REMARK   16  A    between atoms: C_29  and  C_30
REMARK   17  A    between atoms: C_30  and  O_31
REMARK                            x       y       z     vdW  Elec       q    Type
REMARK                         _______ _______ _______ _____ _____    ______ ____
ROOT
ATOM      1  O   UNL     1     -36.440  20.622  -1.062  0.00  0.00    -0.296 OA
ATOM      2  C   UNL     1     -37.398  21.874   2.101  0.00  0.00    +0.056 C 
ATOM      3  C   UNL     1     -36.423  22.020   0.922  0.00  0.00    +0.068 C 
ATOM      4  C   UNL     1     -38.756  21.633   1.429  0.00  0.00    +0.122 C 
ATOM      5  C   UNL     1     -38.447  20.689   0.270  0.00  0.00    +0.094 C 
ATOM      6  C   UNL     1     -37.026  21.054  -0.078  0.00  0.00    +0.153 C 
ENDROOT
BRANCH   4   7
ATOM      7  O   UNL     1     -39.652  21.021   2.343  0.00  0.00    -0.384 OA
ATOM      8  H   UNL     1     -39.374  20.106   2.503  0.00  0.00    +0.210 HD
ENDBRANCH   4   7
BRANCH   2   9
ATOM      9  C   UNL     1     -37.395  23.068   3.000  0.00  0.00    -0.026 C 
ATOM     10  C   UNL     1     -37.171  24.321   2.578  0.00  0.00    -0.002 C 
BRANCH  10  11
ATOM     11  C   UNL     1     -37.167  25.517   3.487  0.00  0.00    +0.132 C 
BRANCH  11  12
ATOM     12  O   UNL     1     -38.515  25.957   3.656  0.00  0.00    -0.380 OA
ATOM     13  H   UNL     1     -39.122  25.276   3.328  0.00  0.00    +0.211 HD
ENDBRANCH  11  12
BRANCH  11  14
ATOM     14  C   UNL     1     -36.606  25.206   4.881  0.00  0.00    +0.034 C 
BRANCH  14  15
ATOM     15  C   UNL     1     -35.075  25.239   4.938  0.00  0.00    +0.003 C 
BRANCH  15  16
ATOM     16  C   UNL     1     -34.447  23.864   5.184  0.00  0.00    +0.000 C 
BRANCH  16  17
ATOM     17  C   UNL     1     -35.331  22.931   6.014  0.00  0.00    +0.000 C 
ATOM     18  C   UNL     1     -35.133  21.477   5.610  0.00  0.00    +0.000 C 
ENDBRANCH  16  17
ENDBRANCH  15  16
ENDBRANCH  14  15
ENDBRANCH  11  14
ENDBRANCH  10  11
ENDBRANCH   2   9
BRANCH   3  19
ATOM     19  C   UNL     1     -34.989  21.670   1.277  0.00  0.00    +0.033 C 
BRANCH  19  20
ATOM     20  C   UNL     1     -34.908  20.361   2.007  0.00  0.00    -0.030 C 
ATOM     21  C   UNL     1     -34.015  19.402   1.722  0.00  0.00    -0.031 C 
BRANCH  21  22
ATOM     22  C   UNL     1     -32.983  19.518   0.636  0.00  0.00    +0.026 C 
BRANCH  22  23
ATOM     23  C   UNL     1     -31.811  18.562   0.883  0.00  0.00    +0.014 C 
BRANCH  23  24
ATOM     24  C   UNL     1     -31.303  17.921  -0.407  0.00  0.00    +0.085 C 
BRANCH  24  27
ATOM     25  O   UNL     1     -32.742  17.618  -2.330  0.00  0.00    -0.275 OA
ATOM     26  N   UNL     1     -32.930  16.154  -0.536  0.00  0.00    -0.302 N 
ATOM     27  C   UNL     1     -32.389  17.235  -1.219  0.00  0.00    +0.223 C 
ATOM     28  H   UNL     1     -32.569  15.934   0.353  0.00  0.00    +0.150 HD
BRANCH  26  29
ATOM     29  C   UNL     1     -33.996  15.337  -1.068  0.00  0.00    +0.121 C 
BRANCH  29  30
ATOM     30  C   UNL     1     -35.233  15.393  -0.190  0.00  0.00    +0.158 C 
BRANCH  30  31
ATOM     31  O   UNL     1     -35.570  16.752   0.065  0.00  0.00    -0.380 OA
ATOM     32  H   UNL     1     -35.868  17.171  -0.757  0.00  0.00    +0.211 HD
ENDBRANCH  30  31
ENDBRANCH  29  30
ENDBRANCH  26  29
ENDBRANCH  24  27
ENDBRANCH  23  24
ENDBRANCH  22  23
ENDBRANCH  21  22
ENDBRANCH  19  20
ENDBRANCH   3  19
TORSDOF 17
ENDMDL
MODEL 5
REMARK VINA RESULT:      -5.6      3.897      7.442
REMARK  Name = 5283119
REMARK  17 active torsions:
REMARK  status: ('A' for Active; 'I' for Inactive)
REMARK    1  A    between atoms: C_2  and  C_9
REMARK    2  A    between atoms: C_3  and  C_19
REMARK    3  A    between atoms: C_4  and  O_7
REMARK    4  A    between atoms: C_10  and  C_11
REMARK    5  A    between atoms: C_11  and  O_12
REMARK    6  A    between atoms: C_11  and  C_14
REMARK    7  A    between atoms: C_14  and  C_15
REMARK    8  A    between atoms: C_15  and  C_16
REMARK    9  A    between atoms: C_16  and  C_17
REMARK   10  A    between atoms: C_19  and  C_20
REMARK   11  A    between atoms: C_21  and  C_22
REMARK   12  A    between atoms: C_22  and  C_23
REMARK   13  A    between atoms: C_23  and  C_24
REMARK   14  A    between atoms: C_24  and  C_27
REMARK   15  A    between atoms: N_26  and  C_29
REMARK   16  A    between atoms: C_29  and  C_30
REMARK   17  A    between atoms: C_30  and  O_31
REMARK                            x       y       z     vdW  Elec       q    Type
REMARK                         _______ _______ _______ _____ _____    ______ ____
ROOT
ATOM      1  O   UNL     1     -35.928  21.258   0.065  0.00  0.00    -0.296 OA
ATOM      2  C   UNL     1     -38.271  22.585   2.353  0.00  0.00    +0.056 C 
ATOM      3  C   UNL     1     -37.020  22.874   1.509  0.00  0.00    +0.068 C 
ATOM      4  C   UNL     1     -39.169  21.770   1.413  0.00  0.00    +0.122 C 
ATOM      5  C   UNL     1     -38.212  20.822   0.695  0.00  0.00    +0.094 C 
ATOM      6  C   UNL     1     -36.925  21.607   0.683  0.00  0.00    +0.153 C 
ENDROOT
BRANCH   4   7
ATOM      7  O   UNL     1     -40.125  21.037   2.164  0.00  0.00    -0.384 OA
ATOM      8  H   UNL     1     -40.454  20.296   1.631  0.00  0.00    +0.210 HD
ENDBRANCH   4   7
BRANCH   2   9
ATOM      9  C   UNL     1     -38.928  23.831   2.853  0.00  0.00    -0.026 C 
ATOM     10  C   UNL     1     -39.835  24.530   2.154  0.00  0.00    -0.002 C 
BRANCH  10  11
ATOM     11  C   UNL     1     -40.490  25.784   2.660  0.00  0.00    +0.132 C 
BRANCH  11  12
ATOM     12  O   UNL     1     -39.547  26.488   3.470  0.00  0.00    -0.380 OA
ATOM     13  H   UNL     1     -39.917  26.620   4.357  0.00  0.00    +0.211 HD
ENDBRANCH  11  12
BRANCH  11  14
ATOM     14  C   UNL     1     -40.923  26.729   1.531  0.00  0.00    +0.034 C 
BRANCH  14  15
ATOM     15  C   UNL     1     -42.428  27.017   1.529  0.00  0.00    +0.003 C 
BRANCH  15  16
ATOM     16  C   UNL     1     -43.160  26.433   2.742  0.00  0.00    +0.000 C 
BRANCH  16  17
ATOM     17  C   UNL     1     -43.736  27.499   3.676  0.00  0.00    +0.000 C 
ATOM     18  C   UNL     1     -42.639  28.386   4.247  0.00  0.00    +0.000 C 
ENDBRANCH  16  17
ENDBRANCH  15  16
ENDBRANCH  14  15
ENDBRANCH  11  14
ENDBRANCH  10  11
ENDBRANCH   2   9
BRANCH   3  19
ATOM     19  C   UNL     1     -35.774  23.120   2.342  0.00  0.00    +0.033 C 
BRANCH  19  20
ATOM     20  C   UNL     1     -35.634  22.102   3.435  0.00  0.00    -0.030 C 
ATOM     21  C   UNL     1     -35.645  22.404   4.741  0.00  0.00    -0.031 C 
BRANCH  21  22
ATOM     22  C   UNL     1     -35.801  23.800   5.275  0.00  0.00    +0.026 C 
BRANCH  22  23
ATOM     23  C   UNL     1     -34.437  24.433   5.571  0.00  0.00    +0.014 C 
BRANCH  23  24
ATOM     24  C   UNL     1     -34.514  25.957   5.666  0.00  0.00    +0.085 C 
BRANCH  24  27
ATOM     25  O   UNL     1     -32.978  26.565   3.897  0.00  0.00    -0.275 OA
ATOM     26  N   UNL     1     -35.122  27.460   3.889  0.00  0.00    -0.302 N 
ATOM     27  C   UNL     1     -34.096  26.671   4.392  0.00  0.00    +0.223 C 
ATOM     28  H   UNL     1     -35.983  27.470   4.368  0.00  0.00    +0.150 HD
BRANCH  26  29
ATOM     29  C   UNL     1     -34.988  28.266   2.698  0.00  0.00    +0.121 C 
BRANCH  29  30
ATOM     30  C   UNL     1     -36.043  27.914   1.664  0.00  0.00    +0.158 C 
BRANCH  30  31
ATOM     31  O   UNL     1     -37.169  27.339   2.316  0.00  0.00    -0.380 OA
ATOM     32  H   UNL     1     -37.396  26.499   1.888  0.00  0.00    +0.211 HD
ENDBRANCH  30  31
ENDBRANCH  29  30
ENDBRANCH  26  29
ENDBRANCH  24  27
ENDBRANCH  23  24
ENDBRANCH  22  23
ENDBRANCH  21  22
ENDBRANCH  19  20
ENDBRANCH   3  19
TORSDOF 17
ENDMDL
MODEL 6
REMARK VINA RESULT:      -5.6      1.962      2.956
REMARK  Name = 5283119
REMARK  17 active torsions:
REMARK  status: ('A' for Active; 'I' for Inactive)
REMARK    1  A    between atoms: C_2  and  C_9
REMARK    2  A    between atoms: C_3  and  C_19
REMARK    3  A    between atoms: C_4  and  O_7
REMARK    4  A    between atoms: C_10  and  C_11
REMARK    5  A    between atoms: C_11  and  O_12
REMARK    6  A    between atoms: C_11  and  C_14
REMARK    7  A    between atoms: C_14  and  C_15
REMARK    8  A    between atoms: C_15  and  C_16
REMARK    9  A    between atoms: C_16  and  C_17
REMARK   10  A    between atoms: C_19  and  C_20
REMARK   11  A    between atoms: C_21  and  C_22
REMARK   12  A    between atoms: C_22  and  C_23
REMARK   13  A    between atoms: C_23  and  C_24
REMARK   14  A    between atoms: C_24  and  C_27
REMARK   15  A    between atoms: N_26  and  C_29
REMARK   16  A    between atoms: C_29  and  C_30
REMARK   17  A    between atoms: C_30  and  O_31
REMARK                            x       y       z     vdW  Elec       q    Type
REMARK                         _______ _______ _______ _____ _____    ______ ____
ROOT
ATOM      1  O   UNL     1     -35.744  25.258   5.731  0.00  0.00    -0.296 OA
ATOM      2  C   UNL     1     -35.953  22.153   4.056  0.00  0.00    +0.056 C 
ATOM      3  C   UNL     1     -35.768  23.670   3.896  0.00  0.00    +0.068 C 
ATOM      4  C   UNL     1     -35.083  21.802   5.269  0.00  0.00    +0.122 C 
ATOM      5  C   UNL     1     -35.322  22.944   6.255  0.00  0.00    +0.094 C 
ATOM      6  C   UNL     1     -35.630  24.102   5.341  0.00  0.00    +0.153 C 
ENDROOT
BRANCH   4   7
ATOM      7  O   UNL     1     -35.500  20.567   5.829  0.00  0.00    -0.384 OA
ATOM      8  H   UNL     1     -36.324  20.282   5.404  0.00  0.00    +0.210 HD
ENDBRANCH   4   7
BRANCH   2   9
ATOM      9  C   UNL     1     -35.571  21.395   2.825  0.00  0.00    -0.026 C 
ATOM     10  C   UNL     1     -36.386  20.537   2.193  0.00  0.00    -0.002 C 
BRANCH  10  11
ATOM     11  C   UNL     1     -35.996  19.775   0.958  0.00  0.00    +0.132 C 
BRANCH  11  12
ATOM     12  O   UNL     1     -36.736  18.553   0.931  0.00  0.00    -0.380 OA
ATOM     13  H   UNL     1     -37.556  18.660   1.438  0.00  0.00    +0.211 HD
ENDBRANCH  11  12
BRANCH  11  14
ATOM     14  C   UNL     1     -36.315  20.535  -0.337  0.00  0.00    +0.034 C 
BRANCH  14  15
ATOM     15  C   UNL     1     -35.084  21.193  -0.969  0.00  0.00    +0.003 C 
BRANCH  15  16
ATOM     16  C   UNL     1     -34.942  22.678  -0.617  0.00  0.00    +0.000 C 
BRANCH  16  17
ATOM     17  C   UNL     1     -33.620  23.015   0.076  0.00  0.00    +0.000 C 
ATOM     18  C   UNL     1     -32.497  22.107  -0.405  0.00  0.00    +0.000 C 
ENDBRANCH  16  17
ENDBRANCH  15  16
ENDBRANCH  14  15
ENDBRANCH  11  14
ENDBRANCH  10  11
ENDBRANCH   2   9
BRANCH   3  19
ATOM     19  C   UNL     1     -36.931  24.349   3.194  0.00  0.00    +0.033 C 
BRANCH  19  20
ATOM     20  C   UNL     1     -36.523  24.894   1.856  0.00  0.00    -0.030 C 
ATOM     21  C   UNL     1     -36.038  26.130   1.671  0.00  0.00    -0.031 C 
BRANCH  21  22
ATOM     22  C   UNL     1     -35.841  27.125   2.779  0.00  0.00    +0.026 C 
BRANCH  22  23
ATOM     23  C   UNL     1     -34.410  27.672   2.782  0.00  0.00    +0.014 C 
BRANCH  23  24
ATOM     24  C   UNL     1     -33.450  26.783   3.571  0.00  0.00    +0.085 C 
BRANCH  24  27
ATOM     25  O   UNL     1     -33.171  26.853   5.975  0.00  0.00    -0.275 OA
ATOM     26  N   UNL     1     -32.380  28.622   4.694  0.00  0.00    -0.302 N 
ATOM     27  C   UNL     1     -32.992  27.391   4.886  0.00  0.00    +0.223 C 
ATOM     28  H   UNL     1     -32.288  28.960   3.773  0.00  0.00    +0.150 HD
BRANCH  26  29
ATOM     29  C   UNL     1     -31.870  29.429   5.777  0.00  0.00    +0.121 C 
BRANCH  29  30
ATOM     30  C   UNL     1     -30.429  29.081   6.103  0.00  0.00    +0.158 C 
BRANCH  30  31
ATOM     31  O   UNL     1     -30.378  27.792   6.703  0.00  0.00    -0.380 OA
ATOM     32  H   UNL     1     -31.095  27.243   6.351  0.00  0.00    +0.211 HD
ENDBRANCH  30  31
ENDBRANCH  29  30
ENDBRANCH  26  29
ENDBRANCH  24  27
ENDBRANCH  23  24
ENDBRANCH  22  23
ENDBRANCH  21  22
ENDBRANCH  19  20
ENDBRANCH   3  19
TORSDOF 17
ENDMDL
MODEL 7
REMARK VINA RESULT:      -5.5      3.379      6.601
REMARK  Name = 5283119
REMARK  17 active torsions:
REMARK  status: ('A' for Active; 'I' for Inactive)
REMARK    1  A    between atoms: C_2  and  C_9
REMARK    2  A    between atoms: C_3  and  C_19
REMARK    3  A    between atoms: C_4  and  O_7
REMARK    4  A    between atoms: C_10  and  C_11
REMARK    5  A    between atoms: C_11  and  O_12
REMARK    6  A    between atoms: C_11  and  C_14
REMARK    7  A    between atoms: C_14  and  C_15
REMARK    8  A    between atoms: C_15  and  C_16
REMARK    9  A    between atoms: C_16  and  C_17
REMARK   10  A    between atoms: C_19  and  C_20
REMARK   11  A    between atoms: C_21  and  C_22
REMARK   12  A    between atoms: C_22  and  C_23
REMARK   13  A    between atoms: C_23  and  C_24
REMARK   14  A    between atoms: C_24  and  C_27
REMARK   15  A    between atoms: N_26  and  C_29
REMARK   16  A    between atoms: C_29  and  C_30
REMARK   17  A    between atoms: C_30  and  O_31
REMARK                            x       y       z     vdW  Elec       q    Type
REMARK                         _______ _______ _______ _____ _____    ______ ____
ROOT
ATOM      1  O   UNL     1     -35.562  20.429   0.401  0.00  0.00    -0.296 OA
ATOM      2  C   UNL     1     -37.861  22.344   2.282  0.00  0.00    +0.056 C 
ATOM      3  C   UNL     1     -36.488  22.330   1.592  0.00  0.00    +0.068 C 
ATOM      4  C   UNL     1     -38.782  21.632   1.282  0.00  0.00    +0.122 C 
ATOM      5  C   UNL     1     -37.946  20.469   0.753  0.00  0.00    +0.094 C 
ATOM      6  C   UNL     1     -36.541  21.003   0.862  0.00  0.00    +0.153 C 
ENDROOT
BRANCH   4   7
ATOM      7  O   UNL     1     -39.941  21.149   1.943  0.00  0.00    -0.384 OA
ATOM      8  H   UNL     1     -40.532  20.734   1.296  0.00  0.00    +0.210 HD
ENDBRANCH   4   7
BRANCH   2   9
ATOM      9  C   UNL     1     -38.322  23.726   2.617  0.00  0.00    -0.026 C 
ATOM     10  C   UNL     1     -39.598  24.044   2.885  0.00  0.00    -0.002 C 
BRANCH  10  11
ATOM     11  C   UNL     1     -40.055  25.435   3.219  0.00  0.00    +0.132 C 
BRANCH  11  12
ATOM     12  O   UNL     1     -38.901  26.259   3.391  0.00  0.00    -0.380 OA
ATOM     13  H   UNL     1     -38.365  25.917   4.124  0.00  0.00    +0.211 HD
ENDBRANCH  11  12
BRANCH  11  14
ATOM     14  C   UNL     1     -40.909  26.065   2.109  0.00  0.00    +0.034 C 
BRANCH  14  15
ATOM     15  C   UNL     1     -41.540  25.031   1.172  0.00  0.00    +0.003 C 
BRANCH  15  16
ATOM     16  C   UNL     1     -40.899  25.003  -0.220  0.00  0.00    +0.000 C 
BRANCH  16  17
ATOM     17  C   UNL     1     -39.840  26.088  -0.424  0.00  0.00    +0.000 C 
ATOM     18  C   UNL     1     -38.451  25.485  -0.570  0.00  0.00    +0.000 C 
ENDBRANCH  16  17
ENDBRANCH  15  16
ENDBRANCH  14  15
ENDBRANCH  11  14
ENDBRANCH  10  11
ENDBRANCH   2   9
BRANCH   3  19
ATOM     19  C   UNL     1     -35.324  22.413   2.565  0.00  0.00    +0.033 C 
BRANCH  19  20
ATOM     20  C   UNL     1     -35.577  21.592   3.795  0.00  0.00    -0.030 C 
ATOM     21  C   UNL     1     -35.350  22.029   5.042  0.00  0.00    -0.031 C 
BRANCH  21  22
ATOM     22  C   UNL     1     -34.816  23.396   5.364  0.00  0.00    +0.026 C 
BRANCH  22  23
ATOM     23  C   UNL     1     -35.923  24.453   5.292  0.00  0.00    +0.014 C 
BRANCH  23  24
ATOM     24  C   UNL     1     -35.421  25.845   5.672  0.00  0.00    +0.085 C 
BRANCH  24  27
ATOM     25  O   UNL     1     -33.379  26.309   4.459  0.00  0.00    -0.275 OA
ATOM     26  N   UNL     1     -35.342  27.371   3.815  0.00  0.00    -0.302 N 
ATOM     27  C   UNL     1     -34.582  26.510   4.594  0.00  0.00    +0.223 C 
ATOM     28  H   UNL     1     -36.303  27.456   4.011  0.00  0.00    +0.150 HD
BRANCH  26  29
ATOM     29  C   UNL     1     -34.790  28.150   2.730  0.00  0.00    +0.121 C 
BRANCH  29  30
ATOM     30  C   UNL     1     -35.865  28.576   1.746  0.00  0.00    +0.158 C 
BRANCH  30  31
ATOM     31  O   UNL     1     -37.026  27.777   1.939  0.00  0.00    -0.380 OA
ATOM     32  H   UNL     1     -36.939  26.954   1.435  0.00  0.00    +0.211 HD
ENDBRANCH  30  31
ENDBRANCH  29  30
ENDBRANCH  26  29
ENDBRANCH  24  27
ENDBRANCH  23  24
ENDBRANCH  22  23
ENDBRANCH  21  22
ENDBRANCH  19  20
ENDBRANCH   3  19
TORSDOF 17
ENDMDL
MODEL 8
REMARK VINA RESULT:      -5.5      2.872      5.327
REMARK  Name = 5283119
REMARK  17 active torsions:
REMARK  status: ('A' for Active; 'I' for Inactive)
REMARK    1  A    between atoms: C_2  and  C_9
REMARK    2  A    between atoms: C_3  and  C_19
REMARK    3  A    between atoms: C_4  and  O_7
REMARK    4  A    between atoms: C_10  and  C_11
REMARK    5  A    between atoms: C_11  and  O_12
REMARK    6  A    between atoms: C_11  and  C_14
REMARK    7  A    between atoms: C_14  and  C_15
REMARK    8  A    between atoms: C_15  and  C_16
REMARK    9  A    between atoms: C_16  and  C_17
REMARK   10  A    between atoms: C_19  and  C_20
REMARK   11  A    between atoms: C_21  and  C_22
REMARK   12  A    between atoms: C_22  and  C_23
REMARK   13  A    between atoms: C_23  and  C_24
REMARK   14  A    between atoms: C_24  and  C_27
REMARK   15  A    between atoms: N_26  and  C_29
REMARK   16  A    between atoms: C_29  and  C_30
REMARK   17  A    between atoms: C_30  and  O_31
REMARK                            x       y       z     vdW  Elec       q    Type
REMARK                         _______ _______ _______ _____ _____    ______ ____
ROOT
ATOM      1  O   UNL     1     -33.733  26.798   5.692  0.00  0.00    -0.296 OA
ATOM      2  C   UNL     1     -35.458  24.578   3.550  0.00  0.00    +0.056 C 
ATOM      3  C   UNL     1     -34.086  25.001   4.099  0.00  0.00    +0.068 C 
ATOM      4  C   UNL     1     -36.373  24.608   4.781  0.00  0.00    +0.122 C 
ATOM      5  C   UNL     1     -35.949  25.862   5.542  0.00  0.00    +0.094 C 
ATOM      6  C   UNL     1     -34.493  25.991   5.172  0.00  0.00    +0.153 C 
ENDROOT
BRANCH   4   7
ATOM      7  O   UNL     1     -37.730  24.707   4.379  0.00  0.00    -0.384 OA
ATOM      8  H   UNL     1     -38.298  24.322   5.065  0.00  0.00    +0.210 HD
ENDBRANCH   4   7
BRANCH   2   9
ATOM      9  C   UNL     1     -35.422  23.240   2.883  0.00  0.00    -0.026 C 
ATOM     10  C   UNL     1     -35.543  22.075   3.537  0.00  0.00    -0.002 C 
BRANCH  10  11
ATOM     11  C   UNL     1     -35.504  20.734   2.862  0.00  0.00    +0.132 C 
BRANCH  11  12
ATOM     12  O   UNL     1     -36.848  20.304   2.638  0.00  0.00    -0.380 OA
ATOM     13  H   UNL     1     -37.027  19.512   3.167  0.00  0.00    +0.211 HD
ENDBRANCH  11  12
BRANCH  11  14
ATOM     14  C   UNL     1     -34.800  20.772   1.498  0.00  0.00    +0.034 C 
BRANCH  14  15
ATOM     15  C   UNL     1     -34.510  19.380   0.929  0.00  0.00    +0.003 C 
BRANCH  15  16
ATOM     16  C   UNL     1     -33.132  18.838   1.324  0.00  0.00    +0.000 C 
BRANCH  16  17
ATOM     17  C   UNL     1     -31.976  19.524   0.594  0.00  0.00    +0.000 C 
ATOM     18  C   UNL     1     -31.154  18.523  -0.204  0.00  0.00    +0.000 C 
ENDBRANCH  16  17
ENDBRANCH  15  16
ENDBRANCH  14  15
ENDBRANCH  11  14
ENDBRANCH  10  11
ENDBRANCH   2   9
BRANCH   3  19
ATOM     19  C   UNL     1     -33.181  25.619   3.049  0.00  0.00    +0.033 C 
BRANCH  19  20
ATOM     20  C   UNL     1     -33.853  26.764   2.349  0.00  0.00    -0.030 C 
ATOM     21  C   UNL     1     -34.287  26.712   1.082  0.00  0.00    -0.031 C 
BRANCH  21  22
ATOM     22  C   UNL     1     -34.156  25.500   0.204  0.00  0.00    +0.026 C 
BRANCH  22  23
ATOM     23  C   UNL     1     -35.504  25.120  -0.418  0.00  0.00    +0.014 C 
BRANCH  23  24
ATOM     24  C   UNL     1     -36.686  25.663   0.383  0.00  0.00    +0.085 C 
BRANCH  24  27
ATOM     25  O   UNL     1     -38.283  24.278  -0.796  0.00  0.00    -0.275 OA
ATOM     26  N   UNL     1     -38.676  24.809   1.431  0.00  0.00    -0.302 N 
ATOM     27  C   UNL     1     -37.951  24.833   0.247  0.00  0.00    +0.223 C 
ATOM     28  H   UNL     1     -38.315  25.291   2.210  0.00  0.00    +0.150 HD
BRANCH  26  29
ATOM     29  C   UNL     1     -39.933  24.112   1.574  0.00  0.00    +0.121 C 
BRANCH  29  30
ATOM     30  C   UNL     1     -39.723  22.627   1.808  0.00  0.00    +0.158 C 
BRANCH  30  31
ATOM     31  O   UNL     1     -38.866  22.441   2.928  0.00  0.00    -0.380 OA
ATOM     32  H   UNL     1     -37.944  22.427   2.630  0.00  0.00    +0.211 HD
ENDBRANCH  30  31
ENDBRANCH  29  30
ENDBRANCH  26  29
ENDBRANCH  24  27
ENDBRANCH  23  24
ENDBRANCH  22  23
ENDBRANCH  21  22
ENDBRANCH  19  20
ENDBRANCH   3  19
TORSDOF 17
ENDMDL
MODEL 9
REMARK VINA RESULT:      -5.5      4.845     10.586
REMARK  Name = 5283119
REMARK  17 active torsions:
REMARK  status: ('A' for Active; 'I' for Inactive)
REMARK    1  A    between atoms: C_2  and  C_9
REMARK    2  A    between atoms: C_3  and  C_19
REMARK    3  A    between atoms: C_4  and  O_7
REMARK    4  A    between atoms: C_10  and  C_11
REMARK    5  A    between atoms: C_11  and  O_12
REMARK    6  A    between atoms: C_11  and  C_14
REMARK    7  A    between atoms: C_14  and  C_15
REMARK    8  A    between atoms: C_15  and  C_16
REMARK    9  A    between atoms: C_16  and  C_17
REMARK   10  A    between atoms: C_19  and  C_20
REMARK   11  A    between atoms: C_21  and  C_22
REMARK   12  A    between atoms: C_22  and  C_23
REMARK   13  A    between atoms: C_23  and  C_24
REMARK   14  A    between atoms: C_24  and  C_27
REMARK   15  A    between atoms: N_26  and  C_29
REMARK   16  A    between atoms: C_29  and  C_30
REMARK   17  A    between atoms: C_30  and  O_31
REMARK                            x       y       z     vdW  Elec       q    Type
REMARK                         _______ _______ _______ _____ _____    ______ ____
ROOT
ATOM      1  O   UNL     1     -34.089  20.454  -2.077  0.00  0.00    -0.296 OA
ATOM      2  C   UNL     1     -34.915  19.810   1.299  0.00  0.00    +0.056 C 
ATOM      3  C   UNL     1     -33.999  20.593   0.345  0.00  0.00    +0.068 C 
ATOM      4  C   UNL     1     -36.299  19.911   0.645  0.00  0.00    +0.122 C 
ATOM      5  C   UNL     1     -36.032  19.733  -0.847  0.00  0.00    +0.094 C 
ATOM      6  C   UNL     1     -34.635  20.279  -0.994  0.00  0.00    +0.153 C 
ENDROOT
BRANCH   4   7
ATOM      7  O   UNL     1     -37.143  18.875   1.125  0.00  0.00    -0.384 OA
ATOM      8  H   UNL     1     -36.887  18.646   2.033  0.00  0.00    +0.210 HD
ENDBRANCH   4   7
BRANCH   2   9
ATOM      9  C   UNL     1     -34.888  20.349   2.693  0.00  0.00    -0.026 C 
ATOM     10  C   UNL     1     -35.697  21.324   3.133  0.00  0.00    -0.002 C 
BRANCH  10  11
ATOM     11  C   UNL     1     -35.664  21.863   4.535  0.00  0.00    +0.132 C 
BRANCH  11  12
ATOM     12  O   UNL     1     -34.815  21.023   5.320  0.00  0.00    -0.380 OA
ATOM     13  H   UNL     1     -34.242  21.572   5.878  0.00  0.00    +0.211 HD
ENDBRANCH  11  12
BRANCH  11  14
ATOM     14  C   UNL     1     -35.099  23.289   4.613  0.00  0.00    +0.034 C 
BRANCH  14  15
ATOM     15  C   UNL     1     -36.165  24.344   4.924  0.00  0.00    +0.003 C 
BRANCH  15  16
ATOM     16  C   UNL     1     -35.577  25.711   5.292  0.00  0.00    +0.000 C 
BRANCH  16  17
ATOM     17  C   UNL     1     -34.049  25.753   5.225  0.00  0.00    +0.000 C 
ATOM     18  C   UNL     1     -33.464  26.508   6.410  0.00  0.00    +0.000 C 
ENDBRANCH  16  17
ENDBRANCH  15  16
ENDBRANCH  14  15
ENDBRANCH  11  14
ENDBRANCH  10  11
ENDBRANCH   2   9
BRANCH   3  19
ATOM     19  C   UNL     1     -32.545  20.162   0.415  0.00  0.00    +0.033 C 
BRANCH  19  20
ATOM     20  C   UNL     1     -32.392  18.866   1.155  0.00  0.00    -0.030 C 
ATOM     21  C   UNL     1     -32.353  17.666   0.559  0.00  0.00    -0.031 C 
BRANCH  21  22
ATOM     22  C   UNL     1     -32.459  17.468  -0.927  0.00  0.00    +0.026 C 
BRANCH  22  23
ATOM     23  C   UNL     1     -33.726  16.687  -1.292  0.00  0.00    +0.014 C 
BRANCH  23  24
ATOM     24  C   UNL     1     -34.436  16.125  -0.061  0.00  0.00    +0.085 C 
BRANCH  24  27
ATOM     25  O   UNL     1     -35.826  14.340  -0.921  0.00  0.00    -0.275 OA
ATOM     26  N   UNL     1     -36.838  16.211   0.011  0.00  0.00    -0.302 N 
ATOM     27  C   UNL     1     -35.753  15.437  -0.375  0.00  0.00    +0.223 C 
ATOM     28  H   UNL     1     -36.665  17.079   0.444  0.00  0.00    +0.150 HD
BRANCH  26  29
ATOM     29  C   UNL     1     -38.210  15.806  -0.190  0.00  0.00    +0.121 C 
BRANCH  29  30
ATOM     30  C   UNL     1     -38.916  16.703  -1.191  0.00  0.00    +0.158 C 
BRANCH  30  31
ATOM     31  O   UNL     1     -40.319  16.654  -0.963  0.00  0.00    -0.380 OA
ATOM     32  H   UNL     1     -40.739  17.430  -1.363  0.00  0.00    +0.211 HD
ENDBRANCH  30  31
ENDBRANCH  29  30
ENDBRANCH  26  29
ENDBRANCH  24  27
ENDBRANCH  23  24
ENDBRANCH  22  23
ENDBRANCH  21  22
ENDBRANCH  19  20
ENDBRANCH   3  19
TORSDOF 17
ENDMDL
