MODEL 1
REMARK VINA RESULT:      -6.6      0.000      0.000
REMARK  Name = 193091
REMARK  9 active torsions:
REMARK  status: ('A' for Active; 'I' for Inactive)
REMARK    1  A    between atoms: N_3  and  C1*_13
REMARK    2  A    between atoms: C_7  and  O_22
REMARK    3  A    between atoms: C2*_11  and  O2*_15
REMARK    4  A    between atoms: C3*_12  and  O3*_17
REMARK    5  A    between atoms: C4*_14  and  C5*_19
REMARK    6  A    between atoms: C5*_19  and  O5*_20
REMARK    7  A    between atoms: O_22  and  C_23
REMARK    8  A    between atoms: C_23  and  C_25
REMARK    9  A    between atoms: C_25  and  O_26
REMARK                            x       y       z     vdW  Elec       q    Type
REMARK                         _______ _______ _______ _____ _____    ______ ____
ROOT
ATOM      1  O   UNL     1     -36.105  21.045   2.779  0.00  0.00    -0.252 OA
ATOM      2  O   UNL     1     -40.463  21.090   1.291  0.00  0.00    -0.266 OA
ATOM      3  N   UNL     1     -37.294  23.050   2.923  0.00  0.00    -0.214 N 
ATOM      4  N   UNL     1     -38.278  21.075   2.040  0.00  0.00    -0.233 N 
ATOM      5  C   UNL     1     -38.502  23.696   2.687  0.00  0.00    +0.113 C 
ATOM      6  C   UNL     1     -37.145  21.682   2.597  0.00  0.00    +0.316 C 
ATOM      7  C   UNL     1     -39.576  23.106   2.156  0.00  0.00    +0.208 C 
ATOM      8  C   UNL     1     -39.503  21.673   1.784  0.00  0.00    +0.288 C 
ATOM      9  H   UNL     1     -38.196  20.123   1.805  0.00  0.00    +0.160 HD
ENDROOT
BRANCH   3  13
ATOM     10  O4* UNL     1     -35.230  22.834   3.999  0.00  0.00    -0.333 OA
ATOM     11  C2* UNL     1     -36.621  24.626   4.683  0.00  0.00    +0.187 C 
ATOM     12  C3* UNL     1     -35.366  24.638   5.529  0.00  0.00    +0.171 C 
ATOM     13  C1* UNL     1     -36.197  23.773   3.500  0.00  0.00    +0.229 C 
ATOM     14  C4* UNL     1     -34.837  23.223   5.333  0.00  0.00    +0.175 C 
BRANCH  11  15
ATOM     15  O2* UNL     1     -37.020  25.926   4.299  0.00  0.00    -0.378 OA
ATOM     16  H2* UNL     1     -36.515  26.582   4.805  0.00  0.00    +0.211 HD
ENDBRANCH  11  15
BRANCH  12  17
ATOM     17  O3* UNL     1     -34.409  25.544   4.981  0.00  0.00    -0.379 OA
ATOM     18  H3* UNL     1     -34.498  26.409   5.412  0.00  0.00    +0.211 HD
ENDBRANCH  12  17
BRANCH  14  19
ATOM     19  C5* UNL     1     -35.428  22.219   6.314  0.00  0.00    +0.169 C 
BRANCH  19  20
ATOM     20  O5* UNL     1     -35.366  20.928   5.734  0.00  0.00    -0.379 OA
ATOM     21  H5* UNL     1     -34.459  20.752   5.435  0.00  0.00    +0.211 HD
ENDBRANCH  19  20
ENDBRANCH  14  19
ENDBRANCH   3  13
BRANCH   7  22
ATOM     22  O   UNL     1     -40.764  23.761   1.927  0.00  0.00    -0.458 OA
BRANCH  22  23
ATOM     23  C   UNL     1     -40.538  25.116   1.586  0.00  0.00    +0.314 C 
BRANCH  23  25
ATOM     24  O   UNL     1     -42.279  26.269   2.828  0.00  0.00    -0.246 OA
ATOM     25  C   UNL     1     -41.097  26.012   2.656  0.00  0.00    +0.359 C 
BRANCH  25  26
ATOM     26  O   UNL     1     -40.094  26.509   3.422  0.00  0.00    -0.478 OA
ATOM     27  H   UNL     1     -40.116  26.399   4.352  0.00  0.00    +0.295 HD
ENDBRANCH  25  26
ENDBRANCH  23  25
ENDBRANCH  22  23
ENDBRANCH   7  22
TORSDOF 9
ENDMDL
MODEL 2
REMARK VINA RESULT:      -6.5      1.717      3.839
REMARK  Name = 193091
REMARK  9 active torsions:
REMARK  status: ('A' for Active; 'I' for Inactive)
REMARK    1  A    between atoms: N_3  and  C1*_13
REMARK    2  A    between atoms: C_7  and  O_22
REMARK    3  A    between atoms: C2*_11  and  O2*_15
REMARK    4  A    between atoms: C3*_12  and  O3*_17
REMARK    5  A    between atoms: C4*_14  and  C5*_19
REMARK    6  A    between atoms: C5*_19  and  O5*_20
REMARK    7  A    between atoms: O_22  and  C_23
REMARK    8  A    between atoms: C_23  and  C_25
REMARK    9  A    between atoms: C_25  and  O_26
REMARK                            x       y       z     vdW  Elec       q    Type
REMARK                         _______ _______ _______ _____ _____    ______ ____
ROOT
ATOM      1  O   UNL     1     -38.131  26.505   2.843  0.00  0.00    -0.252 OA
ATOM      2  O   UNL     1     -40.654  23.044   1.149  0.00  0.00    -0.266 OA
ATOM      3  N   UNL     1     -37.286  24.335   3.030  0.00  0.00    -0.214 N 
ATOM      4  N   UNL     1     -39.382  24.775   2.001  0.00  0.00    -0.233 N 
ATOM      5  C   UNL     1     -37.497  22.986   2.767  0.00  0.00    +0.113 C 
ATOM      6  C   UNL     1     -38.251  25.294   2.643  0.00  0.00    +0.316 C 
ATOM      7  C   UNL     1     -38.581  22.504   2.153  0.00  0.00    +0.208 C 
ATOM      8  C   UNL     1     -39.641  23.443   1.715  0.00  0.00    +0.288 C 
ATOM      9  H   UNL     1     -40.067  25.425   1.722  0.00  0.00    +0.160 HD
ENDROOT
BRANCH   3  13
ATOM     10  O4* UNL     1     -35.175  23.647   3.761  0.00  0.00    -0.333 OA
ATOM     11  C2* UNL     1     -36.342  25.189   5.130  0.00  0.00    +0.187 C 
ATOM     12  C3* UNL     1     -35.030  24.841   5.802  0.00  0.00    +0.171 C 
ATOM     13  C1* UNL     1     -36.087  24.755   3.697  0.00  0.00    +0.229 C 
ATOM     14  C4* UNL     1     -34.648  23.543   5.103  0.00  0.00    +0.175 C 
BRANCH  11  15
ATOM     15  O2* UNL     1     -36.648  26.564   5.235  0.00  0.00    -0.378 OA
ATOM     16  H2* UNL     1     -37.238  26.708   5.992  0.00  0.00    +0.211 HD
ENDBRANCH  11  15
BRANCH  12  17
ATOM     17  O3* UNL     1     -34.038  25.818   5.487  0.00  0.00    -0.379 OA
ATOM     18  H3* UNL     1     -33.175  25.384   5.394  0.00  0.00    +0.211 HD
ENDBRANCH  12  17
BRANCH  14  19
ATOM     19  C5* UNL     1     -35.253  22.308   5.756  0.00  0.00    +0.169 C 
BRANCH  19  20
ATOM     20  O5* UNL     1     -35.360  21.286   4.780  0.00  0.00    -0.379 OA
ATOM     21  H5* UNL     1     -36.284  21.210   4.492  0.00  0.00    +0.211 HD
ENDBRANCH  19  20
ENDBRANCH  14  19
ENDBRANCH   3  13
BRANCH   7  22
ATOM     22  O   UNL     1     -38.774  21.165   1.901  0.00  0.00    -0.458 OA
BRANCH  22  23
ATOM     23  C   UNL     1     -38.024  20.747   0.776  0.00  0.00    +0.314 C 
BRANCH  23  25
ATOM     24  O   UNL     1     -36.040  19.374   0.490  0.00  0.00    -0.246 OA
ATOM     25  C   UNL     1     -36.889  19.866   1.219  0.00  0.00    +0.359 C 
BRANCH  25  26
ATOM     26  O   UNL     1     -36.933  19.685   2.563  0.00  0.00    -0.478 OA
ATOM     27  H   UNL     1     -36.518  20.302   3.133  0.00  0.00    +0.295 HD
ENDBRANCH  25  26
ENDBRANCH  23  25
ENDBRANCH  22  23
ENDBRANCH   7  22
TORSDOF 9
ENDMDL
MODEL 3
REMARK VINA RESULT:      -6.5      1.696      6.096
REMARK  Name = 193091
REMARK  9 active torsions:
REMARK  status: ('A' for Active; 'I' for Inactive)
REMARK    1  A    between atoms: N_3  and  C1*_13
REMARK    2  A    between atoms: C_7  and  O_22
REMARK    3  A    between atoms: C2*_11  and  O2*_15
REMARK    4  A    between atoms: C3*_12  and  O3*_17
REMARK    5  A    between atoms: C4*_14  and  C5*_19
REMARK    6  A    between atoms: C5*_19  and  O5*_20
REMARK    7  A    between atoms: O_22  and  C_23
REMARK    8  A    between atoms: C_23  and  C_25
REMARK    9  A    between atoms: C_25  and  O_26
REMARK                            x       y       z     vdW  Elec       q    Type
REMARK                         _______ _______ _______ _____ _____    ______ ____
ROOT
ATOM      1  O   UNL     1     -40.002  26.365   2.832  0.00  0.00    -0.252 OA
ATOM      2  O   UNL     1     -35.765  26.201   4.629  0.00  0.00    -0.266 OA
ATOM      3  N   UNL     1     -38.811  24.363   2.656  0.00  0.00    -0.214 N 
ATOM      4  N   UNL     1     -37.890  26.275   3.726  0.00  0.00    -0.233 N 
ATOM      5  C   UNL     1     -37.627  23.695   2.942  0.00  0.00    +0.113 C 
ATOM      6  C   UNL     1     -38.981  25.711   3.052  0.00  0.00    +0.316 C 
ATOM      7  C   UNL     1     -36.594  24.245   3.587  0.00  0.00    +0.208 C 
ATOM      8  C   UNL     1     -36.690  25.654   4.035  0.00  0.00    +0.288 C 
ATOM      9  H   UNL     1     -37.986  27.212   4.010  0.00  0.00    +0.160 HD
ENDROOT
BRANCH   3  13
ATOM     10  O4* UNL     1     -39.800  22.282   2.261  0.00  0.00    -0.333 OA
ATOM     11  C2* UNL     1     -39.733  23.806   0.448  0.00  0.00    +0.187 C 
ATOM     12  C3* UNL     1     -40.365  22.515  -0.028  0.00  0.00    +0.171 C 
ATOM     13  C1* UNL     1     -39.865  23.685   1.957  0.00  0.00    +0.229 C 
ATOM     14  C4* UNL     1     -39.906  21.526   1.035  0.00  0.00    +0.175 C 
BRANCH  11  15
ATOM     15  O2* UNL     1     -40.393  24.946  -0.064  0.00  0.00    -0.378 OA
ATOM     16  H2* UNL     1     -39.748  25.658  -0.202  0.00  0.00    +0.211 HD
ENDBRANCH  11  15
BRANCH  12  17
ATOM     17  O3* UNL     1     -41.788  22.606   0.041  0.00  0.00    -0.379 OA
ATOM     18  H3* UNL     1     -42.162  22.500  -0.848  0.00  0.00    +0.211 HD
ENDBRANCH  12  17
BRANCH  14  19
ATOM     19  C5* UNL     1     -38.546  20.910   0.737  0.00  0.00    +0.169 C 
BRANCH  19  20
ATOM     20  O5* UNL     1     -37.969  20.473   1.955  0.00  0.00    -0.379 OA
ATOM     21  H5* UNL     1     -38.400  19.651   2.239  0.00  0.00    +0.211 HD
ENDBRANCH  19  20
ENDBRANCH  14  19
ENDBRANCH   3  13
BRANCH   7  22
ATOM     22  O   UNL     1     -35.427  23.568   3.861  0.00  0.00    -0.458 OA
BRANCH  22  23
ATOM     23  C   UNL     1     -35.675  22.189   4.058  0.00  0.00    +0.314 C 
BRANCH  23  25
ATOM     24  O   UNL     1     -35.773  22.612   6.448  0.00  0.00    -0.246 OA
ATOM     25  C   UNL     1     -35.551  21.852   5.518  0.00  0.00    +0.359 C 
BRANCH  25  26
ATOM     26  O   UNL     1     -35.149  20.565   5.669  0.00  0.00    -0.478 OA
ATOM     27  H   UNL     1     -34.383  20.369   6.172  0.00  0.00    +0.295 HD
ENDBRANCH  25  26
ENDBRANCH  23  25
ENDBRANCH  22  23
ENDBRANCH   7  22
TORSDOF 9
ENDMDL
MODEL 4
REMARK VINA RESULT:      -6.4      1.550      5.394
REMARK  Name = 193091
REMARK  9 active torsions:
REMARK  status: ('A' for Active; 'I' for Inactive)
REMARK    1  A    between atoms: N_3  and  C1*_13
REMARK    2  A    between atoms: C_7  and  O_22
REMARK    3  A    between atoms: C2*_11  and  O2*_15
REMARK    4  A    between atoms: C3*_12  and  O3*_17
REMARK    5  A    between atoms: C4*_14  and  C5*_19
REMARK    6  A    between atoms: C5*_19  and  O5*_20
REMARK    7  A    between atoms: O_22  and  C_23
REMARK    8  A    between atoms: C_23  and  C_25
REMARK    9  A    between atoms: C_25  and  O_26
REMARK                            x       y       z     vdW  Elec       q    Type
REMARK                         _______ _______ _______ _____ _____    ______ ____
ROOT
ATOM      1  O   UNL     1     -36.685  20.345   2.229  0.00  0.00    -0.252 OA
ATOM      2  O   UNL     1     -34.425  21.750   5.988  0.00  0.00    -0.266 OA
ATOM      3  N   UNL     1     -37.042  22.531   2.972  0.00  0.00    -0.214 N 
ATOM      4  N   UNL     1     -35.562  21.052   4.101  0.00  0.00    -0.233 N 
ATOM      5  C   UNL     1     -36.724  23.494   3.923  0.00  0.00    +0.113 C 
ATOM      6  C   UNL     1     -36.451  21.246   3.037  0.00  0.00    +0.316 C 
ATOM      7  C   UNL     1     -35.873  23.296   4.933  0.00  0.00    +0.208 C 
ATOM      8  C   UNL     1     -35.212  21.977   5.074  0.00  0.00    +0.288 C 
ATOM      9  H   UNL     1     -35.139  20.166   4.166  0.00  0.00    +0.160 HD
ENDROOT
BRANCH   3  13
ATOM     10  O4* UNL     1     -38.045  24.266   1.771  0.00  0.00    -0.333 OA
ATOM     11  C2* UNL     1     -39.378  22.363   2.235  0.00  0.00    +0.187 C 
ATOM     12  C3* UNL     1     -40.225  23.378   1.497  0.00  0.00    +0.171 C 
ATOM     13  C1* UNL     1     -37.970  22.839   1.923  0.00  0.00    +0.229 C 
ATOM     14  C4* UNL     1     -39.433  24.663   1.703  0.00  0.00    +0.175 C 
BRANCH  11  15
ATOM     15  O2* UNL     1     -39.615  21.043   1.790  0.00  0.00    -0.378 OA
ATOM     16  H2* UNL     1     -40.344  21.044   1.148  0.00  0.00    +0.211 HD
ENDBRANCH  11  15
BRANCH  12  17
ATOM     17  O3* UNL     1     -40.238  23.090   0.099  0.00  0.00    -0.379 OA
ATOM     18  H3* UNL     1     -39.420  22.627  -0.143  0.00  0.00    +0.211 HD
ENDBRANCH  12  17
BRANCH  14  19
ATOM     19  C5* UNL     1     -39.784  25.385   2.996  0.00  0.00    +0.169 C 
BRANCH  19  20
ATOM     20  O5* UNL     1     -38.715  26.250   3.338  0.00  0.00    -0.379 OA
ATOM     21  H5* UNL     1     -39.052  26.982   3.878  0.00  0.00    +0.211 HD
ENDBRANCH  19  20
ENDBRANCH  14  19
ENDBRANCH   3  13
BRANCH   7  22
ATOM     22  O   UNL     1     -35.571  24.261   5.867  0.00  0.00    -0.458 OA
BRANCH  22  23
ATOM     23  C   UNL     1     -34.611  25.171   5.364  0.00  0.00    +0.314 C 
BRANCH  23  25
ATOM     24  O   UNL     1     -34.819  27.310   4.232  0.00  0.00    -0.246 OA
ATOM     25  C   UNL     1     -35.284  26.457   4.972  0.00  0.00    +0.359 C 
BRANCH  25  26
ATOM     26  O   UNL     1     -36.502  26.547   5.563  0.00  0.00    -0.478 OA
ATOM     27  H   UNL     1     -36.666  27.217   6.198  0.00  0.00    +0.295 HD
ENDBRANCH  25  26
ENDBRANCH  23  25
ENDBRANCH  22  23
ENDBRANCH   7  22
TORSDOF 9
ENDMDL
MODEL 5
REMARK VINA RESULT:      -6.4      2.150      6.200
REMARK  Name = 193091
REMARK  9 active torsions:
REMARK  status: ('A' for Active; 'I' for Inactive)
REMARK    1  A    between atoms: N_3  and  C1*_13
REMARK    2  A    between atoms: C_7  and  O_22
REMARK    3  A    between atoms: C2*_11  and  O2*_15
REMARK    4  A    between atoms: C3*_12  and  O3*_17
REMARK    5  A    between atoms: C4*_14  and  C5*_19
REMARK    6  A    between atoms: C5*_19  and  O5*_20
REMARK    7  A    between atoms: O_22  and  C_23
REMARK    8  A    between atoms: C_23  and  C_25
REMARK    9  A    between atoms: C_25  and  O_26
REMARK                            x       y       z     vdW  Elec       q    Type
REMARK                         _______ _______ _______ _____ _____    ______ ____
ROOT
ATOM      1  O   UNL     1     -37.207  27.657   1.589  0.00  0.00    -0.252 OA
ATOM      2  O   UNL     1     -34.708  26.509   5.283  0.00  0.00    -0.266 OA
ATOM      3  N   UNL     1     -37.665  25.619   2.634  0.00  0.00    -0.214 N 
ATOM      4  N   UNL     1     -35.966  27.078   3.431  0.00  0.00    -0.233 N 
ATOM      5  C   UNL     1     -37.336  24.753   3.670  0.00  0.00    +0.113 C 
ATOM      6  C   UNL     1     -36.969  26.842   2.482  0.00  0.00    +0.316 C 
ATOM      7  C   UNL     1     -36.377  24.991   4.569  0.00  0.00    +0.208 C 
ATOM      8  C   UNL     1     -35.599  26.249   4.480  0.00  0.00    +0.288 C 
ATOM      9  H   UNL     1     -35.469  27.924   3.344  0.00  0.00    +0.160 HD
ENDROOT
BRANCH   3  13
ATOM     10  O4* UNL     1     -39.639  24.395   2.376  0.00  0.00    -0.333 OA
ATOM     11  C2* UNL     1     -38.196  24.523   0.501  0.00  0.00    +0.187 C 
ATOM     12  C3* UNL     1     -39.381  23.653   0.141  0.00  0.00    +0.171 C 
ATOM     13  C1* UNL     1     -38.713  25.273   1.717  0.00  0.00    +0.229 C 
ATOM     14  C4* UNL     1     -39.927  23.274   1.511  0.00  0.00    +0.175 C 
BRANCH  11  15
ATOM     15  O2* UNL     1     -37.825  25.387  -0.553  0.00  0.00    -0.378 OA
ATOM     16  H2* UNL     1     -36.929  25.725  -0.395  0.00  0.00    +0.211 HD
ENDBRANCH  11  15
BRANCH  12  17
ATOM     17  O3* UNL     1     -40.376  24.426  -0.530  0.00  0.00    -0.379 OA
ATOM     18  H3* UNL     1     -41.256  24.163  -0.216  0.00  0.00    +0.211 HD
ENDBRANCH  12  17
BRANCH  14  19
ATOM     19  C5* UNL     1     -39.263  22.037   2.101  0.00  0.00    +0.169 C 
BRANCH  19  20
ATOM     20  O5* UNL     1     -40.227  21.002   2.185  0.00  0.00    -0.379 OA
ATOM     21  H5* UNL     1     -40.262  20.523   1.342  0.00  0.00    +0.211 HD
ENDBRANCH  19  20
ENDBRANCH  14  19
ENDBRANCH   3  13
BRANCH   7  22
ATOM     22  O   UNL     1     -36.063  24.121   5.588  0.00  0.00    -0.458 OA
BRANCH  22  23
ATOM     23  C   UNL     1     -35.006  23.258   5.210  0.00  0.00    +0.314 C 
BRANCH  23  25
ATOM     24  O   UNL     1     -35.050  20.860   4.827  0.00  0.00    -0.246 OA
ATOM     25  C   UNL     1     -35.390  21.831   5.486  0.00  0.00    +0.359 C 
BRANCH  25  26
ATOM     26  O   UNL     1     -36.181  21.762   6.586  0.00  0.00    -0.478 OA
ATOM     27  H   UNL     1     -36.815  22.433   6.750  0.00  0.00    +0.295 HD
ENDBRANCH  25  26
ENDBRANCH  23  25
ENDBRANCH  22  23
ENDBRANCH   7  22
TORSDOF 9
ENDMDL
MODEL 6
REMARK VINA RESULT:      -6.1      2.787      5.393
REMARK  Name = 193091
REMARK  9 active torsions:
REMARK  status: ('A' for Active; 'I' for Inactive)
REMARK    1  A    between atoms: N_3  and  C1*_13
REMARK    2  A    between atoms: C_7  and  O_22
REMARK    3  A    between atoms: C2*_11  and  O2*_15
REMARK    4  A    between atoms: C3*_12  and  O3*_17
REMARK    5  A    between atoms: C4*_14  and  C5*_19
REMARK    6  A    between atoms: C5*_19  and  O5*_20
REMARK    7  A    between atoms: O_22  and  C_23
REMARK    8  A    between atoms: C_23  and  C_25
REMARK    9  A    between atoms: C_25  and  O_26
REMARK                            x       y       z     vdW  Elec       q    Type
REMARK                         _______ _______ _______ _____ _____    ______ ____
ROOT
ATOM      1  O   UNL     1     -35.153  21.063   5.557  0.00  0.00    -0.252 OA
ATOM      2  O   UNL     1     -35.516  25.646   5.835  0.00  0.00    -0.266 OA
ATOM      3  N   UNL     1     -35.911  22.221   3.675  0.00  0.00    -0.214 N 
ATOM      4  N   UNL     1     -35.336  23.348   5.688  0.00  0.00    -0.233 N 
ATOM      5  C   UNL     1     -36.220  23.462   3.129  0.00  0.00    +0.113 C 
ATOM      6  C   UNL     1     -35.446  22.128   5.008  0.00  0.00    +0.316 C 
ATOM      7  C   UNL     1     -36.110  24.618   3.788  0.00  0.00    +0.208 C 
ATOM      8  C   UNL     1     -35.631  24.608   5.191  0.00  0.00    +0.288 C 
ATOM      9  H   UNL     1     -35.014  23.306   6.617  0.00  0.00    +0.160 HD
ENDROOT
BRANCH   3  13
ATOM     10  O4* UNL     1     -34.831  20.771   2.194  0.00  0.00    -0.333 OA
ATOM     11  C2* UNL     1     -37.134  21.179   1.818  0.00  0.00    +0.187 C 
ATOM     12  C3* UNL     1     -36.621  20.260   0.729  0.00  0.00    +0.171 C 
ATOM     13  C1* UNL     1     -36.063  21.034   2.885  0.00  0.00    +0.229 C 
ATOM     14  C4* UNL     1     -35.117  20.482   0.808  0.00  0.00    +0.175 C 
BRANCH  11  15
ATOM     15  O2* UNL     1     -38.415  20.801   2.279  0.00  0.00    -0.378 OA
ATOM     16  H2* UNL     1     -39.003  20.659   1.520  0.00  0.00    +0.211 HD
ENDBRANCH  11  15
BRANCH  12  17
ATOM     17  O3* UNL     1     -36.883  18.899   1.068  0.00  0.00    -0.379 OA
ATOM     18  H3* UNL     1     -37.050  18.829   2.021  0.00  0.00    +0.211 HD
ENDBRANCH  12  17
BRANCH  14  19
ATOM     19  C5* UNL     1     -34.638  21.659  -0.031  0.00  0.00    +0.169 C 
BRANCH  19  20
ATOM     20  O5* UNL     1     -33.226  21.737   0.060  0.00  0.00    -0.379 OA
ATOM     21  H5* UNL     1     -32.898  22.402  -0.566  0.00  0.00    +0.211 HD
ENDBRANCH  19  20
ENDBRANCH  14  19
ENDBRANCH   3  13
BRANCH   7  22
ATOM     22  O   UNL     1     -36.423  25.838   3.233  0.00  0.00    -0.458 OA
BRANCH  22  23
ATOM     23  C   UNL     1     -35.331  26.354   2.495  0.00  0.00    +0.314 C 
BRANCH  23  25
ATOM     24  O   UNL     1     -35.387  28.781   2.397  0.00  0.00    -0.246 OA
ATOM     25  C   UNL     1     -35.023  27.753   2.950  0.00  0.00    +0.359 C 
BRANCH  25  26
ATOM     26  O   UNL     1     -34.273  27.725   4.080  0.00  0.00    -0.478 OA
ATOM     27  H   UNL     1     -33.490  28.238   4.136  0.00  0.00    +0.295 HD
ENDBRANCH  25  26
ENDBRANCH  23  25
ENDBRANCH  22  23
ENDBRANCH   7  22
TORSDOF 9
ENDMDL
MODEL 7
REMARK VINA RESULT:      -6.1      2.662      6.470
REMARK  Name = 193091
REMARK  9 active torsions:
REMARK  status: ('A' for Active; 'I' for Inactive)
REMARK    1  A    between atoms: N_3  and  C1*_13
REMARK    2  A    between atoms: C_7  and  O_22
REMARK    3  A    between atoms: C2*_11  and  O2*_15
REMARK    4  A    between atoms: C3*_12  and  O3*_17
REMARK    5  A    between atoms: C4*_14  and  C5*_19
REMARK    6  A    between atoms: C5*_19  and  O5*_20
REMARK    7  A    between atoms: O_22  and  C_23
REMARK    8  A    between atoms: C_23  and  C_25
REMARK    9  A    between atoms: C_25  and  O_26
REMARK                            x       y       z     vdW  Elec       q    Type
REMARK                         _______ _______ _______ _____ _____    ______ ____
ROOT
ATOM      1  O   UNL     1     -35.136  28.548   2.606  0.00  0.00    -0.252 OA
ATOM      2  O   UNL     1     -33.479  26.253   6.240  0.00  0.00    -0.266 OA
ATOM      3  N   UNL     1     -36.039  26.447   3.084  0.00  0.00    -0.214 N 
ATOM      4  N   UNL     1     -34.316  27.398   4.416  0.00  0.00    -0.233 N 
ATOM      5  C   UNL     1     -36.012  25.343   3.928  0.00  0.00    +0.113 C 
ATOM      6  C   UNL     1     -35.167  27.538   3.312  0.00  0.00    +0.316 C 
ATOM      7  C   UNL     1     -35.196  25.223   4.978  0.00  0.00    +0.208 C 
ATOM      8  C   UNL     1     -34.249  26.321   5.286  0.00  0.00    +0.288 C 
ATOM      9  H   UNL     1     -33.700  28.146   4.593  0.00  0.00    +0.160 HD
ENDROOT
BRANCH   3  13
ATOM     10  O4* UNL     1     -38.298  26.524   2.487  0.00  0.00    -0.333 OA
ATOM     11  C2* UNL     1     -36.860  25.241   1.108  0.00  0.00    +0.187 C 
ATOM     12  C3* UNL     1     -38.273  25.120   0.579  0.00  0.00    +0.171 C 
ATOM     13  C1* UNL     1     -36.954  26.482   1.980  0.00  0.00    +0.229 C 
ATOM     14  C4* UNL     1     -39.102  25.554   1.781  0.00  0.00    +0.175 C 
BRANCH  11  15
ATOM     15  O2* UNL     1     -35.910  25.377   0.072  0.00  0.00    -0.378 OA
ATOM     16  H2* UNL     1     -36.160  24.808  -0.673  0.00  0.00    +0.211 HD
ENDBRANCH  11  15
BRANCH  12  17
ATOM     17  O3* UNL     1     -38.492  26.065  -0.469  0.00  0.00    -0.379 OA
ATOM     18  H3* UNL     1     -37.757  26.698  -0.491  0.00  0.00    +0.211 HD
ENDBRANCH  12  17
BRANCH  14  19
ATOM     19  C5* UNL     1     -39.417  24.412   2.738  0.00  0.00    +0.169 C 
BRANCH  19  20
ATOM     20  O5* UNL     1     -39.538  24.938   4.048  0.00  0.00    -0.379 OA
ATOM     21  H5* UNL     1     -40.301  24.532   4.489  0.00  0.00    +0.211 HD
ENDBRANCH  19  20
ENDBRANCH  14  19
ENDBRANCH   3  13
BRANCH   7  22
ATOM     22  O   UNL     1     -35.181  24.121   5.802  0.00  0.00    -0.458 OA
BRANCH  22  23
ATOM     23  C   UNL     1     -34.560  23.021   5.166  0.00  0.00    +0.314 C 
BRANCH  23  25
ATOM     24  O   UNL     1     -35.092  20.654   5.022  0.00  0.00    -0.246 OA
ATOM     25  C   UNL     1     -35.278  21.750   5.529  0.00  0.00    +0.359 C 
BRANCH  25  26
ATOM     26  O   UNL     1     -36.179  21.987   6.515  0.00  0.00    -0.478 OA
ATOM     27  H   UNL     1     -36.590  21.269   6.956  0.00  0.00    +0.295 HD
ENDBRANCH  25  26
ENDBRANCH  23  25
ENDBRANCH  22  23
ENDBRANCH   7  22
TORSDOF 9
ENDMDL
MODEL 8
REMARK VINA RESULT:      -6.1      3.108      6.637
REMARK  Name = 193091
REMARK  9 active torsions:
REMARK  status: ('A' for Active; 'I' for Inactive)
REMARK    1  A    between atoms: N_3  and  C1*_13
REMARK    2  A    between atoms: C_7  and  O_22
REMARK    3  A    between atoms: C2*_11  and  O2*_15
REMARK    4  A    between atoms: C3*_12  and  O3*_17
REMARK    5  A    between atoms: C4*_14  and  C5*_19
REMARK    6  A    between atoms: C5*_19  and  O5*_20
REMARK    7  A    between atoms: O_22  and  C_23
REMARK    8  A    between atoms: C_23  and  C_25
REMARK    9  A    between atoms: C_25  and  O_26
REMARK                            x       y       z     vdW  Elec       q    Type
REMARK                         _______ _______ _______ _____ _____    ______ ____
ROOT
ATOM      1  O   UNL     1     -37.466  26.444   2.090  0.00  0.00    -0.252 OA
ATOM      2  O   UNL     1     -34.019  29.230   3.342  0.00  0.00    -0.266 OA
ATOM      3  N   UNL     1     -35.645  25.503   3.211  0.00  0.00    -0.214 N 
ATOM      4  N   UNL     1     -35.745  27.826   2.718  0.00  0.00    -0.233 N 
ATOM      5  C   UNL     1     -34.411  25.734   3.807  0.00  0.00    +0.113 C 
ATOM      6  C   UNL     1     -36.367  26.574   2.634  0.00  0.00    +0.316 C 
ATOM      7  C   UNL     1     -33.828  26.934   3.881  0.00  0.00    +0.208 C 
ATOM      8  C   UNL     1     -34.518  28.109   3.299  0.00  0.00    +0.288 C 
ATOM      9  H   UNL     1     -36.229  28.586   2.323  0.00  0.00    +0.160 HD
ENDROOT
BRANCH   3  13
ATOM     10  O4* UNL     1     -36.577  23.800   4.513  0.00  0.00    -0.333 OA
ATOM     11  C2* UNL     1     -35.175  23.144   2.720  0.00  0.00    +0.187 C 
ATOM     12  C3* UNL     1     -35.631  21.902   3.457  0.00  0.00    +0.171 C 
ATOM     13  C1* UNL     1     -36.189  24.176   3.182  0.00  0.00    +0.229 C 
ATOM     14  C4* UNL     1     -36.079  22.474   4.796  0.00  0.00    +0.175 C 
BRANCH  11  15
ATOM     15  O2* UNL     1     -35.181  22.966   1.318  0.00  0.00    -0.378 OA
ATOM     16  H2* UNL     1     -35.491  22.072   1.106  0.00  0.00    +0.211 HD
ENDBRANCH  11  15
BRANCH  12  17
ATOM     17  O3* UNL     1     -36.774  21.338   2.815  0.00  0.00    -0.379 OA
ATOM     18  H3* UNL     1     -36.535  20.483   2.422  0.00  0.00    +0.211 HD
ENDBRANCH  12  17
BRANCH  14  19
ATOM     19  C5* UNL     1     -34.947  22.597   5.807  0.00  0.00    +0.169 C 
BRANCH  19  20
ATOM     20  O5* UNL     1     -34.557  21.296   6.211  0.00  0.00    -0.379 OA
ATOM     21  H5* UNL     1     -34.628  20.689   5.457  0.00  0.00    +0.211 HD
ENDBRANCH  19  20
ENDBRANCH  14  19
ENDBRANCH   3  13
BRANCH   7  22
ATOM     22  O   UNL     1     -32.604  27.144   4.473  0.00  0.00    -0.458 OA
BRANCH  22  23
ATOM     23  C   UNL     1     -32.751  27.440   5.850  0.00  0.00    +0.314 C 
BRANCH  23  25
ATOM     24  O   UNL     1     -30.403  28.066   5.875  0.00  0.00    -0.246 OA
ATOM     25  C   UNL     1     -31.525  28.151   6.352  0.00  0.00    +0.359 C 
BRANCH  25  26
ATOM     26  O   UNL     1     -31.835  28.916   7.429  0.00  0.00    -0.478 OA
ATOM     27  H   UNL     1     -31.167  29.156   8.042  0.00  0.00    +0.295 HD
ENDBRANCH  25  26
ENDBRANCH  23  25
ENDBRANCH  22  23
ENDBRANCH   7  22
TORSDOF 9
ENDMDL
MODEL 9
REMARK VINA RESULT:      -6.1      4.105      6.518
REMARK  Name = 193091
REMARK  9 active torsions:
REMARK  status: ('A' for Active; 'I' for Inactive)
REMARK    1  A    between atoms: N_3  and  C1*_13
REMARK    2  A    between atoms: C_7  and  O_22
REMARK    3  A    between atoms: C2*_11  and  O2*_15
REMARK    4  A    between atoms: C3*_12  and  O3*_17
REMARK    5  A    between atoms: C4*_14  and  C5*_19
REMARK    6  A    between atoms: C5*_19  and  O5*_20
REMARK    7  A    between atoms: O_22  and  C_23
REMARK    8  A    between atoms: C_23  and  C_25
REMARK    9  A    between atoms: C_25  and  O_26
REMARK                            x       y       z     vdW  Elec       q    Type
REMARK                         _______ _______ _______ _____ _____    ______ ____
ROOT
ATOM      1  O   UNL     1     -34.991  28.555   1.642  0.00  0.00    -0.252 OA
ATOM      2  O   UNL     1     -37.415  25.388   3.945  0.00  0.00    -0.266 OA
ATOM      3  N   UNL     1     -33.991  27.538   3.492  0.00  0.00    -0.214 N 
ATOM      4  N   UNL     1     -36.193  26.975   2.794  0.00  0.00    -0.233 N 
ATOM      5  C   UNL     1     -34.134  26.612   4.519  0.00  0.00    +0.113 C 
ATOM      6  C   UNL     1     -35.047  27.751   2.575  0.00  0.00    +0.316 C 
ATOM      7  C   UNL     1     -35.232  25.877   4.716  0.00  0.00    +0.208 C 
ATOM      8  C   UNL     1     -36.386  26.040   3.800  0.00  0.00    +0.288 C 
ATOM      9  H   UNL     1     -36.940  27.107   2.168  0.00  0.00    +0.160 HD
ENDROOT
BRANCH   3  13
ATOM     10  O4* UNL     1     -31.766  27.675   4.193  0.00  0.00    -0.333 OA
ATOM     11  C2* UNL     1     -32.912  29.718   3.834  0.00  0.00    +0.187 C 
ATOM     12  C3* UNL     1     -31.514  30.028   4.324  0.00  0.00    +0.171 C 
ATOM     13  C1* UNL     1     -32.771  28.280   3.363  0.00  0.00    +0.229 C 
ATOM     14  C4* UNL     1     -31.097  28.705   4.954  0.00  0.00    +0.175 C 
BRANCH  11  15
ATOM     15  O2* UNL     1     -33.323  30.589   2.800  0.00  0.00    -0.378 OA
ATOM     16  H2* UNL     1     -34.260  30.435   2.599  0.00  0.00    +0.211 HD
ENDBRANCH  11  15
BRANCH  12  17
ATOM     17  O3* UNL     1     -30.647  30.280   3.219  0.00  0.00    -0.379 OA
ATOM     18  H3* UNL     1     -29.729  30.103   3.480  0.00  0.00    +0.211 HD
ENDBRANCH  12  17
BRANCH  14  19
ATOM     19  C5* UNL     1     -31.523  28.572   6.410  0.00  0.00    +0.169 C 
BRANCH  19  20
ATOM     20  O5* UNL     1     -31.423  27.210   6.789  0.00  0.00    -0.379 OA
ATOM     21  H5* UNL     1     -30.521  26.894   6.622  0.00  0.00    +0.211 HD
ENDBRANCH  19  20
ENDBRANCH  14  19
ENDBRANCH   3  13
BRANCH   7  22
ATOM     22  O   UNL     1     -35.357  24.965   5.739  0.00  0.00    -0.458 OA
BRANCH  22  23
ATOM     23  C   UNL     1     -34.779  23.723   5.384  0.00  0.00    +0.314 C 
BRANCH  23  25
ATOM     24  O   UNL     1     -35.946  21.932   6.540  0.00  0.00    -0.246 OA
ATOM     25  C   UNL     1     -35.793  22.624   5.545  0.00  0.00    +0.359 C 
BRANCH  25  26
ATOM     26  O   UNL     1     -36.530  22.498   4.413  0.00  0.00    -0.478 OA
ATOM     27  H   UNL     1     -36.386  23.080   3.692  0.00  0.00    +0.295 HD
ENDBRANCH  25  26
ENDBRANCH  23  25
ENDBRANCH  22  23
ENDBRANCH   7  22
TORSDOF 9
ENDMDL
