MODEL 1
REMARK VINA RESULT:      -6.3      0.000      0.000
REMARK  Name = 5288615
REMARK  7 active torsions:
REMARK  status: ('A' for Active; 'I' for Inactive)
REMARK    1  A    between atoms: S_1  and  N_5
REMARK    2  A    between atoms: S_1  and  C_18
REMARK    3  A    between atoms: C_7  and  C_14
REMARK    4  A    between atoms: N_13  and  O_16
REMARK    5  A    between atoms: C_23  and  O_24
REMARK    6  A    between atoms: O_24  and  C_25
REMARK    7  A    between atoms: C_25  and  C_26
REMARK                            x       y       z     vdW  Elec       q    Type
REMARK                         _______ _______ _______ _____ _____    ______ ____
ROOT
ATOM      1  S   UNL     1     -34.327  26.210   4.466  0.00  0.00    +0.064 S 
ATOM      2  O   UNL     1     -35.561  26.933   4.686  0.00  0.00    -0.153 OA
ATOM      3  O   UNL     1     -33.277  26.204   5.459  0.00  0.00    -0.153 OA
ENDROOT
BRANCH   1   5
ATOM      4  S   UNL     1     -32.268  27.867   0.372  0.00  0.00    -0.139 S 
ATOM      5  N   UNL     1     -33.663  26.687   2.958  0.00  0.00    -0.146 NA
ATOM      6  C   UNL     1     -34.076  27.763   0.714  0.00  0.00    +0.063 C 
ATOM      7  C   UNL     1     -34.382  27.778   2.230  0.00  0.00    +0.166 C 
ATOM      8  C   UNL     1     -32.174  26.755   2.901  0.00  0.00    +0.108 C 
ATOM      9  C   UNL     1     -31.675  26.559   1.480  0.00  0.00    +0.077 C 
ATOM     10  C   UNL     1     -34.629  26.478   0.068  0.00  0.00    +0.013 C 
ATOM     11  C   UNL     1     -34.734  28.965   0.011  0.00  0.00    +0.013 C 
BRANCH   7  14
ATOM     12  O   UNL     1     -32.948  29.506   3.028  0.00  0.00    -0.271 OA
ATOM     13  N   UNL     1     -35.225  29.700   3.383  0.00  0.00    -0.196 N 
ATOM     14  C   UNL     1     -34.095  29.078   2.921  0.00  0.00    +0.261 C 
ATOM     15  H   UNL     1     -36.121  29.310   3.270  0.00  0.00    +0.182 HD
BRANCH  13  16
ATOM     16  O   UNL     1     -35.022  30.928   4.029  0.00  0.00    -0.295 OA
ATOM     17  H   UNL     1     -35.381  31.643   3.483  0.00  0.00    +0.241 HD
ENDBRANCH  13  16
ENDBRANCH   7  14
ENDBRANCH   1   5
BRANCH   1  18
ATOM     18  C   UNL     1     -34.741  24.533   4.100  0.00  0.00    +0.122 C 
ATOM     19  C   UNL     1     -34.939  23.641   5.142  0.00  0.00    +0.023 C 
ATOM     20  C   UNL     1     -34.860  24.136   2.779  0.00  0.00    +0.023 C 
ATOM     21  C   UNL     1     -35.265  22.315   4.854  0.00  0.00    +0.038 C 
ATOM     22  C   UNL     1     -35.186  22.810   2.491  0.00  0.00    +0.038 C 
ATOM     23  C   UNL     1     -35.388  21.900   3.528  0.00  0.00    +0.140 C 
BRANCH  23  24
ATOM     24  O   UNL     1     -35.708  20.607   3.247  0.00  0.00    -0.461 OA
BRANCH  24  25
ATOM     25  C   UNL     1     -35.637  20.203   1.881  0.00  0.00    +0.281 C 
BRANCH  25  26
ATOM     26  C   UNL     1     -34.379  19.497   1.640  0.00  0.00    -0.044 C 
ATOM     27  C   UNL     1     -33.345  18.919   1.442  0.00  0.00    -0.086 C 
ATOM     28  C   UNL     1     -32.087  18.216   1.200  0.00  0.00    +0.090 C 
ENDBRANCH  25  26
ENDBRANCH  24  25
ENDBRANCH  23  24
ENDBRANCH   1  18
TORSDOF 7
ENDMDL
MODEL 2
REMARK VINA RESULT:      -6.0      6.256      8.759
REMARK  Name = 5288615
REMARK  7 active torsions:
REMARK  status: ('A' for Active; 'I' for Inactive)
REMARK    1  A    between atoms: S_1  and  N_5
REMARK    2  A    between atoms: S_1  and  C_18
REMARK    3  A    between atoms: C_7  and  C_14
REMARK    4  A    between atoms: N_13  and  O_16
REMARK    5  A    between atoms: C_23  and  O_24
REMARK    6  A    between atoms: O_24  and  C_25
REMARK    7  A    between atoms: C_25  and  C_26
REMARK                            x       y       z     vdW  Elec       q    Type
REMARK                         _______ _______ _______ _____ _____    ______ ____
ROOT
ATOM      1  S   UNL     1     -39.570  23.097   1.359  0.00  0.00    +0.064 S 
ATOM      2  O   UNL     1     -39.923  21.998   2.231  0.00  0.00    -0.153 OA
ATOM      3  O   UNL     1     -39.586  22.946  -0.079  0.00  0.00    -0.153 OA
ENDROOT
BRANCH   1   5
ATOM      4  S   UNL     1     -35.067  24.615   2.440  0.00  0.00    -0.139 S 
ATOM      5  N   UNL     1     -38.042  23.716   1.833  0.00  0.00    -0.146 NA
ATOM      6  C   UNL     1     -36.216  23.726   3.574  0.00  0.00    +0.063 C 
ATOM      7  C   UNL     1     -37.261  22.886   2.803  0.00  0.00    +0.166 C 
ATOM      8  C   UNL     1     -37.241  24.358   0.752  0.00  0.00    +0.108 C 
ATOM      9  C   UNL     1     -36.275  25.381   1.325  0.00  0.00    +0.077 C 
ATOM     10  C   UNL     1     -36.920  24.760   4.475  0.00  0.00    +0.013 C 
ATOM     11  C   UNL     1     -35.349  22.828   4.476  0.00  0.00    +0.013 C 
BRANCH   7  14
ATOM     12  O   UNL     1     -35.818  21.827   1.229  0.00  0.00    -0.271 OA
ATOM     13  N   UNL     1     -37.277  20.517   2.453  0.00  0.00    -0.196 N 
ATOM     14  C   UNL     1     -36.704  21.701   2.070  0.00  0.00    +0.261 C 
ATOM     15  H   UNL     1     -37.986  20.475   3.134  0.00  0.00    +0.182 HD
BRANCH  13  16
ATOM     16  O   UNL     1     -36.790  19.370   1.812  0.00  0.00    -0.295 OA
ATOM     17  H   UNL     1     -36.393  18.777   2.469  0.00  0.00    +0.241 HD
ENDBRANCH  13  16
ENDBRANCH   7  14
ENDBRANCH   1   5
BRANCH   1  18
ATOM     18  C   UNL     1     -40.599  24.470   1.774  0.00  0.00    +0.122 C 
ATOM     19  C   UNL     1     -41.705  24.751   0.988  0.00  0.00    +0.023 C 
ATOM     20  C   UNL     1     -40.283  25.245   2.878  0.00  0.00    +0.023 C 
ATOM     21  C   UNL     1     -42.518  25.836   1.316  0.00  0.00    +0.038 C 
ATOM     22  C   UNL     1     -41.096  26.330   3.206  0.00  0.00    +0.038 C 
ATOM     23  C   UNL     1     -42.213  26.626   2.424  0.00  0.00    +0.140 C 
BRANCH  23  24
ATOM     24  O   UNL     1     -43.007  27.684   2.745  0.00  0.00    -0.461 OA
BRANCH  24  25
ATOM     25  C   UNL     1     -43.604  27.679   4.041  0.00  0.00    +0.281 C 
BRANCH  25  26
ATOM     26  C   UNL     1     -44.700  26.711   4.076  0.00  0.00    -0.044 C 
ATOM     27  C   UNL     1     -45.601  25.918   4.103  0.00  0.00    -0.086 C 
ATOM     28  C   UNL     1     -46.697  24.951   4.136  0.00  0.00    +0.090 C 
ENDBRANCH  25  26
ENDBRANCH  24  25
ENDBRANCH  23  24
ENDBRANCH   1  18
TORSDOF 7
ENDMDL
MODEL 3
REMARK VINA RESULT:      -5.9      3.476      7.257
REMARK  Name = 5288615
REMARK  7 active torsions:
REMARK  status: ('A' for Active; 'I' for Inactive)
REMARK    1  A    between atoms: S_1  and  N_5
REMARK    2  A    between atoms: S_1  and  C_18
REMARK    3  A    between atoms: C_7  and  C_14
REMARK    4  A    between atoms: N_13  and  O_16
REMARK    5  A    between atoms: C_23  and  O_24
REMARK    6  A    between atoms: O_24  and  C_25
REMARK    7  A    between atoms: C_25  and  C_26
REMARK                            x       y       z     vdW  Elec       q    Type
REMARK                         _______ _______ _______ _____ _____    ______ ____
ROOT
ATOM      1  S   UNL     1     -36.880  24.096   3.775  0.00  0.00    +0.064 S 
ATOM      2  O   UNL     1     -36.707  22.760   4.302  0.00  0.00    -0.153 OA
ATOM      3  O   UNL     1     -38.044  24.887   4.109  0.00  0.00    -0.153 OA
ENDROOT
BRANCH   1   5
ATOM      4  S   UNL     1     -36.799  23.981  -1.096  0.00  0.00    -0.139 S 
ATOM      5  N   UNL     1     -36.713  24.049   2.069  0.00  0.00    -0.146 NA
ATOM      6  C   UNL     1     -36.230  22.640   0.032  0.00  0.00    +0.063 C 
ATOM      7  C   UNL     1     -36.913  22.717   1.418  0.00  0.00    +0.166 C 
ATOM      8  C   UNL     1     -37.285  25.212   1.331  0.00  0.00    +0.108 C 
ATOM      9  C   UNL     1     -36.581  25.410  -0.000  0.00  0.00    +0.077 C 
ATOM     10  C   UNL     1     -34.699  22.737   0.184  0.00  0.00    +0.013 C 
ATOM     11  C   UNL     1     -36.550  21.303  -0.663  0.00  0.00    +0.013 C 
BRANCH   7  14
ATOM     12  O   UNL     1     -39.177  23.076   0.765  0.00  0.00    -0.271 OA
ATOM     13  N   UNL     1     -38.698  21.322   2.193  0.00  0.00    -0.196 N 
ATOM     14  C   UNL     1     -38.381  22.406   1.418  0.00  0.00    +0.261 C 
ATOM     15  H   UNL     1     -38.018  20.820   2.697  0.00  0.00    +0.182 HD
BRANCH  13  16
ATOM     16  O   UNL     1     -40.056  20.973   2.224  0.00  0.00    -0.295 OA
ATOM     17  H   UNL     1     -40.404  21.109   3.119  0.00  0.00    +0.241 HD
ENDBRANCH  13  16
ENDBRANCH   7  14
ENDBRANCH   1   5
BRANCH   1  18
ATOM     18  C   UNL     1     -35.445  25.034   4.197  0.00  0.00    +0.122 C 
ATOM     19  C   UNL     1     -35.262  25.440   5.509  0.00  0.00    +0.023 C 
ATOM     20  C   UNL     1     -34.525  25.348   3.210  0.00  0.00    +0.023 C 
ATOM     21  C   UNL     1     -34.128  26.181   5.843  0.00  0.00    +0.038 C 
ATOM     22  C   UNL     1     -33.392  26.089   3.544  0.00  0.00    +0.038 C 
ATOM     23  C   UNL     1     -33.193  26.506   4.860  0.00  0.00    +0.140 C 
BRANCH  23  24
ATOM     24  O   UNL     1     -32.086  27.228   5.186  0.00  0.00    -0.461 OA
BRANCH  24  25
ATOM     25  C   UNL     1     -32.244  28.252   6.166  0.00  0.00    +0.281 C 
BRANCH  25  26
ATOM     26  C   UNL     1     -31.836  29.540   5.605  0.00  0.00    -0.044 C 
ATOM     27  C   UNL     1     -31.501  30.596   5.143  0.00  0.00    -0.086 C 
ATOM     28  C   UNL     1     -31.093  31.882   4.581  0.00  0.00    +0.090 C 
ENDBRANCH  25  26
ENDBRANCH  24  25
ENDBRANCH  23  24
ENDBRANCH   1  18
TORSDOF 7
ENDMDL
MODEL 4
REMARK VINA RESULT:      -5.8      3.748      7.166
REMARK  Name = 5288615
REMARK  7 active torsions:
REMARK  status: ('A' for Active; 'I' for Inactive)
REMARK    1  A    between atoms: S_1  and  N_5
REMARK    2  A    between atoms: S_1  and  C_18
REMARK    3  A    between atoms: C_7  and  C_14
REMARK    4  A    between atoms: N_13  and  O_16
REMARK    5  A    between atoms: C_23  and  O_24
REMARK    6  A    between atoms: O_24  and  C_25
REMARK    7  A    between atoms: C_25  and  C_26
REMARK                            x       y       z     vdW  Elec       q    Type
REMARK                         _______ _______ _______ _____ _____    ______ ____
ROOT
ATOM      1  S   UNL     1     -38.046  25.261   2.901  0.00  0.00    +0.064 S 
ATOM      2  O   UNL     1     -38.799  24.288   3.662  0.00  0.00    -0.153 OA
ATOM      3  O   UNL     1     -38.612  26.550   2.569  0.00  0.00    -0.153 OA
ENDROOT
BRANCH   1   5
ATOM      4  S   UNL     1     -36.788  23.091  -1.277  0.00  0.00    -0.139 S 
ATOM      5  N   UNL     1     -37.471  24.522   1.464  0.00  0.00    -0.146 NA
ATOM      6  C   UNL     1     -36.377  22.502   0.420  0.00  0.00    +0.063 C 
ATOM      7  C   UNL     1     -37.377  23.029   1.477  0.00  0.00    +0.166 C 
ATOM      8  C   UNL     1     -37.961  25.121   0.189  0.00  0.00    +0.108 C 
ATOM      9  C   UNL     1     -36.981  24.864  -0.943  0.00  0.00    +0.077 C 
ATOM     10  C   UNL     1     -34.944  22.953   0.768  0.00  0.00    +0.013 C 
ATOM     11  C   UNL     1     -36.388  20.963   0.375  0.00  0.00    +0.013 C 
BRANCH   7  14
ATOM     12  O   UNL     1     -39.547  22.852   0.507  0.00  0.00    -0.271 OA
ATOM     13  N   UNL     1     -39.024  21.504   2.310  0.00  0.00    -0.196 N 
ATOM     14  C   UNL     1     -38.764  22.467   1.371  0.00  0.00    +0.261 C 
ATOM     15  H   UNL     1     -38.357  21.233   2.981  0.00  0.00    +0.182 HD
BRANCH  13  16
ATOM     16  O   UNL     1     -40.302  20.930   2.255  0.00  0.00    -0.295 OA
ATOM     17  H   UNL     1     -40.341  20.170   2.856  0.00  0.00    +0.241 HD
ENDBRANCH  13  16
ENDBRANCH   7  14
ENDBRANCH   1   5
BRANCH   1  18
ATOM     18  C   UNL     1     -36.516  25.537   3.737  0.00  0.00    +0.122 C 
ATOM     19  C   UNL     1     -36.215  24.789   4.864  0.00  0.00    +0.023 C 
ATOM     20  C   UNL     1     -35.642  26.496   3.253  0.00  0.00    +0.023 C 
ATOM     21  C   UNL     1     -35.006  25.006   5.526  0.00  0.00    +0.038 C 
ATOM     22  C   UNL     1     -34.433  26.713   3.915  0.00  0.00    +0.038 C 
ATOM     23  C   UNL     1     -34.115  25.969   5.051  0.00  0.00    +0.140 C 
BRANCH  23  24
ATOM     24  O   UNL     1     -32.934  26.180   5.695  0.00  0.00    -0.461 OA
BRANCH  24  25
ATOM     25  C   UNL     1     -32.943  27.107   6.778  0.00  0.00    +0.281 C 
BRANCH  25  26
ATOM     26  C   UNL     1     -32.198  28.309   6.405  0.00  0.00    -0.044 C 
ATOM     27  C   UNL     1     -31.586  29.297   6.101  0.00  0.00    -0.086 C 
ATOM     28  C   UNL     1     -30.841  30.498   5.730  0.00  0.00    +0.090 C 
ENDBRANCH  25  26
ENDBRANCH  24  25
ENDBRANCH  23  24
ENDBRANCH   1  18
TORSDOF 7
ENDMDL
MODEL 5
REMARK VINA RESULT:      -5.8      3.631      5.338
REMARK  Name = 5288615
REMARK  7 active torsions:
REMARK  status: ('A' for Active; 'I' for Inactive)
REMARK    1  A    between atoms: S_1  and  N_5
REMARK    2  A    between atoms: S_1  and  C_18
REMARK    3  A    between atoms: C_7  and  C_14
REMARK    4  A    between atoms: N_13  and  O_16
REMARK    5  A    between atoms: C_23  and  O_24
REMARK    6  A    between atoms: O_24  and  C_25
REMARK    7  A    between atoms: C_25  and  C_26
REMARK                            x       y       z     vdW  Elec       q    Type
REMARK                         _______ _______ _______ _____ _____    ______ ____
ROOT
ATOM      1  S   UNL     1     -36.256  24.179   0.706  0.00  0.00    +0.064 S 
ATOM      2  O   UNL     1     -36.137  25.604   0.485  0.00  0.00    -0.153 OA
ATOM      3  O   UNL     1     -37.442  23.457   0.305  0.00  0.00    -0.153 OA
ENDROOT
BRANCH   1   5
ATOM      4  S   UNL     1     -35.724  23.147   5.439  0.00  0.00    -0.139 S 
ATOM      5  N   UNL     1     -35.933  23.842   2.356  0.00  0.00    -0.146 NA
ATOM      6  C   UNL     1     -35.410  24.778   4.640  0.00  0.00    +0.063 C 
ATOM      7  C   UNL     1     -36.210  24.946   3.327  0.00  0.00    +0.166 C 
ATOM      8  C   UNL     1     -36.305  22.475   2.821  0.00  0.00    +0.108 C 
ATOM      9  C   UNL     1     -35.461  22.058   4.013  0.00  0.00    +0.077 C 
ATOM     10  C   UNL     1     -33.899  24.914   4.368  0.00  0.00    +0.013 C 
ATOM     11  C   UNL     1     -35.804  25.861   5.663  0.00  0.00    +0.013 C 
BRANCH   7  14
ATOM     12  O   UNL     1     -38.381  24.089   3.812  0.00  0.00    -0.271 OA
ATOM     13  N   UNL     1     -38.164  26.332   3.292  0.00  0.00    -0.196 N 
ATOM     14  C   UNL     1     -37.696  25.060   3.501  0.00  0.00    +0.261 C 
ATOM     15  H   UNL     1     -37.568  27.074   3.044  0.00  0.00    +0.182 HD
BRANCH  13  16
ATOM     16  O   UNL     1     -39.545  26.505   3.452  0.00  0.00    -0.295 OA
ATOM     17  H   UNL     1     -39.724  27.406   3.762  0.00  0.00    +0.241 HD
ENDBRANCH  13  16
ENDBRANCH   7  14
ENDBRANCH   1   5
BRANCH   1  18
ATOM     18  C   UNL     1     -34.862  23.398  -0.044  0.00  0.00    +0.122 C 
ATOM     19  C   UNL     1     -35.062  22.309  -0.878  0.00  0.00    +0.023 C 
ATOM     20  C   UNL     1     -33.591  23.885   0.213  0.00  0.00    +0.023 C 
ATOM     21  C   UNL     1     -33.961  21.690  -1.470  0.00  0.00    +0.038 C 
ATOM     22  C   UNL     1     -32.490  23.266  -0.380  0.00  0.00    +0.038 C 
ATOM     23  C   UNL     1     -32.675  22.169  -1.221  0.00  0.00    +0.140 C 
BRANCH  23  24
ATOM     24  O   UNL     1     -31.601  21.567  -1.801  0.00  0.00    -0.461 OA
BRANCH  24  25
ATOM     25  C   UNL     1     -30.636  20.982  -0.929  0.00  0.00    +0.281 C 
BRANCH  25  26
ATOM     26  C   UNL     1     -31.273  19.955  -0.105  0.00  0.00    -0.044 C 
ATOM     27  C   UNL     1     -31.795  19.111   0.571  0.00  0.00    -0.086 C 
ATOM     28  C   UNL     1     -32.431  18.084   1.394  0.00  0.00    +0.090 C 
ENDBRANCH  25  26
ENDBRANCH  24  25
ENDBRANCH  23  24
ENDBRANCH   1  18
TORSDOF 7
ENDMDL
MODEL 6
REMARK VINA RESULT:      -5.8      3.383      7.320
REMARK  Name = 5288615
REMARK  7 active torsions:
REMARK  status: ('A' for Active; 'I' for Inactive)
REMARK    1  A    between atoms: S_1  and  N_5
REMARK    2  A    between atoms: S_1  and  C_18
REMARK    3  A    between atoms: C_7  and  C_14
REMARK    4  A    between atoms: N_13  and  O_16
REMARK    5  A    between atoms: C_23  and  O_24
REMARK    6  A    between atoms: O_24  and  C_25
REMARK    7  A    between atoms: C_25  and  C_26
REMARK                            x       y       z     vdW  Elec       q    Type
REMARK                         _______ _______ _______ _____ _____    ______ ____
ROOT
ATOM      1  S   UNL     1     -36.130  23.990   3.940  0.00  0.00    +0.064 S 
ATOM      2  O   UNL     1     -35.602  22.772   4.514  0.00  0.00    -0.153 OA
ATOM      3  O   UNL     1     -37.474  24.433   4.234  0.00  0.00    -0.153 OA
ENDROOT
BRANCH   1   5
ATOM      4  S   UNL     1     -35.873  23.630  -0.914  0.00  0.00    -0.139 S 
ATOM      5  N   UNL     1     -35.923  23.939   2.238  0.00  0.00    -0.146 NA
ATOM      6  C   UNL     1     -34.657  22.950   0.293  0.00  0.00    +0.063 C 
ATOM      7  C   UNL     1     -35.291  22.702   1.682  0.00  0.00    +0.166 C 
ATOM      8  C   UNL     1     -37.048  24.498   1.433  0.00  0.00    +0.108 C 
ATOM      9  C   UNL     1     -36.558  24.984   0.080  0.00  0.00    +0.077 C 
ATOM     10  C   UNL     1     -33.475  23.932   0.412  0.00  0.00    +0.013 C 
ATOM     11  C   UNL     1     -34.119  21.636  -0.305  0.00  0.00    +0.013 C 
BRANCH   7  14
ATOM     12  O   UNL     1     -37.279  21.587   0.985  0.00  0.00    -0.271 OA
ATOM     13  N   UNL     1     -35.995  20.629   2.653  0.00  0.00    -0.196 N 
ATOM     14  C   UNL     1     -36.301  21.594   1.728  0.00  0.00    +0.261 C 
ATOM     15  H   UNL     1     -35.196  20.686   3.223  0.00  0.00    +0.182 HD
BRANCH  13  16
ATOM     16  O   UNL     1     -36.896  19.558   2.735  0.00  0.00    -0.295 OA
ATOM     17  H   UNL     1     -37.639  19.714   2.132  0.00  0.00    +0.241 HD
ENDBRANCH  13  16
ENDBRANCH   7  14
ENDBRANCH   1   5
BRANCH   1  18
ATOM     18  C   UNL     1     -35.023  25.304   4.343  0.00  0.00    +0.122 C 
ATOM     19  C   UNL     1     -34.604  26.169   3.344  0.00  0.00    +0.023 C 
ATOM     20  C   UNL     1     -34.590  25.450   5.651  0.00  0.00    +0.023 C 
ATOM     21  C   UNL     1     -33.728  27.207   3.662  0.00  0.00    +0.038 C 
ATOM     22  C   UNL     1     -33.714  26.488   5.969  0.00  0.00    +0.038 C 
ATOM     23  C   UNL     1     -33.283  27.367   4.975  0.00  0.00    +0.140 C 
BRANCH  23  24
ATOM     24  O   UNL     1     -32.430  28.381   5.286  0.00  0.00    -0.461 OA
BRANCH  24  25
ATOM     25  C   UNL     1     -31.849  28.364   6.588  0.00  0.00    +0.281 C 
BRANCH  25  26
ATOM     26  C   UNL     1     -30.541  29.017   6.553  0.00  0.00    -0.044 C 
ATOM     27  C   UNL     1     -29.467  29.555   6.524  0.00  0.00    -0.086 C 
ATOM     28  C   UNL     1     -28.161  30.209   6.488  0.00  0.00    +0.090 C 
ENDBRANCH  25  26
ENDBRANCH  24  25
ENDBRANCH  23  24
ENDBRANCH   1  18
TORSDOF 7
ENDMDL
MODEL 7
REMARK VINA RESULT:      -5.8      5.696      8.682
REMARK  Name = 5288615
REMARK  7 active torsions:
REMARK  status: ('A' for Active; 'I' for Inactive)
REMARK    1  A    between atoms: S_1  and  N_5
REMARK    2  A    between atoms: S_1  and  C_18
REMARK    3  A    between atoms: C_7  and  C_14
REMARK    4  A    between atoms: N_13  and  O_16
REMARK    5  A    between atoms: C_23  and  O_24
REMARK    6  A    between atoms: O_24  and  C_25
REMARK    7  A    between atoms: C_25  and  C_26
REMARK                            x       y       z     vdW  Elec       q    Type
REMARK                         _______ _______ _______ _____ _____    ______ ____
ROOT
ATOM      1  S   UNL     1     -38.979  23.336   1.438  0.00  0.00    +0.064 S 
ATOM      2  O   UNL     1     -39.468  22.244   2.251  0.00  0.00    -0.153 OA
ATOM      3  O   UNL     1     -38.863  23.206   0.003  0.00  0.00    -0.153 OA
ENDROOT
BRANCH   1   5
ATOM      4  S   UNL     1     -34.534  24.608   2.980  0.00  0.00    -0.139 S 
ATOM      5  N   UNL     1     -37.477  23.872   2.069  0.00  0.00    -0.146 NA
ATOM      6  C   UNL     1     -35.840  23.785   3.987  0.00  0.00    +0.063 C 
ATOM      7  C   UNL     1     -36.845  23.002   3.110  0.00  0.00    +0.166 C 
ATOM      8  C   UNL     1     -36.535  24.467   1.078  0.00  0.00    +0.108 C 
ATOM      9  C   UNL     1     -35.579  25.437   1.751  0.00  0.00    +0.077 C 
ATOM     10  C   UNL     1     -36.575  24.857   4.816  0.00  0.00    +0.013 C 
ATOM     11  C   UNL     1     -35.120  22.842   4.970  0.00  0.00    +0.013 C 
BRANCH   7  14
ATOM     12  O   UNL     1     -35.232  21.838   1.796  0.00  0.00    -0.271 OA
ATOM     13  N   UNL     1     -37.046  20.666   2.621  0.00  0.00    -0.196 N 
ATOM     14  C   UNL     1     -36.281  21.787   2.433  0.00  0.00    +0.261 C 
ATOM     15  H   UNL     1     -37.880  20.683   3.143  0.00  0.00    +0.182 HD
BRANCH  13  16
ATOM     16  O   UNL     1     -36.564  19.494   2.022  0.00  0.00    -0.295 OA
ATOM     17  H   UNL     1     -37.268  18.827   2.006  0.00  0.00    +0.241 HD
ENDBRANCH  13  16
ENDBRANCH   7  14
ENDBRANCH   1   5
BRANCH   1  18
ATOM     18  C   UNL     1     -39.976  24.753   1.779  0.00  0.00    +0.122 C 
ATOM     19  C   UNL     1     -40.169  25.146   3.094  0.00  0.00    +0.023 C 
ATOM     20  C   UNL     1     -40.549  25.448   0.727  0.00  0.00    +0.023 C 
ATOM     21  C   UNL     1     -40.957  26.265   3.363  0.00  0.00    +0.038 C 
ATOM     22  C   UNL     1     -41.337  26.567   0.996  0.00  0.00    +0.038 C 
ATOM     23  C   UNL     1     -41.541  26.975   2.315  0.00  0.00    +0.140 C 
BRANCH  23  24
ATOM     24  O   UNL     1     -42.309  28.069   2.577  0.00  0.00    -0.461 OA
BRANCH  24  25
ATOM     25  C   UNL     1     -43.470  27.868   3.379  0.00  0.00    +0.281 C 
BRANCH  25  26
ATOM     26  C   UNL     1     -43.491  28.842   4.471  0.00  0.00    -0.044 C 
ATOM     27  C   UNL     1     -43.507  29.642   5.366  0.00  0.00    -0.086 C 
ATOM     28  C   UNL     1     -43.526  30.615   6.456  0.00  0.00    +0.090 C 
ENDBRANCH  25  26
ENDBRANCH  24  25
ENDBRANCH  23  24
ENDBRANCH   1  18
TORSDOF 7
ENDMDL
MODEL 8
REMARK VINA RESULT:      -5.7      3.378      7.362
REMARK  Name = 5288615
REMARK  7 active torsions:
REMARK  status: ('A' for Active; 'I' for Inactive)
REMARK    1  A    between atoms: S_1  and  N_5
REMARK    2  A    between atoms: S_1  and  C_18
REMARK    3  A    between atoms: C_7  and  C_14
REMARK    4  A    between atoms: N_13  and  O_16
REMARK    5  A    between atoms: C_23  and  O_24
REMARK    6  A    between atoms: O_24  and  C_25
REMARK    7  A    between atoms: C_25  and  C_26
REMARK                            x       y       z     vdW  Elec       q    Type
REMARK                         _______ _______ _______ _____ _____    ______ ____
ROOT
ATOM      1  S   UNL     1     -36.186  22.726   3.247  0.00  0.00    +0.064 S 
ATOM      2  O   UNL     1     -35.534  21.521   3.710  0.00  0.00    -0.153 OA
ATOM      3  O   UNL     1     -37.605  22.929   3.437  0.00  0.00    -0.153 OA
ENDROOT
BRANCH   1   5
ATOM      4  S   UNL     1     -35.452  23.207  -1.547  0.00  0.00    -0.139 S 
ATOM      5  N   UNL     1     -35.809  22.962   1.590  0.00  0.00    -0.146 NA
ATOM      6  C   UNL     1     -34.395  22.254  -0.375  0.00  0.00    +0.063 C 
ATOM      7  C   UNL     1     -35.177  21.806   0.882  0.00  0.00    +0.166 C 
ATOM      8  C   UNL     1     -36.821  23.720   0.799  0.00  0.00    +0.108 C 
ATOM      9  C   UNL     1     -36.177  24.404  -0.394  0.00  0.00    +0.077 C 
ATOM     10  C   UNL     1     -33.190  23.128   0.027  0.00  0.00    +0.013 C 
ATOM     11  C   UNL     1     -33.855  21.036  -1.148  0.00  0.00    +0.013 C 
BRANCH   7  14
ATOM     12  O   UNL     1     -37.168  20.978  -0.134  0.00  0.00    -0.271 OA
ATOM     13  N   UNL     1     -36.017  19.609   1.331  0.00  0.00    -0.196 N 
ATOM     14  C   UNL     1     -36.232  20.769   0.633  0.00  0.00    +0.261 C 
ATOM     15  H   UNL     1     -35.248  19.495   1.934  0.00  0.00    +0.182 HD
BRANCH  13  16
ATOM     16  O   UNL     1     -36.964  18.595   1.131  0.00  0.00    -0.295 OA
ATOM     17  H   UNL     1     -37.730  18.751   1.704  0.00  0.00    +0.241 HD
ENDBRANCH  13  16
ENDBRANCH   7  14
ENDBRANCH   1   5
BRANCH   1  18
ATOM     18  C   UNL     1     -35.339  24.105   3.952  0.00  0.00    +0.122 C 
ATOM     19  C   UNL     1     -34.302  24.696   3.249  0.00  0.00    +0.023 C 
ATOM     20  C   UNL     1     -35.725  24.575   5.197  0.00  0.00    +0.023 C 
ATOM     21  C   UNL     1     -33.632  25.786   3.806  0.00  0.00    +0.038 C 
ATOM     22  C   UNL     1     -35.055  25.664   5.754  0.00  0.00    +0.038 C 
ATOM     23  C   UNL     1     -34.009  26.270   5.058  0.00  0.00    +0.140 C 
BRANCH  23  24
ATOM     24  O   UNL     1     -33.356  27.334   5.601  0.00  0.00    -0.461 OA
BRANCH  24  25
ATOM     25  C   UNL     1     -32.439  28.031   4.761  0.00  0.00    +0.281 C 
BRANCH  25  26
ATOM     26  C   UNL     1     -31.308  28.511   5.555  0.00  0.00    -0.044 C 
ATOM     27  C   UNL     1     -30.381  28.905   6.208  0.00  0.00    -0.086 C 
ATOM     28  C   UNL     1     -29.252  29.385   7.003  0.00  0.00    +0.090 C 
ENDBRANCH  25  26
ENDBRANCH  24  25
ENDBRANCH  23  24
ENDBRANCH   1  18
TORSDOF 7
ENDMDL
MODEL 9
REMARK VINA RESULT:      -5.7      3.088      4.798
REMARK  Name = 5288615
REMARK  7 active torsions:
REMARK  status: ('A' for Active; 'I' for Inactive)
REMARK    1  A    between atoms: S_1  and  N_5
REMARK    2  A    between atoms: S_1  and  C_18
REMARK    3  A    between atoms: C_7  and  C_14
REMARK    4  A    between atoms: N_13  and  O_16
REMARK    5  A    between atoms: C_23  and  O_24
REMARK    6  A    between atoms: O_24  and  C_25
REMARK    7  A    between atoms: C_25  and  C_26
REMARK                            x       y       z     vdW  Elec       q    Type
REMARK                         _______ _______ _______ _____ _____    ______ ____
ROOT
ATOM      1  S   UNL     1     -36.463  22.670   1.880  0.00  0.00    +0.064 S 
ATOM      2  O   UNL     1     -36.813  23.509   0.754  0.00  0.00    -0.153 OA
ATOM      3  O   UNL     1     -37.454  21.847   2.535  0.00  0.00    -0.153 OA
ENDROOT
BRANCH   1   5
ATOM      4  S   UNL     1     -34.550  25.414   5.424  0.00  0.00    -0.139 S 
ATOM      5  N   UNL     1     -35.668  23.627   3.061  0.00  0.00    -0.146 NA
ATOM      6  C   UNL     1     -34.686  25.877   3.645  0.00  0.00    +0.063 C 
ATOM      7  C   UNL     1     -35.823  25.109   2.930  0.00  0.00    +0.166 C 
ATOM      8  C   UNL     1     -35.713  23.101   4.455  0.00  0.00    +0.108 C 
ATOM      9  C   UNL     1     -34.532  23.607   5.266  0.00  0.00    +0.077 C 
ATOM     10  C   UNL     1     -33.336  25.597   2.956  0.00  0.00    +0.013 C 
ATOM     11  C   UNL     1     -34.935  27.396   3.595  0.00  0.00    +0.013 C 
BRANCH   7  14
ATOM     12  O   UNL     1     -37.668  25.091   4.439  0.00  0.00    -0.271 OA
ATOM     13  N   UNL     1     -37.859  26.281   2.466  0.00  0.00    -0.196 N 
ATOM     14  C   UNL     1     -37.209  25.480   3.368  0.00  0.00    +0.261 C 
ATOM     15  H   UNL     1     -37.443  26.563   1.620  0.00  0.00    +0.182 HD
BRANCH  13  16
ATOM     16  O   UNL     1     -39.157  26.672   2.824  0.00  0.00    -0.295 OA
ATOM     17  H   UNL     1     -39.112  27.455   3.394  0.00  0.00    +0.241 HD
ENDBRANCH  13  16
ENDBRANCH   7  14
ENDBRANCH   1   5
BRANCH   1  18
ATOM     18  C   UNL     1     -35.129  21.626   1.383  0.00  0.00    +0.122 C 
ATOM     19  C   UNL     1     -34.173  22.117   0.508  0.00  0.00    +0.023 C 
ATOM     20  C   UNL     1     -35.059  20.334   1.876  0.00  0.00    +0.023 C 
ATOM     21  C   UNL     1     -33.119  21.293   0.115  0.00  0.00    +0.038 C 
ATOM     22  C   UNL     1     -34.005  19.509   1.483  0.00  0.00    +0.038 C 
ATOM     23  C   UNL     1     -33.035  19.988   0.602  0.00  0.00    +0.140 C 
BRANCH  23  24
ATOM     24  O   UNL     1     -32.005  19.184   0.220  0.00  0.00    -0.461 OA
BRANCH  24  25
ATOM     25  C   UNL     1     -31.730  18.050   1.039  0.00  0.00    +0.281 C 
BRANCH  25  26
ATOM     26  C   UNL     1     -30.288  17.808   1.079  0.00  0.00    -0.044 C 
ATOM     27  C   UNL     1     -29.103  17.612   1.112  0.00  0.00    -0.086 C 
ATOM     28  C   UNL     1     -27.662  17.372   1.153  0.00  0.00    +0.090 C 
ENDBRANCH  25  26
ENDBRANCH  24  25
ENDBRANCH  23  24
ENDBRANCH   1  18
TORSDOF 7
ENDMDL
