MODEL 1
REMARK VINA RESULT:      -6.0      0.000      0.000
REMARK  Name = 5464343
REMARK  11 active torsions:
REMARK  status: ('A' for Active; 'I' for Inactive)
REMARK    1  A    between atoms: N_1  and  C_4
REMARK    2  A    between atoms: N_1  and  C_19
REMARK    3  A    between atoms: C_4  and  C_12
REMARK    4  A    between atoms: C_10  and  C_16
REMARK    5  A    between atoms: C_16  and  O_17
REMARK    6  A    between atoms: C_19  and  C_21
REMARK    7  A    between atoms: C_19  and  C_25
REMARK    8  A    between atoms: C_21  and  O_22
REMARK    9  A    between atoms: O_22  and  C_23
REMARK   10  A    between atoms: C_25  and  C_26
REMARK   11  A    between atoms: C_26  and  C_27
REMARK                            x       y       z     vdW  Elec       q    Type
REMARK                         _______ _______ _______ _____ _____    ______ ____
ROOT
ATOM      1  N   UNK A   1     -37.036  22.123   3.536  0.00  0.00    +0.399 N 
ATOM      2  H   UNK A   1     -37.394  21.199   3.776  0.00  0.00    -0.083 HD
ATOM      3  H   UNK A   1     -37.203  22.782   4.297  0.00  0.00    -0.083 HD
ENDROOT
BRANCH   1   4
ATOM      4  C   UNK A   1     -37.722  22.606   2.349  0.00  0.00    +0.018 C 
ATOM      5  C   UNK A   1     -38.937  21.754   2.040  0.00  0.00    -0.014 C 
BRANCH   4  12
ATOM      6  O   UNK A   1     -38.699  24.312   3.692  0.00  0.00    -0.277 OA
ATOM      7  O   UNK A   1     -36.918  23.699  -0.197  0.00  0.00    -0.252 OA
ATOM      8  N   UNK A   1     -37.852  24.951   1.618  0.00  0.00    -0.205 N 
ATOM      9  N   UNK A   1     -36.985  26.048  -0.192  0.00  0.00    -0.260 N 
ATOM     10  C   UNK A   1     -38.165  26.365   1.791  0.00  0.00    +0.202 C 
ATOM     11  C   UNK A   1     -37.328  27.089   0.751  0.00  0.00    +0.127 C 
ATOM     12  C   UNK A   1     -38.142  24.024   2.631  0.00  0.00    +0.213 C 
ATOM     13  C   UNK A   1     -37.212  24.760   0.336  0.00  0.00    +0.313 C 
ATOM     14  C   UNK A   1     -36.305  26.339  -1.435  0.00  0.00    +0.117 C 
BRANCH  10  16
ATOM     15  O   UNK A   1     -40.115  26.512   0.366  0.00  0.00    -0.248 OA
ATOM     16  C   UNK A   1     -39.628  26.510   1.487  0.00  0.00    +0.334 C 
BRANCH  16  17
ATOM     17  O   UNK A   1     -40.343  26.643   2.630  0.00  0.00    -0.479 OA
ATOM     18  H   UNK A   1     -40.654  25.882   3.079  0.00  0.00    +0.295 HD
ENDBRANCH  16  17
ENDBRANCH  10  16
ENDBRANCH   4  12
ENDBRANCH   1   4
BRANCH   1  19
ATOM     19  C   UNK A   0     -35.598  22.032   3.310  0.00  0.00    +0.041 C 
BRANCH  19  21
ATOM     20  O   UNK A   0     -34.543  24.144   2.687  0.00  0.00    -0.252 OA
ATOM     21  C   UNK A   0     -35.010  23.412   3.551  0.00  0.00    +0.297 C 
BRANCH  21  22
ATOM     22  O   UNK A   0     -35.092  23.708   4.884  0.00  0.00    -0.450 OA
BRANCH  22  23
ATOM     23  C   UNK A   0     -34.708  25.039   5.246  0.00  0.00    +0.208 C 
ATOM     24  C   UNK A   0     -35.954  25.856   5.512  0.00  0.00    +0.051 C 
ENDBRANCH  22  23
ENDBRANCH  21  22
ENDBRANCH  19  21
BRANCH  19  25
ATOM     25  C   UNK A   0     -35.275  21.575   1.878  0.00  0.00    -0.006 C 
BRANCH  25  26
ATOM     26  C   UNK A   0     -35.039  20.067   1.710  0.00  0.00    +0.025 C 
BRANCH  26  27
ATOM     27  C   UNK A   0     -33.666  19.722   1.190  0.00  0.00    -0.022 C 
ATOM     28  C   UNK A   0     -32.998  20.628   0.379  0.00  0.00    -0.004 C 
ATOM     29  C   UNK A   0     -33.094  18.506   1.531  0.00  0.00    -0.004 C 
ATOM     30  C   UNK A   0     -31.729  20.308  -0.103  0.00  0.00    -0.000 C 
ATOM     31  C   UNK A   0     -31.824  18.187   1.049  0.00  0.00    -0.000 C 
ATOM     32  C   UNK A   0     -31.141  19.088   0.233  0.00  0.00    -0.000 C 
ENDBRANCH  26  27
ENDBRANCH  25  26
ENDBRANCH  19  25
ENDBRANCH   1  19
TORSDOF 11
ENDMDL
MODEL 2
REMARK VINA RESULT:      -5.9      1.515      1.732
REMARK  Name = 5464343
REMARK  11 active torsions:
REMARK  status: ('A' for Active; 'I' for Inactive)
REMARK    1  A    between atoms: N_1  and  C_4
REMARK    2  A    between atoms: N_1  and  C_19
REMARK    3  A    between atoms: C_4  and  C_12
REMARK    4  A    between atoms: C_10  and  C_16
REMARK    5  A    between atoms: C_16  and  O_17
REMARK    6  A    between atoms: C_19  and  C_21
REMARK    7  A    between atoms: C_19  and  C_25
REMARK    8  A    between atoms: C_21  and  O_22
REMARK    9  A    between atoms: O_22  and  C_23
REMARK   10  A    between atoms: C_25  and  C_26
REMARK   11  A    between atoms: C_26  and  C_27
REMARK                            x       y       z     vdW  Elec       q    Type
REMARK                         _______ _______ _______ _____ _____    ______ ____
ROOT
ATOM      1  N   UNK A   1     -37.345  21.046   2.597  0.00  0.00    +0.399 N 
ATOM      2  H   UNK A   1     -37.565  20.050   2.585  0.00  0.00    -0.083 HD
ATOM      3  H   UNK A   1     -37.841  21.514   3.356  0.00  0.00    -0.083 HD
ENDROOT
BRANCH   1   4
ATOM      4  C   UNK A   1     -37.763  21.640   1.338  0.00  0.00    +0.018 C 
ATOM      5  C   UNK A   1     -38.189  20.574   0.348  0.00  0.00    -0.014 C 
BRANCH   4  12
ATOM      6  O   UNK A   1     -39.918  22.123   2.226  0.00  0.00    -0.277 OA
ATOM      7  O   UNK A   1     -36.682  23.985   0.050  0.00  0.00    -0.252 OA
ATOM      8  N   UNK A   1     -38.765  23.885   1.229  0.00  0.00    -0.205 N 
ATOM      9  N   UNK A   1     -37.935  25.907   0.557  0.00  0.00    -0.260 N 
ATOM     10  C   UNK A   1     -39.794  24.878   1.511  0.00  0.00    +0.202 C 
ATOM     11  C   UNK A   1     -39.109  26.222   1.342  0.00  0.00    +0.127 C 
ATOM     12  C   UNK A   1     -38.921  22.553   1.645  0.00  0.00    +0.213 C 
ATOM     13  C   UNK A   1     -37.663  24.524   0.545  0.00  0.00    +0.313 C 
ATOM     14  C   UNK A   1     -37.066  26.940   0.037  0.00  0.00    +0.117 C 
BRANCH  10  16
ATOM     15  O   UNK A   1     -40.786  25.092  -0.685  0.00  0.00    -0.248 OA
ATOM     16  C   UNK A   1     -40.855  24.689   0.467  0.00  0.00    +0.334 C 
BRANCH  16  17
ATOM     17  O   UNK A   1     -41.912  24.009   0.975  0.00  0.00    -0.479 OA
ATOM     18  H   UNK A   1     -42.136  23.167   0.630  0.00  0.00    +0.295 HD
ENDBRANCH  16  17
ENDBRANCH  10  16
ENDBRANCH   4  12
ENDBRANCH   1   4
BRANCH   1  19
ATOM     19  C   UNK A   0     -35.912  21.215   2.807  0.00  0.00    +0.041 C 
BRANCH  19  21
ATOM     20  O   UNK A   0     -34.956  23.460   2.722  0.00  0.00    -0.252 OA
ATOM     21  C   UNK A   0     -35.684  22.644   3.272  0.00  0.00    +0.297 C 
BRANCH  21  22
ATOM     22  O   UNK A   0     -36.428  22.873   4.397  0.00  0.00    -0.450 OA
BRANCH  22  23
ATOM     23  C   UNK A   0     -35.692  23.314   5.543  0.00  0.00    +0.208 C 
ATOM     24  C   UNK A   0     -35.289  22.107   6.363  0.00  0.00    +0.051 C 
ENDBRANCH  22  23
ENDBRANCH  21  22
ENDBRANCH  19  21
BRANCH  19  25
ATOM     25  C   UNK A   0     -35.114  20.957   1.519  0.00  0.00    -0.006 C 
BRANCH  25  26
ATOM     26  C   UNK A   0     -34.703  19.496   1.285  0.00  0.00    +0.025 C 
BRANCH  26  27
ATOM     27  C   UNK A   0     -33.253  19.326   0.908  0.00  0.00    -0.022 C 
ATOM     28  C   UNK A   0     -32.621  20.317   0.172  0.00  0.00    -0.004 C 
ATOM     29  C   UNK A   0     -32.576  18.183   1.303  0.00  0.00    -0.004 C 
ATOM     30  C   UNK A   0     -31.280  20.159  -0.178  0.00  0.00    -0.000 C 
ATOM     31  C   UNK A   0     -31.234  18.026   0.955  0.00  0.00    -0.000 C 
ATOM     32  C   UNK A   0     -30.586  19.014   0.214  0.00  0.00    -0.000 C 
ENDBRANCH  26  27
ENDBRANCH  25  26
ENDBRANCH  19  25
ENDBRANCH   1  19
TORSDOF 11
ENDMDL
MODEL 3
REMARK VINA RESULT:      -5.9      1.719      3.496
REMARK  Name = 5464343
REMARK  11 active torsions:
REMARK  status: ('A' for Active; 'I' for Inactive)
REMARK    1  A    between atoms: N_1  and  C_4
REMARK    2  A    between atoms: N_1  and  C_19
REMARK    3  A    between atoms: C_4  and  C_12
REMARK    4  A    between atoms: C_10  and  C_16
REMARK    5  A    between atoms: C_16  and  O_17
REMARK    6  A    between atoms: C_19  and  C_21
REMARK    7  A    between atoms: C_19  and  C_25
REMARK    8  A    between atoms: C_21  and  O_22
REMARK    9  A    between atoms: O_22  and  C_23
REMARK   10  A    between atoms: C_25  and  C_26
REMARK   11  A    between atoms: C_26  and  C_27
REMARK                            x       y       z     vdW  Elec       q    Type
REMARK                         _______ _______ _______ _____ _____    ______ ____
ROOT
ATOM      1  N   UNK A   1     -36.584  22.275   3.884  0.00  0.00    +0.399 N 
ATOM      2  H   UNK A   1     -37.405  22.708   3.462  0.00  0.00    -0.083 HD
ATOM      3  H   UNK A   1     -36.838  21.399   4.342  0.00  0.00    -0.083 HD
ENDROOT
BRANCH   1   4
ATOM      4  C   UNK A   1     -36.032  23.175   4.883  0.00  0.00    +0.018 C 
ATOM      5  C   UNK A   1     -35.063  22.446   5.794  0.00  0.00    -0.014 C 
BRANCH   4  12
ATOM      6  O   UNK A   1     -34.089  24.353   4.174  0.00  0.00    -0.277 OA
ATOM      7  O   UNK A   1     -38.400  24.511   3.917  0.00  0.00    -0.252 OA
ATOM      8  N   UNK A   1     -36.145  25.156   3.430  0.00  0.00    -0.205 N 
ATOM      9  N   UNK A   1     -37.878  26.146   2.312  0.00  0.00    -0.260 N 
ATOM     10  C   UNK A   1     -35.572  26.232   2.630  0.00  0.00    +0.202 C 
ATOM     11  C   UNK A   1     -36.680  26.661   1.685  0.00  0.00    +0.127 C 
ATOM     12  C   UNK A   1     -35.318  24.272   4.139  0.00  0.00    +0.213 C 
ATOM     13  C   UNK A   1     -37.584  25.183   3.300  0.00  0.00    +0.313 C 
ATOM     14  C   UNK A   1     -39.197  26.461   1.810  0.00  0.00    +0.117 C 
BRANCH  10  16
ATOM     15  O   UNK A   1     -34.750  28.412   3.279  0.00  0.00    -0.248 OA
ATOM     16  C   UNK A   1     -35.238  27.335   3.590  0.00  0.00    +0.334 C 
BRANCH  16  17
ATOM     17  O   UNK A   1     -35.548  26.977   4.859  0.00  0.00    -0.479 OA
ATOM     18  H   UNK A   1     -36.428  26.736   5.076  0.00  0.00    +0.295 HD
ENDBRANCH  16  17
ENDBRANCH  10  16
ENDBRANCH   4  12
ENDBRANCH   1   4
BRANCH   1  19
ATOM     19  C   UNK A   0     -35.607  21.986   2.841  0.00  0.00    +0.041 C 
BRANCH  19  21
ATOM     20  O   UNK A   0     -35.676  22.870   0.566  0.00  0.00    -0.252 OA
ATOM     21  C   UNK A   0     -36.247  22.333   1.507  0.00  0.00    +0.297 C 
BRANCH  21  22
ATOM     22  O   UNK A   0     -37.558  21.944   1.524  0.00  0.00    -0.450 OA
BRANCH  22  23
ATOM     23  C   UNK A   0     -38.449  22.740   0.736  0.00  0.00    +0.208 C 
ATOM     24  C   UNK A   0     -39.838  22.658   1.330  0.00  0.00    +0.051 C 
ENDBRANCH  22  23
ENDBRANCH  21  22
ENDBRANCH  19  21
BRANCH  19  25
ATOM     25  C   UNK A   0     -35.191  20.506   2.846  0.00  0.00    -0.006 C 
BRANCH  25  26
ATOM     26  C   UNK A   0     -35.056  19.859   1.460  0.00  0.00    +0.025 C 
BRANCH  26  27
ATOM     27  C   UNK A   0     -33.631  19.581   1.057  0.00  0.00    -0.022 C 
ATOM     28  C   UNK A   0     -32.936  20.524   0.314  0.00  0.00    -0.004 C 
ATOM     29  C   UNK A   0     -33.037  18.386   1.435  0.00  0.00    -0.004 C 
ATOM     30  C   UNK A   0     -31.618  20.265  -0.060  0.00  0.00    -0.000 C 
ATOM     31  C   UNK A   0     -31.717  18.128   1.062  0.00  0.00    -0.000 C 
ATOM     32  C   UNK A   0     -31.008  19.067   0.314  0.00  0.00    -0.000 C 
ENDBRANCH  26  27
ENDBRANCH  25  26
ENDBRANCH  19  25
ENDBRANCH   1  19
TORSDOF 11
ENDMDL
MODEL 4
REMARK VINA RESULT:      -5.9      1.951      4.742
REMARK  Name = 5464343
REMARK  11 active torsions:
REMARK  status: ('A' for Active; 'I' for Inactive)
REMARK    1  A    between atoms: N_1  and  C_4
REMARK    2  A    between atoms: N_1  and  C_19
REMARK    3  A    between atoms: C_4  and  C_12
REMARK    4  A    between atoms: C_10  and  C_16
REMARK    5  A    between atoms: C_16  and  O_17
REMARK    6  A    between atoms: C_19  and  C_21
REMARK    7  A    between atoms: C_19  and  C_25
REMARK    8  A    between atoms: C_21  and  O_22
REMARK    9  A    between atoms: O_22  and  C_23
REMARK   10  A    between atoms: C_25  and  C_26
REMARK   11  A    between atoms: C_26  and  C_27
REMARK                            x       y       z     vdW  Elec       q    Type
REMARK                         _______ _______ _______ _____ _____    ______ ____
ROOT
ATOM      1  N   UNK A   1     -37.422  20.746   1.971  0.00  0.00    +0.399 N 
ATOM      2  H   UNK A   1     -37.576  19.745   1.855  0.00  0.00    -0.083 HD
ATOM      3  H   UNK A   1     -37.689  21.043   2.910  0.00  0.00    -0.083 HD
ENDROOT
BRANCH   1   4
ATOM      4  C   UNK A   1     -38.237  21.468   1.009  0.00  0.00    +0.018 C 
ATOM      5  C   UNK A   1     -38.936  20.512   0.063  0.00  0.00    -0.014 C 
BRANCH   4  12
ATOM      6  O   UNK A   1     -40.241  21.693   2.274  0.00  0.00    -0.277 OA
ATOM      7  O   UNK A   1     -37.009  24.054   0.644  0.00  0.00    -0.252 OA
ATOM      8  N   UNK A   1     -38.983  23.624   1.931  0.00  0.00    -0.205 N 
ATOM      9  N   UNK A   1     -37.989  25.681   2.028  0.00  0.00    -0.260 N 
ATOM     10  C   UNK A   1     -39.865  24.483   2.711  0.00  0.00    +0.202 C 
ATOM     11  C   UNK A   1     -39.049  25.727   3.010  0.00  0.00    +0.127 C 
ATOM     12  C   UNK A   1     -39.254  22.253   1.796  0.00  0.00    +0.213 C 
ATOM     13  C   UNK A   1     -37.878  24.409   1.430  0.00  0.00    +0.313 C 
ATOM     14  C   UNK A   1     -37.055  26.773   1.861  0.00  0.00    +0.117 C 
BRANCH  10  16
ATOM     15  O   UNK A   1     -41.559  24.033   1.044  0.00  0.00    -0.248 OA
ATOM     16  C   UNK A   1     -41.026  24.813   1.818  0.00  0.00    +0.334 C 
BRANCH  16  17
ATOM     17  O   UNK A   1     -41.406  26.103   1.983  0.00  0.00    -0.479 OA
ATOM     18  H   UNK A   1     -40.836  26.797   1.716  0.00  0.00    +0.295 HD
ENDBRANCH  16  17
ENDBRANCH  10  16
ENDBRANCH   4  12
ENDBRANCH   1   4
BRANCH   1  19
ATOM     19  C   UNK A   0     -36.005  21.035   1.780  0.00  0.00    +0.041 C 
BRANCH  19  21
ATOM     20  O   UNK A   0     -35.764  19.010   0.437  0.00  0.00    -0.252 OA
ATOM     21  C   UNK A   0     -35.337  19.754   1.311  0.00  0.00    +0.297 C 
BRANCH  21  22
ATOM     22  O   UNK A   0     -34.179  19.568   2.016  0.00  0.00    -0.450 OA
BRANCH  22  23
ATOM     23  C   UNK A   0     -33.186  18.764   1.371  0.00  0.00    +0.208 C 
ATOM     24  C   UNK A   0     -32.268  19.663   0.572  0.00  0.00    +0.051 C 
ENDBRANCH  22  23
ENDBRANCH  21  22
ENDBRANCH  19  21
BRANCH  19  25
ATOM     25  C   UNK A   0     -35.343  21.519   3.080  0.00  0.00    -0.006 C 
BRANCH  25  26
ATOM     26  C   UNK A   0     -36.207  22.441   3.951  0.00  0.00    +0.025 C 
BRANCH  26  27
ATOM     27  C   UNK A   0     -35.592  23.796   4.196  0.00  0.00    -0.022 C 
ATOM     28  C   UNK A   0     -36.080  24.590   5.222  0.00  0.00    -0.004 C 
ATOM     29  C   UNK A   0     -34.548  24.225   3.390  0.00  0.00    -0.004 C 
ATOM     30  C   UNK A   0     -35.511  25.844   5.447  0.00  0.00    -0.000 C 
ATOM     31  C   UNK A   0     -33.978  25.479   3.616  0.00  0.00    -0.000 C 
ATOM     32  C   UNK A   0     -34.460  26.288   4.645  0.00  0.00    -0.000 C 
ENDBRANCH  26  27
ENDBRANCH  25  26
ENDBRANCH  19  25
ENDBRANCH   1  19
TORSDOF 11
ENDMDL
MODEL 5
REMARK VINA RESULT:      -5.9      2.287      4.376
REMARK  Name = 5464343
REMARK  11 active torsions:
REMARK  status: ('A' for Active; 'I' for Inactive)
REMARK    1  A    between atoms: N_1  and  C_4
REMARK    2  A    between atoms: N_1  and  C_19
REMARK    3  A    between atoms: C_4  and  C_12
REMARK    4  A    between atoms: C_10  and  C_16
REMARK    5  A    between atoms: C_16  and  O_17
REMARK    6  A    between atoms: C_19  and  C_21
REMARK    7  A    between atoms: C_19  and  C_25
REMARK    8  A    between atoms: C_21  and  O_22
REMARK    9  A    between atoms: O_22  and  C_23
REMARK   10  A    between atoms: C_25  and  C_26
REMARK   11  A    between atoms: C_26  and  C_27
REMARK                            x       y       z     vdW  Elec       q    Type
REMARK                         _______ _______ _______ _____ _____    ______ ____
ROOT
ATOM      1  N   UNK A   1     -37.776  22.268   2.914  0.00  0.00    +0.399 N 
ATOM      2  H   UNK A   1     -38.656  22.101   3.403  0.00  0.00    -0.083 HD
ATOM      3  H   UNK A   1     -37.007  21.795   3.389  0.00  0.00    -0.083 HD
ENDROOT
BRANCH   1   4
ATOM      4  C   UNK A   1     -37.502  23.695   2.902  0.00  0.00    +0.018 C 
ATOM      5  C   UNK A   1     -38.738  24.489   3.281  0.00  0.00    -0.014 C 
BRANCH   4  12
ATOM      6  O   UNK A   1     -36.393  23.340   4.978  0.00  0.00    -0.277 OA
ATOM      7  O   UNK A   1     -36.146  25.753   1.402  0.00  0.00    -0.252 OA
ATOM      8  N   UNK A   1     -35.432  24.876   3.513  0.00  0.00    -0.205 N 
ATOM      9  N   UNK A   1     -34.052  26.269   2.336  0.00  0.00    -0.260 N 
ATOM     10  C   UNK A   1     -34.291  25.165   4.373  0.00  0.00    +0.202 C 
ATOM     11  C   UNK A   1     -33.268  25.829   3.468  0.00  0.00    +0.127 C 
ATOM     12  C   UNK A   1     -36.404  23.941   3.903  0.00  0.00    +0.213 C 
ATOM     13  C   UNK A   1     -35.318  25.648   2.297  0.00  0.00    +0.313 C 
ATOM     14  C   UNK A   1     -33.487  27.091   1.288  0.00  0.00    +0.117 C 
BRANCH  10  16
ATOM     15  O   UNK A   1     -35.946  26.479   5.550  0.00  0.00    -0.248 OA
ATOM     16  C   UNK A   1     -34.783  26.129   5.412  0.00  0.00    +0.334 C 
BRANCH  16  17
ATOM     17  O   UNK A   1     -33.758  26.567   6.184  0.00  0.00    -0.479 OA
ATOM     18  H   UNK A   1     -33.714  26.321   7.087  0.00  0.00    +0.295 HD
ENDBRANCH  16  17
ENDBRANCH  10  16
ENDBRANCH   4  12
ENDBRANCH   1   4
BRANCH   1  19
ATOM     19  C   UNK A   0     -37.876  21.742   1.558  0.00  0.00    +0.041 C 
BRANCH  19  21
ATOM     20  O   UNK A   0     -40.164  21.104   2.125  0.00  0.00    -0.252 OA
ATOM     21  C   UNK A   0     -39.343  21.455   1.286  0.00  0.00    +0.297 C 
BRANCH  21  22
ATOM     22  O   UNK A   0     -39.601  21.660  -0.041  0.00  0.00    -0.450 OA
BRANCH  22  23
ATOM     23  C   UNK A   0     -39.058  22.861  -0.598  0.00  0.00    +0.208 C 
ATOM     24  C   UNK A   0     -40.195  23.769  -1.016  0.00  0.00    +0.051 C 
ENDBRANCH  22  23
ENDBRANCH  21  22
ENDBRANCH  19  21
BRANCH  19  25
ATOM     25  C   UNK A   0     -37.056  20.453   1.386  0.00  0.00    -0.006 C 
BRANCH  25  26
ATOM     26  C   UNK A   0     -35.805  20.350   2.269  0.00  0.00    +0.025 C 
BRANCH  26  27
ATOM     27  C   UNK A   0     -34.515  20.303   1.491  0.00  0.00    -0.022 C 
ATOM     28  C   UNK A   0     -33.716  19.172   1.564  0.00  0.00    -0.004 C 
ATOM     29  C   UNK A   0     -34.148  21.392   0.714  0.00  0.00    -0.004 C 
ATOM     30  C   UNK A   0     -32.521  19.130   0.845  0.00  0.00    -0.000 C 
ATOM     31  C   UNK A   0     -32.954  21.349  -0.006  0.00  0.00    -0.000 C 
ATOM     32  C   UNK A   0     -32.141  20.218   0.059  0.00  0.00    -0.000 C 
ENDBRANCH  26  27
ENDBRANCH  25  26
ENDBRANCH  19  25
ENDBRANCH   1  19
TORSDOF 11
ENDMDL
MODEL 6
REMARK VINA RESULT:      -5.8      2.536      4.294
REMARK  Name = 5464343
REMARK  11 active torsions:
REMARK  status: ('A' for Active; 'I' for Inactive)
REMARK    1  A    between atoms: N_1  and  C_4
REMARK    2  A    between atoms: N_1  and  C_19
REMARK    3  A    between atoms: C_4  and  C_12
REMARK    4  A    between atoms: C_10  and  C_16
REMARK    5  A    between atoms: C_16  and  O_17
REMARK    6  A    between atoms: C_19  and  C_21
REMARK    7  A    between atoms: C_19  and  C_25
REMARK    8  A    between atoms: C_21  and  O_22
REMARK    9  A    between atoms: O_22  and  C_23
REMARK   10  A    between atoms: C_25  and  C_26
REMARK   11  A    between atoms: C_26  and  C_27
REMARK                            x       y       z     vdW  Elec       q    Type
REMARK                         _______ _______ _______ _____ _____    ______ ____
ROOT
ATOM      1  N   UNK A   1     -35.454  23.467   4.320  0.00  0.00    +0.399 N 
ATOM      2  H   UNK A   1     -36.209  23.088   4.891  0.00  0.00    -0.083 HD
ATOM      3  H   UNK A   1     -34.548  23.269   4.745  0.00  0.00    -0.083 HD
ENDROOT
BRANCH   1   4
ATOM      4  C   UNK A   1     -35.611  24.908   4.219  0.00  0.00    +0.018 C 
ATOM      5  C   UNK A   1     -36.221  25.478   5.484  0.00  0.00    -0.014 C 
BRANCH   4  12
ATOM      6  O   UNK A   1     -33.267  25.035   4.610  0.00  0.00    -0.277 OA
ATOM      7  O   UNK A   1     -36.418  26.993   2.395  0.00  0.00    -0.252 OA
ATOM      8  N   UNK A   1     -34.167  26.539   3.076  0.00  0.00    -0.205 N 
ATOM      9  N   UNK A   1     -34.564  28.022   1.381  0.00  0.00    -0.260 N 
ATOM     10  C   UNK A   1     -32.886  27.150   2.741  0.00  0.00    +0.202 C 
ATOM     11  C   UNK A   1     -33.125  27.887   1.435  0.00  0.00    +0.127 C 
ATOM     12  C   UNK A   1     -34.237  25.486   4.001  0.00  0.00    +0.213 C 
ATOM     13  C   UNK A   1     -35.210  27.164   2.295  0.00  0.00    +0.313 C 
ATOM     14  C   UNK A   1     -35.219  28.805   0.356  0.00  0.00    +0.117 C 
BRANCH  10  16
ATOM     15  O   UNK A   1     -33.165  29.176   4.034  0.00  0.00    -0.248 OA
ATOM     16  C   UNK A   1     -32.582  28.118   3.847  0.00  0.00    +0.334 C 
BRANCH  16  17
ATOM     17  O   UNK A   1     -31.564  27.662   4.616  0.00  0.00    -0.479 OA
ATOM     18  H   UNK A   1     -31.699  26.929   5.184  0.00  0.00    +0.295 HD
ENDBRANCH  16  17
ENDBRANCH  10  16
ENDBRANCH   4  12
ENDBRANCH   1   4
BRANCH   1  19
ATOM     19  C   UNK A   0     -35.494  22.841   3.003  0.00  0.00    +0.041 C 
BRANCH  19  21
ATOM     20  O   UNK A   0     -36.827  23.895   1.250  0.00  0.00    -0.252 OA
ATOM     21  C   UNK A   0     -36.770  23.299   2.318  0.00  0.00    +0.297 C 
BRANCH  21  22
ATOM     22  O   UNK A   0     -37.845  22.932   3.081  0.00  0.00    -0.450 OA
BRANCH  22  23
ATOM     23  C   UNK A   0     -39.114  22.969   2.420  0.00  0.00    +0.208 C 
ATOM     24  C   UNK A   0     -39.447  21.582   1.916  0.00  0.00    +0.051 C 
ENDBRANCH  22  23
ENDBRANCH  21  22
ENDBRANCH  19  21
BRANCH  19  25
ATOM     25  C   UNK A   0     -35.480  21.307   3.101  0.00  0.00    -0.006 C 
BRANCH  25  26
ATOM     26  C   UNK A   0     -35.520  20.565   1.758  0.00  0.00    +0.025 C 
BRANCH  26  27
ATOM     27  C   UNK A   0     -34.158  20.190   1.232  0.00  0.00    -0.022 C 
ATOM     28  C   UNK A   0     -33.482  21.073   0.403  0.00  0.00    -0.004 C 
ATOM     29  C   UNK A   0     -33.603  18.969   1.584  0.00  0.00    -0.004 C 
ATOM     30  C   UNK A   0     -32.222  20.725  -0.085  0.00  0.00    -0.000 C 
ATOM     31  C   UNK A   0     -32.343  18.622   1.097  0.00  0.00    -0.000 C 
ATOM     32  C   UNK A   0     -31.652  19.500   0.262  0.00  0.00    -0.000 C 
ENDBRANCH  26  27
ENDBRANCH  25  26
ENDBRANCH  19  25
ENDBRANCH   1  19
TORSDOF 11
ENDMDL
MODEL 7
REMARK VINA RESULT:      -5.8      3.089      6.440
REMARK  Name = 5464343
REMARK  11 active torsions:
REMARK  status: ('A' for Active; 'I' for Inactive)
REMARK    1  A    between atoms: N_1  and  C_4
REMARK    2  A    between atoms: N_1  and  C_19
REMARK    3  A    between atoms: C_4  and  C_12
REMARK    4  A    between atoms: C_10  and  C_16
REMARK    5  A    between atoms: C_16  and  O_17
REMARK    6  A    between atoms: C_19  and  C_21
REMARK    7  A    between atoms: C_19  and  C_25
REMARK    8  A    between atoms: C_21  and  O_22
REMARK    9  A    between atoms: O_22  and  C_23
REMARK   10  A    between atoms: C_25  and  C_26
REMARK   11  A    between atoms: C_26  and  C_27
REMARK                            x       y       z     vdW  Elec       q    Type
REMARK                         _______ _______ _______ _____ _____    ______ ____
ROOT
ATOM      1  N   UNK A   1     -35.330  27.258   3.936  0.00  0.00    +0.399 N 
ATOM      2  H   UNK A   1     -35.063  28.077   4.482  0.00  0.00    -0.083 HD
ATOM      3  H   UNK A   1     -36.312  27.026   4.095  0.00  0.00    -0.083 HD
ENDROOT
BRANCH   1   4
ATOM      4  C   UNK A   1     -34.517  26.126   4.347  0.00  0.00    +0.018 C 
ATOM      5  C   UNK A   1     -33.683  26.470   5.566  0.00  0.00    -0.014 C 
BRANCH   4  12
ATOM      6  O   UNK A   1     -36.131  25.020   5.703  0.00  0.00    -0.277 OA
ATOM      7  O   UNK A   1     -33.868  24.491   2.060  0.00  0.00    -0.252 OA
ATOM      8  N   UNK A   1     -35.513  23.966   3.720  0.00  0.00    -0.205 N 
ATOM      9  N   UNK A   1     -35.373  22.702   1.819  0.00  0.00    -0.260 N 
ATOM     10  C   UNK A   1     -36.425  22.841   3.892  0.00  0.00    +0.202 C 
ATOM     11  C   UNK A   1     -36.537  22.204   2.519  0.00  0.00    +0.127 C 
ATOM     12  C   UNK A   1     -35.462  24.999   4.669  0.00  0.00    +0.213 C 
ATOM     13  C   UNK A   1     -34.795  23.808   2.476  0.00  0.00    +0.313 C 
ATOM     14  C   UNK A   1     -35.009  22.220   0.504  0.00  0.00    +0.117 C 
BRANCH  10  16
ATOM     15  O   UNK A   1     -34.998  21.001   4.546  0.00  0.00    -0.248 OA
ATOM     16  C   UNK A   1     -35.759  21.905   4.858  0.00  0.00    +0.334 C 
BRANCH  16  17
ATOM     17  O   UNK A   1     -36.117  22.196   6.132  0.00  0.00    -0.479 OA
ATOM     18  H   UNK A   1     -35.462  22.422   6.762  0.00  0.00    +0.295 HD
ENDBRANCH  16  17
ENDBRANCH  10  16
ENDBRANCH   4  12
ENDBRANCH   1   4
BRANCH   1  19
ATOM     19  C   UNK A   0     -35.147  27.549   2.519  0.00  0.00    +0.041 C 
BRANCH  19  21
ATOM     20  O   UNK A   0     -33.542  29.132   1.581  0.00  0.00    -0.252 OA
ATOM     21  C   UNK A   0     -34.398  28.866   2.416  0.00  0.00    +0.297 C 
BRANCH  21  22
ATOM     22  O   UNK A   0     -34.837  29.710   3.400  0.00  0.00    -0.450 OA
BRANCH  22  23
ATOM     23  C   UNK A   0     -34.882  31.097   3.049  0.00  0.00    +0.208 C 
ATOM     24  C   UNK A   0     -36.143  31.364   2.256  0.00  0.00    +0.051 C 
ENDBRANCH  22  23
ENDBRANCH  21  22
ENDBRANCH  19  21
BRANCH  19  25
ATOM     25  C   UNK A   0     -36.492  27.659   1.782  0.00  0.00    -0.006 C 
BRANCH  25  26
ATOM     26  C   UNK A   0     -36.830  26.482   0.857  0.00  0.00    +0.025 C 
BRANCH  26  27
ATOM     27  C   UNK A   0     -37.941  25.603   1.375  0.00  0.00    -0.022 C 
ATOM     28  C   UNK A   0     -38.420  25.798   2.661  0.00  0.00    -0.004 C 
ATOM     29  C   UNK A   0     -38.466  24.615   0.555  0.00  0.00    -0.004 C 
ATOM     30  C   UNK A   0     -39.447  24.984   3.140  0.00  0.00    -0.000 C 
ATOM     31  C   UNK A   0     -39.494  23.802   1.034  0.00  0.00    -0.000 C 
ATOM     32  C   UNK A   0     -39.984  23.987   2.326  0.00  0.00    -0.000 C 
ENDBRANCH  26  27
ENDBRANCH  25  26
ENDBRANCH  19  25
ENDBRANCH   1  19
TORSDOF 11
ENDMDL
MODEL 8
REMARK VINA RESULT:      -5.8      3.711      7.312
REMARK  Name = 5464343
REMARK  11 active torsions:
REMARK  status: ('A' for Active; 'I' for Inactive)
REMARK    1  A    between atoms: N_1  and  C_4
REMARK    2  A    between atoms: N_1  and  C_19
REMARK    3  A    between atoms: C_4  and  C_12
REMARK    4  A    between atoms: C_10  and  C_16
REMARK    5  A    between atoms: C_16  and  O_17
REMARK    6  A    between atoms: C_19  and  C_21
REMARK    7  A    between atoms: C_19  and  C_25
REMARK    8  A    between atoms: C_21  and  O_22
REMARK    9  A    between atoms: O_22  and  C_23
REMARK   10  A    between atoms: C_25  and  C_26
REMARK   11  A    between atoms: C_26  and  C_27
REMARK                            x       y       z     vdW  Elec       q    Type
REMARK                         _______ _______ _______ _____ _____    ______ ____
ROOT
ATOM      1  N   UNK A   1     -35.364  25.452   3.033  0.00  0.00    +0.399 N 
ATOM      2  H   UNK A   1     -34.513  24.892   3.058  0.00  0.00    -0.083 HD
ATOM      3  H   UNK A   1     -35.441  25.948   2.144  0.00  0.00    -0.083 HD
ENDROOT
BRANCH   1   4
ATOM      4  C   UNK A   1     -35.321  26.432   4.105  0.00  0.00    +0.018 C 
ATOM      5  C   UNK A   1     -36.148  25.976   5.292  0.00  0.00    -0.014 C 
BRANCH   4  12
ATOM      6  O   UNK A   1     -33.309  25.682   5.133  0.00  0.00    -0.277 OA
ATOM      7  O   UNK A   1     -34.967  29.109   3.088  0.00  0.00    -0.252 OA
ATOM      8  N   UNK A   1     -33.263  27.780   4.120  0.00  0.00    -0.205 N 
ATOM      9  N   UNK A   1     -32.705  29.746   3.094  0.00  0.00    -0.260 N 
ATOM     10  C   UNK A   1     -31.854  28.022   4.408  0.00  0.00    +0.202 C 
ATOM     11  C   UNK A   1     -31.445  29.150   3.478  0.00  0.00    +0.127 C 
ATOM     12  C   UNK A   1     -33.877  26.579   4.508  0.00  0.00    +0.213 C 
ATOM     13  C   UNK A   1     -33.799  28.907   3.393  0.00  0.00    +0.313 C 
ATOM     14  C   UNK A   1     -32.768  30.965   2.317  0.00  0.00    +0.117 C 
BRANCH  10  16
ATOM     15  O   UNK A   1     -32.141  29.561   6.251  0.00  0.00    -0.248 OA
ATOM     16  C   UNK A   1     -31.789  28.466   5.840  0.00  0.00    +0.334 C 
BRANCH  16  17
ATOM     17  O   UNK A   1     -31.281  27.484   6.623  0.00  0.00    -0.479 OA
ATOM     18  H   UNK A   1     -31.392  27.522   7.553  0.00  0.00    +0.295 HD
ENDBRANCH  16  17
ENDBRANCH  10  16
ENDBRANCH   4  12
ENDBRANCH   1   4
BRANCH   1  19
ATOM     19  C   UNK A   0     -36.519  24.572   3.173  0.00  0.00    +0.041 C 
BRANCH  19  21
ATOM     20  O   UNK A   0     -35.349  22.631   2.265  0.00  0.00    -0.252 OA
ATOM     21  C   UNK A   0     -36.006  23.142   3.163  0.00  0.00    +0.297 C 
BRANCH  21  22
ATOM     22  O   UNK A   0     -36.391  22.519   4.318  0.00  0.00    -0.450 OA
BRANCH  22  23
ATOM     23  C   UNK A   0     -35.361  21.798   5.004  0.00  0.00    +0.208 C 
ATOM     24  C   UNK A   0     -35.308  22.265   6.442  0.00  0.00    +0.051 C 
ENDBRANCH  22  23
ENDBRANCH  21  22
ENDBRANCH  19  21
BRANCH  19  25
ATOM     25  C   UNK A   0     -37.527  24.769   2.030  0.00  0.00    -0.006 C 
BRANCH  25  26
ATOM     26  C   UNK A   0     -38.801  23.919   2.126  0.00  0.00    +0.025 C 
BRANCH  26  27
ATOM     27  C   UNK A   0     -40.070  24.732   2.190  0.00  0.00    -0.022 C 
ATOM     28  C   UNK A   0     -41.056  24.531   1.236  0.00  0.00    -0.004 C 
ATOM     29  C   UNK A   0     -40.229  25.667   3.202  0.00  0.00    -0.004 C 
ATOM     30  C   UNK A   0     -42.229  25.284   1.296  0.00  0.00    -0.000 C 
ATOM     31  C   UNK A   0     -41.403  26.418   3.262  0.00  0.00    -0.000 C 
ATOM     32  C   UNK A   0     -42.403  26.227   2.309  0.00  0.00    -0.000 C 
ENDBRANCH  26  27
ENDBRANCH  25  26
ENDBRANCH  19  25
ENDBRANCH   1  19
TORSDOF 11
ENDMDL
MODEL 9
REMARK VINA RESULT:      -5.8      3.447      7.046
REMARK  Name = 5464343
REMARK  11 active torsions:
REMARK  status: ('A' for Active; 'I' for Inactive)
REMARK    1  A    between atoms: N_1  and  C_4
REMARK    2  A    between atoms: N_1  and  C_19
REMARK    3  A    between atoms: C_4  and  C_12
REMARK    4  A    between atoms: C_10  and  C_16
REMARK    5  A    between atoms: C_16  and  O_17
REMARK    6  A    between atoms: C_19  and  C_21
REMARK    7  A    between atoms: C_19  and  C_25
REMARK    8  A    between atoms: C_21  and  O_22
REMARK    9  A    between atoms: O_22  and  C_23
REMARK   10  A    between atoms: C_25  and  C_26
REMARK   11  A    between atoms: C_26  and  C_27
REMARK                            x       y       z     vdW  Elec       q    Type
REMARK                         _______ _______ _______ _____ _____    ______ ____
ROOT
ATOM      1  N   UNK A   1     -35.396  27.415   4.094  0.00  0.00    +0.399 N 
ATOM      2  H   UNK A   1     -35.271  28.081   4.857  0.00  0.00    -0.083 HD
ATOM      3  H   UNK A   1     -36.373  27.127   4.027  0.00  0.00    -0.083 HD
ENDROOT
BRANCH   1   4
ATOM      4  C   UNK A   1     -34.584  26.238   4.352  0.00  0.00    +0.018 C 
ATOM      5  C   UNK A   1     -33.702  26.442   5.569  0.00  0.00    -0.014 C 
BRANCH   4  12
ATOM      6  O   UNK A   1     -36.266  25.082   5.576  0.00  0.00    -0.277 OA
ATOM      7  O   UNK A   1     -33.767  24.664   2.076  0.00  0.00    -0.252 OA
ATOM      8  N   UNK A   1     -35.507  24.081   3.614  0.00  0.00    -0.205 N 
ATOM      9  N   UNK A   1     -35.229  22.863   1.698  0.00  0.00    -0.260 N 
ATOM     10  C   UNK A   1     -36.413  22.941   3.702  0.00  0.00    +0.202 C 
ATOM     11  C   UNK A   1     -36.427  22.335   2.310  0.00  0.00    +0.127 C 
ATOM     12  C   UNK A   1     -35.532  25.092   4.587  0.00  0.00    +0.213 C 
ATOM     13  C   UNK A   1     -34.709  23.961   2.415  0.00  0.00    +0.313 C 
ATOM     14  C   UNK A   1     -34.774  22.416   0.400  0.00  0.00    +0.117 C 
BRANCH  10  16
ATOM     15  O   UNK A   1     -35.061  21.060   4.398  0.00  0.00    -0.248 OA
ATOM     16  C   UNK A   1     -35.797  21.992   4.687  0.00  0.00    +0.334 C 
BRANCH  16  17
ATOM     17  O   UNK A   1     -36.171  22.304   5.952  0.00  0.00    -0.479 OA
ATOM     18  H   UNK A   1     -37.041  22.609   6.121  0.00  0.00    +0.295 HD
ENDBRANCH  16  17
ENDBRANCH  10  16
ENDBRANCH   4  12
ENDBRANCH   1   4
BRANCH   1  19
ATOM     19  C   UNK A   0     -35.014  28.051   2.839  0.00  0.00    +0.041 C 
BRANCH  19  21
ATOM     20  O   UNK A   0     -35.472  27.126   0.626  0.00  0.00    -0.252 OA
ATOM     21  C   UNK A   0     -35.870  27.444   1.740  0.00  0.00    +0.297 C 
BRANCH  21  22
ATOM     22  O   UNK A   0     -37.151  27.301   2.197  0.00  0.00    -0.450 OA
BRANCH  22  23
ATOM     23  C   UNK A   0     -37.825  26.108   1.783  0.00  0.00    +0.208 C 
ATOM     24  C   UNK A   0     -38.839  25.724   2.840  0.00  0.00    +0.051 C 
ENDBRANCH  22  23
ENDBRANCH  21  22
ENDBRANCH  19  21
BRANCH  19  25
ATOM     25  C   UNK A   0     -33.527  27.830   2.519  0.00  0.00    -0.006 C 
BRANCH  25  26
ATOM     26  C   UNK A   0     -32.646  29.086   2.597  0.00  0.00    +0.025 C 
BRANCH  26  27
ATOM     27  C   UNK A   0     -31.997  29.288   3.943  0.00  0.00    -0.022 C 
ATOM     28  C   UNK A   0     -32.474  30.281   4.786  0.00  0.00    -0.004 C 
ATOM     29  C   UNK A   0     -30.935  28.479   4.315  0.00  0.00    -0.004 C 
ATOM     30  C   UNK A   0     -31.872  30.469   6.031  0.00  0.00    -0.000 C 
ATOM     31  C   UNK A   0     -30.334  28.666   5.561  0.00  0.00    -0.000 C 
ATOM     32  C   UNK A   0     -30.803  29.661   6.418  0.00  0.00    -0.000 C 
ENDBRANCH  26  27
ENDBRANCH  25  26
ENDBRANCH  19  25
ENDBRANCH   1  19
TORSDOF 11
ENDMDL
