MODEL 1
REMARK VINA RESULT:      -5.7      0.000      0.000
REMARK  Name = 191397
REMARK  6 active torsions:
REMARK  status: ('A' for Active; 'I' for Inactive)
REMARK    1  A    between atoms: C_1  and  C_9
REMARK    2  A    between atoms: C_2  and  O_13
REMARK    3  A    between atoms: N_8  and  O_11
REMARK    4  A    between atoms: O_13  and  P_14
REMARK    5  A    between atoms: P_14  and  O_16
REMARK    6  A    between atoms: P_14  and  O_18
REMARK                            x       y       z     vdW  Elec       q    Type
REMARK                         _______ _______ _______ _____ _____    ______ ____
ROOT
ATOM      1  C   UNL     1     -36.283  23.708   4.080  0.00  0.00    +0.090 C 
ATOM      2  C   UNL     1     -35.512  23.883   5.229  0.00  0.00    +0.153 C 
ATOM      3  C   UNL     1     -36.406  22.441   3.507  0.00  0.00    +0.008 C 
ATOM      4  C   UNL     1     -34.863  22.792   5.805  0.00  0.00    +0.038 C 
ATOM      5  C   UNL     1     -34.984  21.525   5.233  0.00  0.00    +0.003 C 
ATOM      6  C   UNL     1     -35.756  21.350   4.085  0.00  0.00    +0.000 C 
ENDROOT
BRANCH   1   9
ATOM      7  O   UNL     1     -36.487  25.400   2.465  0.00  0.00    -0.268 OA
ATOM      8  N   UNL     1     -38.165  25.238   4.037  0.00  0.00    -0.193 N 
ATOM      9  C   UNL     1     -36.971  24.833   3.461  0.00  0.00    +0.271 C 
ATOM     10  H   UNL     1     -38.538  24.781   4.826  0.00  0.00    +0.183 HD
BRANCH   8  11
ATOM     11  O   UNL     1     -38.814  26.330   3.444  0.00  0.00    -0.295 OA
ATOM     12  H   UNL     1     -39.631  26.524   3.929  0.00  0.00    +0.241 HD
ENDBRANCH   8  11
ENDBRANCH   1   9
BRANCH   2  13
ATOM     13  O   UNL     1     -35.381  25.112   5.803  0.00  0.00    -0.403 OA
BRANCH  13  14
ATOM     14  P   UNL     1     -34.243  26.199   5.426  0.00  0.00    +0.528 P 
ATOM     15  O   UNL     1     -33.495  26.774   6.593  0.00  0.00    -0.216 OA
BRANCH  14  16
ATOM     16  O   UNL     1     -33.338  25.454   4.311  0.00  0.00    -0.293 OA
ATOM     17  H   UNL     1     -32.558  25.064   4.736  0.00  0.00    +0.223 HD
ENDBRANCH  14  16
BRANCH  14  18
ATOM     18  O   UNL     1     -35.066  27.288   4.557  0.00  0.00    -0.293 OA
ATOM     19  H   UNL     1     -34.625  28.150   4.618  0.00  0.00    +0.223 HD
ENDBRANCH  14  18
ENDBRANCH  13  14
ENDBRANCH   2  13
TORSDOF 6
ENDMDL
MODEL 2
REMARK VINA RESULT:      -5.6      3.501      4.910
REMARK  Name = 191397
REMARK  6 active torsions:
REMARK  status: ('A' for Active; 'I' for Inactive)
REMARK    1  A    between atoms: C_1  and  C_9
REMARK    2  A    between atoms: C_2  and  O_13
REMARK    3  A    between atoms: N_8  and  O_11
REMARK    4  A    between atoms: O_13  and  P_14
REMARK    5  A    between atoms: P_14  and  O_16
REMARK    6  A    between atoms: P_14  and  O_18
REMARK                            x       y       z     vdW  Elec       q    Type
REMARK                         _______ _______ _______ _____ _____    ______ ____
ROOT
ATOM      1  C   UNL     1     -35.593  21.541   3.762  0.00  0.00    +0.090 C 
ATOM      2  C   UNL     1     -36.182  22.802   3.665  0.00  0.00    +0.153 C 
ATOM      3  C   UNL     1     -34.952  21.158   4.940  0.00  0.00    +0.008 C 
ATOM      4  C   UNL     1     -36.128  23.681   4.747  0.00  0.00    +0.038 C 
ATOM      5  C   UNL     1     -35.486  23.299   5.925  0.00  0.00    +0.003 C 
ATOM      6  C   UNL     1     -34.898  22.038   6.022  0.00  0.00    +0.000 C 
ENDROOT
BRANCH   1   9
ATOM      7  O   UNL     1     -34.641  20.439   1.920  0.00  0.00    -0.268 OA
ATOM      8  N   UNL     1     -36.832  19.935   2.430  0.00  0.00    -0.193 N 
ATOM      9  C   UNL     1     -35.638  20.607   2.645  0.00  0.00    +0.271 C 
ATOM     10  H   UNL     1     -37.614  20.076   3.011  0.00  0.00    +0.183 HD
BRANCH   8  11
ATOM     11  O   UNL     1     -36.871  19.048   1.346  0.00  0.00    -0.295 OA
ATOM     12  H   UNL     1     -37.725  19.127   0.893  0.00  0.00    +0.241 HD
ENDBRANCH   8  11
ENDBRANCH   1   9
BRANCH   2  13
ATOM     13  O   UNL     1     -36.813  23.194   2.523  0.00  0.00    -0.403 OA
BRANCH  13  14
ATOM     14  P   UNL     1     -38.414  23.358   2.353  0.00  0.00    +0.528 P 
ATOM     15  O   UNL     1     -39.071  24.283   3.336  0.00  0.00    -0.216 OA
BRANCH  14  16
ATOM     16  O   UNL     1     -38.608  23.741   0.793  0.00  0.00    -0.293 OA
ATOM     17  H   UNL     1     -39.496  24.110   0.659  0.00  0.00    +0.223 HD
ENDBRANCH  14  16
BRANCH  14  18
ATOM     18  O   UNL     1     -38.938  21.829   2.419  0.00  0.00    -0.293 OA
ATOM     19  H   UNL     1     -38.530  21.316   1.703  0.00  0.00    +0.223 HD
ENDBRANCH  14  18
ENDBRANCH  13  14
ENDBRANCH   2  13
TORSDOF 6
ENDMDL
MODEL 3
REMARK VINA RESULT:      -5.5      2.708      4.177
REMARK  Name = 191397
REMARK  6 active torsions:
REMARK  status: ('A' for Active; 'I' for Inactive)
REMARK    1  A    between atoms: C_1  and  C_9
REMARK    2  A    between atoms: C_2  and  O_13
REMARK    3  A    between atoms: N_8  and  O_11
REMARK    4  A    between atoms: O_13  and  P_14
REMARK    5  A    between atoms: P_14  and  O_16
REMARK    6  A    between atoms: P_14  and  O_18
REMARK                            x       y       z     vdW  Elec       q    Type
REMARK                         _______ _______ _______ _____ _____    ______ ____
ROOT
ATOM      1  C   UNL     1     -36.183  23.800   4.403  0.00  0.00    +0.090 C 
ATOM      2  C   UNL     1     -36.118  22.684   3.569  0.00  0.00    +0.153 C 
ATOM      3  C   UNL     1     -35.669  23.734   5.699  0.00  0.00    +0.008 C 
ATOM      4  C   UNL     1     -35.539  21.502   4.030  0.00  0.00    +0.038 C 
ATOM      5  C   UNL     1     -35.026  21.434   5.326  0.00  0.00    +0.003 C 
ATOM      6  C   UNL     1     -35.091  22.551   6.160  0.00  0.00    +0.000 C 
ENDROOT
BRANCH   1   9
ATOM      7  O   UNL     1     -36.068  25.974   3.524  0.00  0.00    -0.268 OA
ATOM      8  N   UNL     1     -38.163  25.142   4.005  0.00  0.00    -0.193 N 
ATOM      9  C   UNL     1     -36.782  25.045   3.943  0.00  0.00    +0.271 C 
ATOM     10  H   UNL     1     -38.718  24.400   4.339  0.00  0.00    +0.183 HD
BRANCH   8  11
ATOM     11  O   UNL     1     -38.732  26.349   3.572  0.00  0.00    -0.295 OA
ATOM     12  H   UNL     1     -38.105  27.074   3.722  0.00  0.00    +0.241 HD
ENDBRANCH   8  11
ENDBRANCH   1   9
BRANCH   2  13
ATOM     13  O   UNL     1     -36.613  22.729   2.301  0.00  0.00    -0.403 OA
BRANCH  13  14
ATOM     14  P   UNL     1     -38.058  22.161   1.844  0.00  0.00    +0.528 P 
ATOM     15  O   UNL     1     -39.241  22.849   2.460  0.00  0.00    -0.216 OA
BRANCH  14  16
ATOM     16  O   UNL     1     -37.999  22.181   0.228  0.00  0.00    -0.293 OA
ATOM     17  H   UNL     1     -38.901  22.167  -0.129  0.00  0.00    +0.223 HD
ENDBRANCH  14  16
BRANCH  14  18
ATOM     18  O   UNL     1     -37.946  20.584   2.191  0.00  0.00    -0.293 OA
ATOM     19  H   UNL     1     -38.248  20.063   1.430  0.00  0.00    +0.223 HD
ENDBRANCH  14  18
ENDBRANCH  13  14
ENDBRANCH   2  13
TORSDOF 6
ENDMDL
MODEL 4
REMARK VINA RESULT:      -5.4      2.003      3.820
REMARK  Name = 191397
REMARK  6 active torsions:
REMARK  status: ('A' for Active; 'I' for Inactive)
REMARK    1  A    between atoms: C_1  and  C_9
REMARK    2  A    between atoms: C_2  and  O_13
REMARK    3  A    between atoms: N_8  and  O_11
REMARK    4  A    between atoms: O_13  and  P_14
REMARK    5  A    between atoms: P_14  and  O_16
REMARK    6  A    between atoms: P_14  and  O_18
REMARK                            x       y       z     vdW  Elec       q    Type
REMARK                         _______ _______ _______ _____ _____    ______ ____
ROOT
ATOM      1  C   UNL     1     -35.257  24.120   5.062  0.00  0.00    +0.090 C 
ATOM      2  C   UNL     1     -35.828  23.782   3.835  0.00  0.00    +0.153 C 
ATOM      3  C   UNL     1     -34.881  23.118   5.957  0.00  0.00    +0.008 C 
ATOM      4  C   UNL     1     -36.024  22.441   3.503  0.00  0.00    +0.038 C 
ATOM      5  C   UNL     1     -35.650  21.439   4.398  0.00  0.00    +0.003 C 
ATOM      6  C   UNL     1     -35.078  21.777   5.625  0.00  0.00    +0.000 C 
ENDROOT
BRANCH   1   9
ATOM      7  O   UNL     1     -35.986  26.213   5.837  0.00  0.00    -0.268 OA
ATOM      8  N   UNL     1     -33.755  26.011   5.291  0.00  0.00    -0.193 N 
ATOM      9  C   UNL     1     -35.042  25.513   5.429  0.00  0.00    +0.271 C 
ATOM     10  H   UNL     1     -33.016  25.448   4.966  0.00  0.00    +0.183 HD
BRANCH   8  11
ATOM     11  O   UNL     1     -33.559  27.356   5.633  0.00  0.00    -0.295 OA
ATOM     12  H   UNL     1     -33.350  27.867   4.835  0.00  0.00    +0.241 HD
ENDBRANCH   8  11
ENDBRANCH   1   9
BRANCH   2  13
ATOM     13  O   UNL     1     -36.201  24.746   2.947  0.00  0.00    -0.403 OA
BRANCH  13  14
ATOM     14  P   UNL     1     -37.716  25.266   2.719  0.00  0.00    +0.528 P 
ATOM     15  O   UNL     1     -38.433  24.657   1.549  0.00  0.00    -0.216 OA
BRANCH  14  16
ATOM     16  O   UNL     1     -38.425  25.064   4.159  0.00  0.00    -0.293 OA
ATOM     17  H   UNL     1     -39.112  24.383   4.088  0.00  0.00    +0.223 HD
ENDBRANCH  14  16
BRANCH  14  18
ATOM     18  O   UNL     1     -37.531  26.871   2.628  0.00  0.00    -0.293 OA
ATOM     19  H   UNL     1     -38.139  27.302   3.250  0.00  0.00    +0.223 HD
ENDBRANCH  14  18
ENDBRANCH  13  14
ENDBRANCH   2  13
TORSDOF 6
ENDMDL
MODEL 5
REMARK VINA RESULT:      -5.3      3.003      4.393
REMARK  Name = 191397
REMARK  6 active torsions:
REMARK  status: ('A' for Active; 'I' for Inactive)
REMARK    1  A    between atoms: C_1  and  C_9
REMARK    2  A    between atoms: C_2  and  O_13
REMARK    3  A    between atoms: N_8  and  O_11
REMARK    4  A    between atoms: O_13  and  P_14
REMARK    5  A    between atoms: P_14  and  O_16
REMARK    6  A    between atoms: P_14  and  O_18
REMARK                            x       y       z     vdW  Elec       q    Type
REMARK                         _______ _______ _______ _____ _____    ______ ____
ROOT
ATOM      1  C   UNL     1     -35.392  23.904   4.118  0.00  0.00    +0.090 C 
ATOM      2  C   UNL     1     -36.493  24.673   4.495  0.00  0.00    +0.153 C 
ATOM      3  C   UNL     1     -34.110  24.276   4.523  0.00  0.00    +0.008 C 
ATOM      4  C   UNL     1     -36.312  25.814   5.276  0.00  0.00    +0.038 C 
ATOM      5  C   UNL     1     -35.030  26.187   5.680  0.00  0.00    +0.003 C 
ATOM      6  C   UNL     1     -33.929  25.418   5.304  0.00  0.00    +0.000 C 
ENDROOT
BRANCH   1   9
ATOM      7  O   UNL     1     -35.269  22.721   2.094  0.00  0.00    -0.268 OA
ATOM      8  N   UNL     1     -36.058  21.579   3.935  0.00  0.00    -0.193 N 
ATOM      9  C   UNL     1     -35.558  22.708   3.304  0.00  0.00    +0.271 C 
ATOM     10  H   UNL     1     -36.284  21.581   4.892  0.00  0.00    +0.183 HD
BRANCH   8  11
ATOM     11  O   UNL     1     -36.227  20.436   3.141  0.00  0.00    -0.295 OA
ATOM     12  H   UNL     1     -35.369  20.007   3.002  0.00  0.00    +0.241 HD
ENDBRANCH   8  11
ENDBRANCH   1   9
BRANCH   2  13
ATOM     13  O   UNL     1     -37.754  24.326   4.111  0.00  0.00    -0.403 OA
BRANCH  13  14
ATOM     14  P   UNL     1     -38.555  24.965   2.859  0.00  0.00    +0.528 P 
ATOM     15  O   UNL     1     -37.747  25.149   1.607  0.00  0.00    -0.216 OA
BRANCH  14  16
ATOM     16  O   UNL     1     -39.870  24.035   2.714  0.00  0.00    -0.293 OA
ATOM     17  H   UNL     1     -40.499  24.456   2.107  0.00  0.00    +0.223 HD
ENDBRANCH  14  16
BRANCH  14  18
ATOM     18  O   UNL     1     -39.148  26.337   3.479  0.00  0.00    -0.293 OA
ATOM     19  H   UNL     1     -39.405  26.189   4.403  0.00  0.00    +0.223 HD
ENDBRANCH  14  18
ENDBRANCH  13  14
ENDBRANCH   2  13
TORSDOF 6
ENDMDL
MODEL 6
REMARK VINA RESULT:      -5.3      3.963      5.456
REMARK  Name = 191397
REMARK  6 active torsions:
REMARK  status: ('A' for Active; 'I' for Inactive)
REMARK    1  A    between atoms: C_1  and  C_9
REMARK    2  A    between atoms: C_2  and  O_13
REMARK    3  A    between atoms: N_8  and  O_11
REMARK    4  A    between atoms: O_13  and  P_14
REMARK    5  A    between atoms: P_14  and  O_16
REMARK    6  A    between atoms: P_14  and  O_18
REMARK                            x       y       z     vdW  Elec       q    Type
REMARK                         _______ _______ _______ _____ _____    ______ ____
ROOT
ATOM      1  C   UNL     1     -35.187  23.477   3.651  0.00  0.00    +0.090 C 
ATOM      2  C   UNL     1     -35.725  23.164   2.402  0.00  0.00    +0.153 C 
ATOM      3  C   UNL     1     -34.289  24.538   3.778  0.00  0.00    +0.008 C 
ATOM      4  C   UNL     1     -35.364  23.911   1.281  0.00  0.00    +0.038 C 
ATOM      5  C   UNL     1     -34.467  24.971   1.407  0.00  0.00    +0.003 C 
ATOM      6  C   UNL     1     -33.929  25.284   2.655  0.00  0.00    +0.000 C 
ENDROOT
BRANCH   1   9
ATOM      7  O   UNL     1     -36.075  23.270   5.814  0.00  0.00    -0.268 OA
ATOM      8  N   UNL     1     -35.270  21.353   4.819  0.00  0.00    -0.193 N 
ATOM      9  C   UNL     1     -35.549  22.711   4.835  0.00  0.00    +0.271 C 
ATOM     10  H   UNL     1     -34.852  20.922   4.039  0.00  0.00    +0.183 HD
BRANCH   8  11
ATOM     11  O   UNL     1     -35.609  20.625   5.968  0.00  0.00    -0.295 OA
ATOM     12  H   UNL     1     -34.803  20.396   6.456  0.00  0.00    +0.241 HD
ENDBRANCH   8  11
ENDBRANCH   1   9
BRANCH   2  13
ATOM     13  O   UNL     1     -36.603  22.132   2.258  0.00  0.00    -0.403 OA
BRANCH  13  14
ATOM     14  P   UNL     1     -36.259  20.703   1.581  0.00  0.00    +0.528 P 
ATOM     15  O   UNL     1     -36.732  20.534   0.166  0.00  0.00    -0.216 OA
BRANCH  14  16
ATOM     16  O   UNL     1     -34.668  20.529   1.814  0.00  0.00    -0.293 OA
ATOM     17  H   UNL     1     -34.323  19.856   1.205  0.00  0.00    +0.223 HD
ENDBRANCH  14  16
BRANCH  14  18
ATOM     18  O   UNL     1     -36.896  19.649   2.630  0.00  0.00    -0.293 OA
ATOM     19  H   UNL     1     -37.527  20.109   3.207  0.00  0.00    +0.223 HD
ENDBRANCH  14  18
ENDBRANCH  13  14
ENDBRANCH   2  13
TORSDOF 6
ENDMDL
MODEL 7
REMARK VINA RESULT:      -5.3      3.290      5.063
REMARK  Name = 191397
REMARK  6 active torsions:
REMARK  status: ('A' for Active; 'I' for Inactive)
REMARK    1  A    between atoms: C_1  and  C_9
REMARK    2  A    between atoms: C_2  and  O_13
REMARK    3  A    between atoms: N_8  and  O_11
REMARK    4  A    between atoms: O_13  and  P_14
REMARK    5  A    between atoms: P_14  and  O_16
REMARK    6  A    between atoms: P_14  and  O_18
REMARK                            x       y       z     vdW  Elec       q    Type
REMARK                         _______ _______ _______ _____ _____    ______ ____
ROOT
ATOM      1  C   UNL     1     -35.648  23.928   5.015  0.00  0.00    +0.090 C 
ATOM      2  C   UNL     1     -36.605  24.261   4.057  0.00  0.00    +0.153 C 
ATOM      3  C   UNL     1     -34.709  24.875   5.423  0.00  0.00    +0.008 C 
ATOM      4  C   UNL     1     -36.622  25.542   3.505  0.00  0.00    +0.038 C 
ATOM      5  C   UNL     1     -35.682  26.490   3.912  0.00  0.00    +0.003 C 
ATOM      6  C   UNL     1     -34.726  26.157   4.871  0.00  0.00    +0.000 C 
ENDROOT
BRANCH   1   9
ATOM      7  O   UNL     1     -35.882  22.429   6.808  0.00  0.00    -0.268 OA
ATOM      8  N   UNL     1     -35.255  21.546   4.773  0.00  0.00    -0.193 N 
ATOM      9  C   UNL     1     -35.612  22.596   5.605  0.00  0.00    +0.271 C 
ATOM     10  H   UNL     1     -35.043  21.691   3.822  0.00  0.00    +0.183 HD
BRANCH   8  11
ATOM     11  O   UNL     1     -35.210  20.270   5.351  0.00  0.00    -0.295 OA
ATOM     12  H   UNL     1     -35.459  20.329   6.286  0.00  0.00    +0.241 HD
ENDBRANCH   8  11
ENDBRANCH   1   9
BRANCH   2  13
ATOM     13  O   UNL     1     -37.531  23.350   3.646  0.00  0.00    -0.403 OA
BRANCH  13  14
ATOM     14  P   UNL     1     -37.572  22.659   2.183  0.00  0.00    +0.528 P 
ATOM     15  O   UNL     1     -38.330  23.421   1.135  0.00  0.00    -0.216 OA
BRANCH  14  16
ATOM     16  O   UNL     1     -36.020  22.356   1.845  0.00  0.00    -0.293 OA
ATOM     17  H   UNL     1     -35.962  21.597   1.243  0.00  0.00    +0.223 HD
ENDBRANCH  14  16
BRANCH  14  18
ATOM     18  O   UNL     1     -38.167  21.188   2.502  0.00  0.00    -0.293 OA
ATOM     19  H   UNL     1     -37.739  20.534   1.926  0.00  0.00    +0.223 HD
ENDBRANCH  14  18
ENDBRANCH  13  14
ENDBRANCH   2  13
TORSDOF 6
ENDMDL
MODEL 8
REMARK VINA RESULT:      -5.3      2.984      3.973
REMARK  Name = 191397
REMARK  6 active torsions:
REMARK  status: ('A' for Active; 'I' for Inactive)
REMARK    1  A    between atoms: C_1  and  C_9
REMARK    2  A    between atoms: C_2  and  O_13
REMARK    3  A    between atoms: N_8  and  O_11
REMARK    4  A    between atoms: O_13  and  P_14
REMARK    5  A    between atoms: P_14  and  O_16
REMARK    6  A    between atoms: P_14  and  O_18
REMARK                            x       y       z     vdW  Elec       q    Type
REMARK                         _______ _______ _______ _____ _____    ______ ____
ROOT
ATOM      1  C   UNL     1     -36.675  25.169   4.186  0.00  0.00    +0.090 C 
ATOM      2  C   UNL     1     -36.264  23.849   4.370  0.00  0.00    +0.153 C 
ATOM      3  C   UNL     1     -35.915  26.216   4.710  0.00  0.00    +0.008 C 
ATOM      4  C   UNL     1     -35.095  23.576   5.079  0.00  0.00    +0.038 C 
ATOM      5  C   UNL     1     -34.335  24.621   5.604  0.00  0.00    +0.003 C 
ATOM      6  C   UNL     1     -34.745  25.942   5.419  0.00  0.00    +0.000 C 
ENDROOT
BRANCH   1   9
ATOM      7  O   UNL     1     -37.868  26.271   2.490  0.00  0.00    -0.268 OA
ATOM      8  N   UNL     1     -39.060  24.863   3.872  0.00  0.00    -0.193 N 
ATOM      9  C   UNL     1     -37.892  25.479   3.449  0.00  0.00    +0.271 C 
ATOM     10  H   UNL     1     -39.068  24.238   4.633  0.00  0.00    +0.183 HD
BRANCH   8  11
ATOM     11  O   UNL     1     -40.231  25.176   3.166  0.00  0.00    -0.295 OA
ATOM     12  H   UNL     1     -40.022  25.285   2.225  0.00  0.00    +0.241 HD
ENDBRANCH   8  11
ENDBRANCH   1   9
BRANCH   2  13
ATOM     13  O   UNL     1     -36.992  22.813   3.866  0.00  0.00    -0.403 OA
BRANCH  13  14
ATOM     14  P   UNL     1     -36.488  21.794   2.715  0.00  0.00    +0.528 P 
ATOM     15  O   UNL     1     -35.746  22.430   1.575  0.00  0.00    -0.216 OA
BRANCH  14  16
ATOM     16  O   UNL     1     -35.682  20.650   3.525  0.00  0.00    -0.293 OA
ATOM     17  H   UNL     1     -35.024  21.066   4.104  0.00  0.00    +0.223 HD
ENDBRANCH  14  16
BRANCH  14  18
ATOM     18  O   UNL     1     -37.854  21.040   2.285  0.00  0.00    -0.293 OA
ATOM     19  H   UNL     1     -38.421  21.654   1.792  0.00  0.00    +0.223 HD
ENDBRANCH  14  18
ENDBRANCH  13  14
ENDBRANCH   2  13
TORSDOF 6
ENDMDL
MODEL 9
REMARK VINA RESULT:      -5.1      1.587      2.051
REMARK  Name = 191397
REMARK  6 active torsions:
REMARK  status: ('A' for Active; 'I' for Inactive)
REMARK    1  A    between atoms: C_1  and  C_9
REMARK    2  A    between atoms: C_2  and  O_13
REMARK    3  A    between atoms: N_8  and  O_11
REMARK    4  A    between atoms: O_13  and  P_14
REMARK    5  A    between atoms: P_14  and  O_16
REMARK    6  A    between atoms: P_14  and  O_18
REMARK                            x       y       z     vdW  Elec       q    Type
REMARK                         _______ _______ _______ _____ _____    ______ ____
ROOT
ATOM      1  C   UNL     1     -37.607  23.388   2.992  0.00  0.00    +0.090 C 
ATOM      2  C   UNL     1     -36.541  23.379   3.892  0.00  0.00    +0.153 C 
ATOM      3  C   UNL     1     -37.632  22.484   1.930  0.00  0.00    +0.008 C 
ATOM      4  C   UNL     1     -35.499  22.466   3.728  0.00  0.00    +0.038 C 
ATOM      5  C   UNL     1     -35.523  21.563   2.666  0.00  0.00    +0.003 C 
ATOM      6  C   UNL     1     -36.590  21.572   1.767  0.00  0.00    +0.000 C 
ENDROOT
BRANCH   1   9
ATOM      7  O   UNL     1     -39.884  23.933   3.172  0.00  0.00    -0.268 OA
ATOM      8  N   UNL     1     -38.376  25.675   3.241  0.00  0.00    -0.193 N 
ATOM      9  C   UNL     1     -38.706  24.332   3.144  0.00  0.00    +0.271 C 
ATOM     10  H   UNL     1     -37.440  25.980   3.217  0.00  0.00    +0.183 HD
BRANCH   8  11
ATOM     11  O   UNL     1     -39.440  26.579   3.374  0.00  0.00    -0.295 OA
ATOM     12  H   UNL     1     -39.979  26.334   4.141  0.00  0.00    +0.241 HD
ENDBRANCH   8  11
ENDBRANCH   1   9
BRANCH   2  13
ATOM     13  O   UNL     1     -36.499  24.254   4.936  0.00  0.00    -0.403 OA
BRANCH  13  14
ATOM     14  P   UNL     1     -35.549  25.561   5.018  0.00  0.00    +0.528 P 
ATOM     15  O   UNL     1     -34.327  25.413   5.878  0.00  0.00    -0.216 OA
BRANCH  14  16
ATOM     16  O   UNL     1     -35.275  25.949   3.472  0.00  0.00    -0.293 OA
ATOM     17  H   UNL     1     -35.889  25.459   2.902  0.00  0.00    +0.223 HD
ENDBRANCH  14  16
BRANCH  14  18
ATOM     18  O   UNL     1     -36.574  26.715   5.505  0.00  0.00    -0.293 OA
ATOM     19  H   UNL     1     -36.435  26.893   6.449  0.00  0.00    +0.223 HD
ENDBRANCH  14  18
ENDBRANCH  13  14
ENDBRANCH   2  13
TORSDOF 6
ENDMDL
