MODEL 1
REMARK VINA RESULT:      -5.8      0.000      0.000
REMARK  Name = 195718
REMARK  5 active torsions:
REMARK  status: ('A' for Active; 'I' for Inactive)
REMARK    1  A    between atoms: N_2  and  CA_18
REMARK    2  A    between atoms: CA_18  and  C_20
REMARK    3  A    between atoms: CA_18  and  CB_23
REMARK    4  A    between atoms: C_20  and  O_21
REMARK    5  A    between atoms: CB_23  and  OG1_25
REMARK                            x       y       z     vdW  Elec       q    Type
REMARK                         _______ _______ _______ _____ _____    ______ ____
ROOT
ATOM      1  O   UNL     1     -37.483  26.960   2.381  0.00  0.00    -0.252 OA
ATOM      2  N   UNL     1     -38.582  24.946   2.407  0.00  0.00    -0.279 N 
ATOM      3  N   UNL     1     -36.527  25.166   3.559  0.00  0.00    -0.229 N 
ATOM      4  N   UNL     1     -35.552  23.303   5.797  0.00  0.00    -0.270 NA
ATOM      5  N   UNL     1     -36.482  23.173   2.242  0.00  0.00    -0.232 NA
ATOM      6  N   UNL     1     -35.187  21.122   5.525  0.00  0.00    -0.307 N 
ATOM      7  N   UNL     1     -35.800  21.024   3.174  0.00  0.00    -0.232 NA
ATOM      8  C   ACE A   0     -37.519  25.785   2.754  0.00  0.00    +0.309 C 
ATOM      9  C   UNL     1     -36.280  23.743   3.419  0.00  0.00    +0.134 C 
ATOM     10  C   UNL     1     -35.850  23.039   4.491  0.00  0.00    +0.165 C 
ATOM     11  C   UNL     1     -35.745  25.945   4.532  0.00  0.00    +0.123 C 
ATOM     12  C   UNL     1     -35.616  21.677   4.346  0.00  0.00    +0.125 C 
ATOM     13  C   UNL     1     -35.160  22.125   6.375  0.00  0.00    +0.163 C 
ATOM     14  C   UNL     1     -36.229  21.843   2.190  0.00  0.00    +0.253 C 
ATOM     15  H   UNL     1     -38.575  24.015   2.726  0.00  0.00    +0.152 HD
ATOM     16  H   UNL     1     -35.608  24.180   6.241  0.00  0.00    +0.126 HD
ATOM     17  H   UNL     1     -34.953  20.181   5.696  0.00  0.00    +0.149 HD
ENDROOT
BRANCH   2  18
ATOM     18  CA  UNL     1     -39.690  25.394   1.601  0.00  0.00    +0.199 C 
BRANCH  18  20
ATOM     19  OXT UNL     1     -41.188  27.224   2.197  0.00  0.00    -0.248 OA
ATOM     20  C   UNL     1     -40.612  26.189   2.509  0.00  0.00    +0.334 C 
BRANCH  20  21
ATOM     21  O   UNL     1     -40.698  25.643   3.750  0.00  0.00    -0.479 OA
ATOM     22  H   UNL     1     -41.186  26.078   4.421  0.00  0.00    +0.295 HD
ENDBRANCH  20  21
ENDBRANCH  18  20
BRANCH  18  23
ATOM     23  CB  UNL     1     -40.441  24.243   0.922  0.00  0.00    +0.139 C 
ATOM     24  CG2 UNL     1     -39.998  22.874   1.425  0.00  0.00    +0.034 C 
BRANCH  23  25
ATOM     25  OG1 UNL     1     -41.848  24.375   1.125  0.00  0.00    -0.382 OA
ATOM     26  HG1 UNL     1     -42.093  23.955   1.964  0.00  0.00    +0.210 HD
ENDBRANCH  23  25
ENDBRANCH  18  23
ENDBRANCH   2  18
TORSDOF 5
ENDMDL
MODEL 2
REMARK VINA RESULT:      -5.7      4.084      6.202
REMARK  Name = 195718
REMARK  5 active torsions:
REMARK  status: ('A' for Active; 'I' for Inactive)
REMARK    1  A    between atoms: N_2  and  CA_18
REMARK    2  A    between atoms: CA_18  and  C_20
REMARK    3  A    between atoms: CA_18  and  CB_23
REMARK    4  A    between atoms: C_20  and  O_21
REMARK    5  A    between atoms: CB_23  and  OG1_25
REMARK                            x       y       z     vdW  Elec       q    Type
REMARK                         _______ _______ _______ _____ _____    ______ ____
ROOT
ATOM      1  O   UNL     1     -33.771  24.781   1.705  0.00  0.00    -0.252 OA
ATOM      2  N   UNL     1     -34.968  25.574   3.495  0.00  0.00    -0.279 N 
ATOM      3  N   UNL     1     -33.036  26.738   2.779  0.00  0.00    -0.229 N 
ATOM      4  N   UNL     1     -32.397  29.668   3.439  0.00  0.00    -0.270 NA
ATOM      5  N   UNL     1     -32.955  26.462   5.151  0.00  0.00    -0.232 NA
ATOM      6  N   UNL     1     -32.117  30.440   5.510  0.00  0.00    -0.307 N 
ATOM      7  N   UNL     1     -32.484  28.325   6.652  0.00  0.00    -0.232 NA
ATOM      8  C   ACE A   0     -33.906  25.632   2.588  0.00  0.00    +0.309 C 
ATOM      9  C   UNL     1     -32.848  27.276   4.114  0.00  0.00    +0.134 C 
ATOM     10  C   UNL     1     -32.569  28.592   4.261  0.00  0.00    +0.165 C 
ATOM     11  C   UNL     1     -32.322  27.345   1.645  0.00  0.00    +0.123 C 
ATOM     12  C   UNL     1     -32.390  29.097   5.543  0.00  0.00    +0.125 C 
ATOM     13  C   UNL     1     -32.127  30.752   4.232  0.00  0.00    +0.163 C 
ATOM     14  C   UNL     1     -32.766  27.038   6.362  0.00  0.00    +0.253 C 
ATOM     15  H   UNL     1     -35.041  26.272   4.184  0.00  0.00    +0.152 HD
ATOM     16  H   UNL     1     -32.454  29.665   2.456  0.00  0.00    +0.126 HD
ATOM     17  H   UNL     1     -31.949  31.038   6.274  0.00  0.00    +0.149 HD
ENDROOT
BRANCH   2  18
ATOM     18  CA  UNL     1     -35.961  24.530   3.458  0.00  0.00    +0.199 C 
BRANCH  18  20
ATOM     19  OXT UNL     1     -38.359  24.641   3.882  0.00  0.00    -0.248 OA
ATOM     20  C   UNL     1     -37.238  25.105   4.044  0.00  0.00    +0.334 C 
BRANCH  20  21
ATOM     21  O   UNL     1     -37.006  26.244   4.748  0.00  0.00    -0.479 OA
ATOM     22  H   UNL     1     -36.252  26.307   5.301  0.00  0.00    +0.295 HD
ENDBRANCH  20  21
ENDBRANCH  18  20
BRANCH  18  23
ATOM     23  CB  UNL     1     -35.529  23.266   4.208  0.00  0.00    +0.139 C 
ATOM     24  CG2 UNL     1     -35.077  23.553   5.635  0.00  0.00    +0.034 C 
BRANCH  23  25
ATOM     25  OG1 UNL     1     -36.594  22.317   4.245  0.00  0.00    -0.382 OA
ATOM     26  HG1 UNL     1     -37.316  22.664   4.792  0.00  0.00    +0.210 HD
ENDBRANCH  23  25
ENDBRANCH  18  23
ENDBRANCH   2  18
TORSDOF 5
ENDMDL
MODEL 3
REMARK VINA RESULT:      -5.6      3.109      5.892
REMARK  Name = 195718
REMARK  5 active torsions:
REMARK  status: ('A' for Active; 'I' for Inactive)
REMARK    1  A    between atoms: N_2  and  CA_18
REMARK    2  A    between atoms: CA_18  and  C_20
REMARK    3  A    between atoms: CA_18  and  CB_23
REMARK    4  A    between atoms: C_20  and  O_21
REMARK    5  A    between atoms: CB_23  and  OG1_25
REMARK                            x       y       z     vdW  Elec       q    Type
REMARK                         _______ _______ _______ _____ _____    ______ ____
ROOT
ATOM      1  O   UNL     1     -34.470  23.732   2.056  0.00  0.00    -0.252 OA
ATOM      2  N   UNL     1     -36.141  23.024   3.460  0.00  0.00    -0.279 N 
ATOM      3  N   UNL     1     -36.487  22.973   1.120  0.00  0.00    -0.229 N 
ATOM      4  N   UNL     1     -38.612  21.280  -0.312  0.00  0.00    -0.270 NA
ATOM      5  N   UNL     1     -38.380  23.981   2.173  0.00  0.00    -0.232 NA
ATOM      6  N   UNL     1     -40.805  21.497   0.026  0.00  0.00    -0.307 N 
ATOM      7  N   UNL     1     -40.662  23.283   1.670  0.00  0.00    -0.232 NA
ATOM      8  C   ACE A   0     -35.610  23.281   2.193  0.00  0.00    +0.309 C 
ATOM      9  C   UNL     1     -37.921  23.085   1.315  0.00  0.00    +0.134 C 
ATOM     10  C   UNL     1     -38.748  22.273   0.616  0.00  0.00    +0.165 C 
ATOM     11  C   UNL     1     -35.965  22.542  -0.186  0.00  0.00    +0.123 C 
ATOM     12  C   UNL     1     -40.118  22.390   0.809  0.00  0.00    +0.125 C 
ATOM     13  C   UNL     1     -39.871  20.847  -0.635  0.00  0.00    +0.163 C 
ATOM     14  C   UNL     1     -39.728  24.026   2.300  0.00  0.00    +0.253 C 
ATOM     15  H   UNL     1     -37.055  22.665   3.527  0.00  0.00    +0.152 HD
ATOM     16  H   UNL     1     -37.766  20.940  -0.681  0.00  0.00    +0.126 HD
ATOM     17  H   UNL     1     -41.779  21.371  -0.029  0.00  0.00    +0.149 HD
ENDROOT
BRANCH   2  18
ATOM     18  CA  UNL     1     -35.400  23.266   4.673  0.00  0.00    +0.199 C 
BRANCH  18  20
ATOM     19  OXT UNL     1     -35.933  22.064   6.727  0.00  0.00    -0.248 OA
ATOM     20  C   UNL     1     -35.575  22.043   5.556  0.00  0.00    +0.334 C 
BRANCH  20  21
ATOM     21  O   UNL     1     -35.241  20.897   4.908  0.00  0.00    -0.479 OA
ATOM     22  H   UNL     1     -34.479  20.416   5.168  0.00  0.00    +0.295 HD
ENDBRANCH  20  21
ENDBRANCH  18  20
BRANCH  18  23
ATOM     23  CB  UNL     1     -35.843  24.540   5.400  0.00  0.00    +0.139 C 
ATOM     24  CG2 UNL     1     -34.808  25.656   5.316  0.00  0.00    +0.034 C 
BRANCH  23  25
ATOM     25  OG1 UNL     1     -37.078  25.017   4.867  0.00  0.00    -0.382 OA
ATOM     26  HG1 UNL     1     -36.906  25.529   4.062  0.00  0.00    +0.210 HD
ENDBRANCH  23  25
ENDBRANCH  18  23
ENDBRANCH   2  18
TORSDOF 5
ENDMDL
MODEL 4
REMARK VINA RESULT:      -5.6      1.980      4.779
REMARK  Name = 195718
REMARK  5 active torsions:
REMARK  status: ('A' for Active; 'I' for Inactive)
REMARK    1  A    between atoms: N_2  and  CA_18
REMARK    2  A    between atoms: CA_18  and  C_20
REMARK    3  A    between atoms: CA_18  and  CB_23
REMARK    4  A    between atoms: C_20  and  O_21
REMARK    5  A    between atoms: CB_23  and  OG1_25
REMARK                            x       y       z     vdW  Elec       q    Type
REMARK                         _______ _______ _______ _____ _____    ______ ____
ROOT
ATOM      1  O   UNL     1     -38.214  26.047   3.363  0.00  0.00    -0.252 OA
ATOM      2  N   UNL     1     -36.022  25.370   3.281  0.00  0.00    -0.279 N 
ATOM      3  N   UNL     1     -37.734  23.846   2.694  0.00  0.00    -0.229 N 
ATOM      4  N   UNL     1     -37.333  21.301   1.023  0.00  0.00    -0.270 NA
ATOM      5  N   UNL     1     -36.214  22.781   4.198  0.00  0.00    -0.232 NA
ATOM      6  N   UNL     1     -36.013  19.612   1.633  0.00  0.00    -0.307 N 
ATOM      7  N   UNL     1     -35.267  20.581   3.735  0.00  0.00    -0.232 NA
ATOM      8  C   ACE A   0     -37.395  25.153   3.131  0.00  0.00    +0.309 C 
ATOM      9  C   UNL     1     -36.884  22.728   3.058  0.00  0.00    +0.134 C 
ATOM     10  C   UNL     1     -36.799  21.665   2.226  0.00  0.00    +0.165 C 
ATOM     11  C   UNL     1     -38.935  23.607   1.878  0.00  0.00    +0.123 C 
ATOM     12  C   UNL     1     -35.983  20.599   2.585  0.00  0.00    +0.125 C 
ATOM     13  C   UNL     1     -36.833  20.065   0.709  0.00  0.00    +0.163 C 
ATOM     14  C   UNL     1     -35.443  21.700   4.468  0.00  0.00    +0.253 C 
ATOM     15  H   UNL     1     -35.402  24.632   3.086  0.00  0.00    +0.152 HD
ATOM     16  H   UNL     1     -37.962  21.830   0.482  0.00  0.00    +0.126 HD
ATOM     17  H   UNL     1     -35.528  18.755   1.640  0.00  0.00    +0.149 HD
ENDROOT
BRANCH   2  18
ATOM     18  CA  UNL     1     -35.481  26.636   3.709  0.00  0.00    +0.199 C 
BRANCH  18  20
ATOM     19  OXT UNL     1     -34.265  27.462   1.765  0.00  0.00    -0.248 OA
ATOM     20  C   UNL     1     -35.270  27.477   2.463  0.00  0.00    +0.334 C 
BRANCH  20  21
ATOM     21  O   UNL     1     -36.321  28.304   2.225  0.00  0.00    -0.479 OA
ATOM     22  H   UNL     1     -37.198  27.985   2.314  0.00  0.00    +0.295 HD
ENDBRANCH  20  21
ENDBRANCH  18  20
BRANCH  18  23
ATOM     23  CB  UNL     1     -34.180  26.491   4.506  0.00  0.00    +0.139 C 
ATOM     24  CG2 UNL     1     -34.389  25.821   5.858  0.00  0.00    +0.034 C 
BRANCH  23  25
ATOM     25  OG1 UNL     1     -33.220  25.741   3.763  0.00  0.00    -0.382 OA
ATOM     26  HG1 UNL     1     -33.282  24.804   4.009  0.00  0.00    +0.210 HD
ENDBRANCH  23  25
ENDBRANCH  18  23
ENDBRANCH   2  18
TORSDOF 5
ENDMDL
MODEL 5
REMARK VINA RESULT:      -5.5      3.658      6.636
REMARK  Name = 195718
REMARK  5 active torsions:
REMARK  status: ('A' for Active; 'I' for Inactive)
REMARK    1  A    between atoms: N_2  and  CA_18
REMARK    2  A    between atoms: CA_18  and  C_20
REMARK    3  A    between atoms: CA_18  and  CB_23
REMARK    4  A    between atoms: C_20  and  O_21
REMARK    5  A    between atoms: CB_23  and  OG1_25
REMARK                            x       y       z     vdW  Elec       q    Type
REMARK                         _______ _______ _______ _____ _____    ______ ____
ROOT
ATOM      1  O   UNL     1     -34.813  29.205   3.076  0.00  0.00    -0.252 OA
ATOM      2  N   UNL     1     -33.557  27.509   3.979  0.00  0.00    -0.279 N 
ATOM      3  N   UNL     1     -35.675  27.020   3.043  0.00  0.00    -0.229 N 
ATOM      4  N   UNL     1     -36.601  24.236   2.134  0.00  0.00    -0.270 NA
ATOM      5  N   UNL     1     -35.499  25.972   5.183  0.00  0.00    -0.232 NA
ATOM      6  N   UNL     1     -36.776  22.481   3.496  0.00  0.00    -0.307 N 
ATOM      7  N   UNL     1     -36.049  23.619   5.518  0.00  0.00    -0.232 NA
ATOM      8  C   ACE A   0     -34.700  28.006   3.343  0.00  0.00    +0.309 C 
ATOM      9  C   UNL     1     -35.801  25.855   3.900  0.00  0.00    +0.134 C 
ATOM     10  C   UNL     1     -36.222  24.685   3.366  0.00  0.00    +0.165 C 
ATOM     11  C   UNL     1     -36.561  27.160   1.877  0.00  0.00    +0.123 C 
ATOM     12  C   UNL     1     -36.340  23.577   4.196  0.00  0.00    +0.125 C 
ATOM     13  C   UNL     1     -36.924  22.911   2.261  0.00  0.00    +0.163 C 
ATOM     14  C   UNL     1     -35.642  24.842   5.917  0.00  0.00    +0.253 C 
ATOM     15  H   UNL     1     -33.506  26.546   4.174  0.00  0.00    +0.152 HD
ATOM     16  H   UNL     1     -36.636  24.768   1.306  0.00  0.00    +0.126 HD
ATOM     17  H   UNL     1     -36.943  21.575   3.841  0.00  0.00    +0.149 HD
ENDROOT
BRANCH   2  18
ATOM     18  CA  UNL     1     -32.453  28.354   4.357  0.00  0.00    +0.199 C 
BRANCH  18  20
ATOM     19  OXT UNL     1     -30.432  27.264   3.538  0.00  0.00    -0.248 OA
ATOM     20  C   UNL     1     -31.326  28.085   3.376  0.00  0.00    +0.334 C 
BRANCH  20  21
ATOM     21  O   UNL     1     -31.388  28.903   2.294  0.00  0.00    -0.479 OA
ATOM     22  H   UNL     1     -31.936  29.663   2.312  0.00  0.00    +0.295 HD
ENDBRANCH  20  21
ENDBRANCH  18  20
BRANCH  18  23
ATOM     23  CB  UNL     1     -31.994  28.128   5.802  0.00  0.00    +0.139 C 
ATOM     24  CG2 UNL     1     -31.782  29.431   6.563  0.00  0.00    +0.034 C 
BRANCH  23  25
ATOM     25  OG1 UNL     1     -32.944  27.331   6.509  0.00  0.00    -0.382 OA
ATOM     26  HG1 UNL     1     -33.527  27.908   7.028  0.00  0.00    +0.210 HD
ENDBRANCH  23  25
ENDBRANCH  18  23
ENDBRANCH   2  18
TORSDOF 5
ENDMDL
MODEL 6
REMARK VINA RESULT:      -5.4      2.913      6.011
REMARK  Name = 195718
REMARK  5 active torsions:
REMARK  status: ('A' for Active; 'I' for Inactive)
REMARK    1  A    between atoms: N_2  and  CA_18
REMARK    2  A    between atoms: CA_18  and  C_20
REMARK    3  A    between atoms: CA_18  and  CB_23
REMARK    4  A    between atoms: C_20  and  O_21
REMARK    5  A    between atoms: CB_23  and  OG1_25
REMARK                            x       y       z     vdW  Elec       q    Type
REMARK                         _______ _______ _______ _____ _____    ______ ____
ROOT
ATOM      1  O   UNL     1     -34.556  23.648   2.000  0.00  0.00    -0.252 OA
ATOM      2  N   UNL     1     -36.241  23.450   3.547  0.00  0.00    -0.279 N 
ATOM      3  N   UNL     1     -36.777  23.507   1.243  0.00  0.00    -0.229 N 
ATOM      4  N   UNL     1     -39.409  22.505   0.019  0.00  0.00    -0.270 NA
ATOM      5  N   UNL     1     -38.205  25.017   2.421  0.00  0.00    -0.232 NA
ATOM      6  N   UNL     1     -41.410  23.345   0.525  0.00  0.00    -0.307 N 
ATOM      7  N   UNL     1     -40.625  25.009   2.114  0.00  0.00    -0.232 NA
ATOM      8  C   ACE A   0     -35.763  23.546   2.236  0.00  0.00    +0.309 C 
ATOM      9  C   UNL     1     -38.096  24.028   1.548  0.00  0.00    +0.134 C 
ATOM     10  C   UNL     1     -39.176  23.492   0.933  0.00  0.00    +0.165 C 
ATOM     11  C   UNL     1     -36.509  22.947  -0.091  0.00  0.00    +0.123 C 
ATOM     12  C   UNL     1     -40.434  24.000   1.232  0.00  0.00    +0.125 C 
ATOM     13  C   UNL     1     -40.761  22.455  -0.194  0.00  0.00    +0.163 C 
ATOM     14  C   UNL     1     -39.468  25.449   2.653  0.00  0.00    +0.253 C 
ATOM     15  H   UNL     1     -37.210  23.369   3.693  0.00  0.00    +0.152 HD
ATOM     16  H   UNL     1     -38.730  21.936  -0.409  0.00  0.00    +0.126 HD
ATOM     17  H   UNL     1     -42.381  23.507   0.549  0.00  0.00    +0.149 HD
ENDROOT
BRANCH   2  18
ATOM     18  CA  UNL     1     -35.365  23.463   4.692  0.00  0.00    +0.199 C 
BRANCH  18  20
ATOM     19  OXT UNL     1     -35.911  22.114   6.648  0.00  0.00    -0.248 OA
ATOM     20  C   UNL     1     -35.615  22.179   5.462  0.00  0.00    +0.334 C 
BRANCH  20  21
ATOM     21  O   UNL     1     -35.426  21.078   4.689  0.00  0.00    -0.479 OA
ATOM     22  H   UNL     1     -34.637  20.986   4.190  0.00  0.00    +0.295 HD
ENDBRANCH  20  21
ENDBRANCH  18  20
BRANCH  18  23
ATOM     23  CB  UNL     1     -35.568  24.692   5.585  0.00  0.00    +0.139 C 
ATOM     24  CG2 UNL     1     -34.377  25.642   5.560  0.00  0.00    +0.034 C 
BRANCH  23  25
ATOM     25  OG1 UNL     1     -36.737  25.409   5.191  0.00  0.00    -0.382 OA
ATOM     26  HG1 UNL     1     -37.507  24.822   5.238  0.00  0.00    +0.210 HD
ENDBRANCH  23  25
ENDBRANCH  18  23
ENDBRANCH   2  18
TORSDOF 5
ENDMDL
MODEL 7
REMARK VINA RESULT:      -5.3      3.464      5.136
REMARK  Name = 195718
REMARK  5 active torsions:
REMARK  status: ('A' for Active; 'I' for Inactive)
REMARK    1  A    between atoms: N_2  and  CA_18
REMARK    2  A    between atoms: CA_18  and  C_20
REMARK    3  A    between atoms: CA_18  and  CB_23
REMARK    4  A    between atoms: C_20  and  O_21
REMARK    5  A    between atoms: CB_23  and  OG1_25
REMARK                            x       y       z     vdW  Elec       q    Type
REMARK                         _______ _______ _______ _____ _____    ______ ____
ROOT
ATOM      1  O   UNL     1     -34.663  25.076   0.899  0.00  0.00    -0.252 OA
ATOM      2  N   UNL     1     -35.806  25.864   2.726  0.00  0.00    -0.279 N 
ATOM      3  N   UNL     1     -33.530  26.443   2.438  0.00  0.00    -0.229 N 
ATOM      4  N   UNL     1     -32.130  28.821   3.786  0.00  0.00    -0.270 NA
ATOM      5  N   UNL     1     -33.878  25.713   4.686  0.00  0.00    -0.232 NA
ATOM      6  N   UNL     1     -31.929  29.053   5.994  0.00  0.00    -0.307 N 
ATOM      7  N   UNL     1     -33.083  27.000   6.600  0.00  0.00    -0.232 NA
ATOM      8  C   ACE A   0     -34.658  25.741   1.938  0.00  0.00    +0.309 C 
ATOM      9  C   UNL     1     -33.380  26.628   3.870  0.00  0.00    +0.134 C 
ATOM     10  C   UNL     1     -32.739  27.726   4.330  0.00  0.00    +0.165 C 
ATOM     11  C   UNL     1     -32.510  26.985   1.527  0.00  0.00    +0.123 C 
ATOM     12  C   UNL     1     -32.600  27.892   5.702  0.00  0.00    +0.125 C 
ATOM     13  C   UNL     1     -31.661  29.586   4.821  0.00  0.00    +0.163 C 
ATOM     14  C   UNL     1     -33.698  25.955   6.007  0.00  0.00    +0.253 C 
ATOM     15  H   UNL     1     -35.761  26.404   3.547  0.00  0.00    +0.152 HD
ATOM     16  H   UNL     1     -32.044  29.022   2.827  0.00  0.00    +0.126 HD
ATOM     17  H   UNL     1     -31.699  29.407   6.883  0.00  0.00    +0.149 HD
ENDROOT
BRANCH   2  18
ATOM     18  CA  UNL     1     -37.054  25.231   2.380  0.00  0.00    +0.199 C 
BRANCH  18  20
ATOM     19  OXT UNL     1     -38.254  27.123   1.420  0.00  0.00    -0.248 OA
ATOM     20  C   UNL     1     -38.111  26.319   2.332  0.00  0.00    +0.334 C 
BRANCH  20  21
ATOM     21  O   UNL     1     -38.872  26.338   3.458  0.00  0.00    -0.479 OA
ATOM     22  H   UNL     1     -38.722  26.990   4.114  0.00  0.00    +0.295 HD
ENDBRANCH  20  21
ENDBRANCH  18  20
BRANCH  18  23
ATOM     23  CB  UNL     1     -37.450  24.118   3.356  0.00  0.00    +0.139 C 
ATOM     24  CG2 UNL     1     -37.021  22.736   2.880  0.00  0.00    +0.034 C 
BRANCH  23  25
ATOM     25  OG1 UNL     1     -36.883  24.357   4.644  0.00  0.00    -0.382 OA
ATOM     26  HG1 UNL     1     -36.224  23.673   4.839  0.00  0.00    +0.210 HD
ENDBRANCH  23  25
ENDBRANCH  18  23
ENDBRANCH   2  18
TORSDOF 5
ENDMDL
MODEL 8
REMARK VINA RESULT:      -5.3      3.648      6.115
REMARK  Name = 195718
REMARK  5 active torsions:
REMARK  status: ('A' for Active; 'I' for Inactive)
REMARK    1  A    between atoms: N_2  and  CA_18
REMARK    2  A    between atoms: CA_18  and  C_20
REMARK    3  A    between atoms: CA_18  and  CB_23
REMARK    4  A    between atoms: C_20  and  O_21
REMARK    5  A    between atoms: CB_23  and  OG1_25
REMARK                            x       y       z     vdW  Elec       q    Type
REMARK                         _______ _______ _______ _____ _____    ______ ____
ROOT
ATOM      1  O   UNL     1     -35.721  24.501   0.743  0.00  0.00    -0.252 OA
ATOM      2  N   UNL     1     -35.583  24.919   2.996  0.00  0.00    -0.279 N 
ATOM      3  N   UNL     1     -35.358  26.708   1.464  0.00  0.00    -0.229 N 
ATOM      4  N   UNL     1     -35.735  29.677   2.152  0.00  0.00    -0.270 NA
ATOM      5  N   UNL     1     -33.601  26.829   3.079  0.00  0.00    -0.232 NA
ATOM      6  N   UNL     1     -34.492  30.773   3.643  0.00  0.00    -0.307 N 
ATOM      7  N   UNL     1     -33.075  28.896   4.262  0.00  0.00    -0.232 NA
ATOM      8  C   ACE A   0     -35.563  25.317   1.656  0.00  0.00    +0.309 C 
ATOM      9  C   UNL     1     -34.569  27.454   2.428  0.00  0.00    +0.134 C 
ATOM     10  C   UNL     1     -34.843  28.762   2.634  0.00  0.00    +0.165 C 
ATOM     11  C   UNL     1     -35.932  27.406   0.303  0.00  0.00    +0.123 C 
ATOM     12  C   UNL     1     -34.082  29.466   3.558  0.00  0.00    +0.125 C 
ATOM     13  C   UNL     1     -35.486  30.866   2.786  0.00  0.00    +0.163 C 
ATOM     14  C   UNL     1     -32.910  27.591   3.960  0.00  0.00    +0.253 C 
ATOM     15  H   UNL     1     -35.454  25.600   3.694  0.00  0.00    +0.152 HD
ATOM     16  H   UNL     1     -36.429  29.513   1.474  0.00  0.00    +0.126 HD
ATOM     17  H   UNL     1     -34.124  31.482   4.217  0.00  0.00    +0.149 HD
ENDROOT
BRANCH   2  18
ATOM     18  CA  UNL     1     -35.786  23.548   3.393  0.00  0.00    +0.199 C 
BRANCH  18  20
ATOM     19  OXT UNL     1     -38.155  24.060   3.653  0.00  0.00    -0.248 OA
ATOM     20  C   UNL     1     -37.278  23.276   3.317  0.00  0.00    +0.334 C 
BRANCH  20  21
ATOM     21  O   UNL     1     -37.542  22.022   2.867  0.00  0.00    -0.479 OA
ATOM     22  H   UNL     1     -37.771  21.885   1.968  0.00  0.00    +0.295 HD
ENDBRANCH  20  21
ENDBRANCH  18  20
BRANCH  18  23
ATOM     23  CB  UNL     1     -35.240  23.244   4.792  0.00  0.00    +0.139 C 
ATOM     24  CG2 UNL     1     -34.887  24.503   5.574  0.00  0.00    +0.034 C 
BRANCH  23  25
ATOM     25  OG1 UNL     1     -36.187  22.485   5.545  0.00  0.00    -0.382 OA
ATOM     26  HG1 UNL     1     -37.071  22.866   5.428  0.00  0.00    +0.210 HD
ENDBRANCH  23  25
ENDBRANCH  18  23
ENDBRANCH   2  18
TORSDOF 5
ENDMDL
MODEL 9
REMARK VINA RESULT:      -5.3      1.692      2.176
REMARK  Name = 195718
REMARK  5 active torsions:
REMARK  status: ('A' for Active; 'I' for Inactive)
REMARK    1  A    between atoms: N_2  and  CA_18
REMARK    2  A    between atoms: CA_18  and  C_20
REMARK    3  A    between atoms: CA_18  and  CB_23
REMARK    4  A    between atoms: C_20  and  O_21
REMARK    5  A    between atoms: CB_23  and  OG1_25
REMARK                            x       y       z     vdW  Elec       q    Type
REMARK                         _______ _______ _______ _____ _____    ______ ____
ROOT
ATOM      1  O   UNL     1     -37.545  26.096   1.325  0.00  0.00    -0.252 OA
ATOM      2  N   UNL     1     -38.334  23.943   1.427  0.00  0.00    -0.279 N 
ATOM      3  N   UNL     1     -36.641  24.635   2.929  0.00  0.00    -0.229 N 
ATOM      4  N   UNL     1     -35.948  23.234   5.572  0.00  0.00    -0.270 NA
ATOM      5  N   UNL     1     -36.026  22.538   1.962  0.00  0.00    -0.232 NA
ATOM      6  N   UNL     1     -35.234  21.127   5.709  0.00  0.00    -0.307 N 
ATOM      7  N   UNL     1     -35.282  20.657   3.324  0.00  0.00    -0.232 NA
ATOM      8  C   ACE A   0     -37.502  24.983   1.855  0.00  0.00    +0.309 C 
ATOM      9  C   UNL     1     -36.175  23.267   3.057  0.00  0.00    +0.134 C 
ATOM     10  C   UNL     1     -35.905  22.774   4.288  0.00  0.00    +0.165 C 
ATOM     11  C   UNL     1     -36.213  25.641   3.913  0.00  0.00    +0.123 C 
ATOM     12  C   UNL     1     -35.458  21.463   4.398  0.00  0.00    +0.125 C 
ATOM     13  C   UNL     1     -35.537  22.213   6.388  0.00  0.00    +0.163 C 
ATOM     14  C   UNL     1     -35.588  21.273   2.163  0.00  0.00    +0.253 C 
ATOM     15  H   UNL     1     -38.270  23.070   1.876  0.00  0.00    +0.152 HD
ATOM     16  H   UNL     1     -36.222  24.135   5.859  0.00  0.00    +0.126 HD
ATOM     17  H   UNL     1     -34.916  20.265   6.063  0.00  0.00    +0.149 HD
ENDROOT
BRANCH   2  18
ATOM     18  CA  UNL     1     -39.283  24.103   0.354  0.00  0.00    +0.199 C 
BRANCH  18  20
ATOM     19  OXT UNL     1     -41.403  24.224   1.552  0.00  0.00    -0.248 OA
ATOM     20  C   UNL     1     -40.620  23.590   0.858  0.00  0.00    +0.334 C 
BRANCH  20  21
ATOM     21  O   UNL     1     -40.841  22.302   0.486  0.00  0.00    -0.479 OA
ATOM     22  H   UNL     1     -40.513  21.987  -0.334  0.00  0.00    +0.295 HD
ENDBRANCH  20  21
ENDBRANCH  18  20
BRANCH  18  23
ATOM     23  CB  UNL     1     -38.861  23.381  -0.930  0.00  0.00    +0.139 C 
ATOM     24  CG2 UNL     1     -38.195  24.310  -1.937  0.00  0.00    +0.034 C 
BRANCH  23  25
ATOM     25  OG1 UNL     1     -37.966  22.310  -0.630  0.00  0.00    -0.382 OA
ATOM     26  HG1 UNL     1     -37.715  22.351   0.306  0.00  0.00    +0.210 HD
ENDBRANCH  23  25
ENDBRANCH  18  23
ENDBRANCH   2  18
TORSDOF 5
ENDMDL
