MODEL 1
REMARK VINA RESULT:      -6.1      0.000      0.000
REMARK  Name = 194829
REMARK  8 active torsions:
REMARK  status: ('A' for Active; 'I' for Inactive)
REMARK    1  A    between atoms: C_11  and  C_26
REMARK    2  A    between atoms: C_18  and  O_22
REMARK    3  A    between atoms: C_19  and  O_24
REMARK    4  A    between atoms: C_26  and  C_27
REMARK    5  A    between atoms: C_27  and  C_28
REMARK    6  A    between atoms: C_28  and  C_29
REMARK    7  A    between atoms: C_29  and  C_30
REMARK    8  A    between atoms: C_30  and  N_31
REMARK                            x       y       z     vdW  Elec       q    Type
REMARK                         _______ _______ _______ _____ _____    ______ ____
ROOT
ATOM      1  O   UNL     1     -35.204  20.634   4.593  0.00  0.00    -0.275 OA
ATOM      2  N   UNL     1     -35.532  22.801   3.825  0.00  0.00    -0.276 N 
ATOM      3  N   UNL     1     -34.415  25.392   3.880  0.00  0.00    -0.231 N 
ATOM      4  N   UNL     1     -32.948  26.869   4.938  0.00  0.00    -0.332 NA
ATOM      5  N   UNL     1     -34.095  27.489   2.911  0.00  0.00    -0.317 NA
ATOM      6  N   UNL     1     -33.762  29.608   1.944  0.00  0.00    -0.335 N 
ATOM      7  C   UNL     1     -35.892  23.759   2.778  0.00  0.00    +0.116 C 
ATOM      8  C   UNL     1     -35.221  23.419   5.111  0.00  0.00    +0.116 C 
ATOM      9  C   UNL     1     -34.784  24.795   2.590  0.00  0.00    +0.125 C 
ATOM     10  C   UNL     1     -34.100  24.446   4.962  0.00  0.00    +0.125 C 
ATOM     11  C   UNL     1     -35.492  21.417   3.683  0.00  0.00    +0.226 C 
ATOM     12  C   UNL     1     -33.791  26.644   3.910  0.00  0.00    +0.203 C 
ATOM     13  C   UNL     1     -32.344  28.071   4.973  0.00  0.00    +0.138 C 
ATOM     14  C   UNL     1     -32.582  29.039   3.985  0.00  0.00    +0.146 C 
ATOM     15  C   UNL     1     -33.473  28.681   2.976  0.00  0.00    +0.178 C 
ATOM     16  C   UNL     1     -31.459  28.392   5.999  0.00  0.00    +0.069 C 
ATOM     17  C   UNL     1     -31.945  30.292   4.031  0.00  0.00    +0.029 C 
ATOM     18  C   UNL     1     -30.821  29.635   6.052  0.00  0.00    +0.174 C 
ATOM     19  C   UNL     1     -31.065  30.586   5.068  0.00  0.00    +0.169 C 
ATOM     20  H   UNL     1     -34.391  29.365   1.226  0.00  0.00    +0.144 HD
ATOM     21  H   UNL     1     -33.335  30.495   1.944  0.00  0.00    +0.144 HD
ENDROOT
BRANCH  18  22
ATOM     22  O   UNL     1     -29.963  29.901   7.077  0.00  0.00    -0.468 OA
ATOM     23  C   UNL     1     -28.716  29.210   7.075  0.00  0.00    +0.253 C 
ENDBRANCH  18  22
BRANCH  19  24
ATOM     24  O   UNL     1     -30.450  31.801   5.107  0.00  0.00    -0.469 OA
ATOM     25  C   UNL     1     -29.647  32.158   3.984  0.00  0.00    +0.253 C 
ENDBRANCH  19  24
BRANCH  11  26
ATOM     26  C   UNL     1     -35.826  20.870   2.318  0.00  0.00    +0.085 C 
BRANCH  26  27
ATOM     27  C   UNL     1     -34.772  19.869   1.875  0.00  0.00    +0.009 C 
BRANCH  27  28
ATOM     28  C   UNL     1     -33.873  20.410   0.759  0.00  0.00    -0.002 C 
BRANCH  28  29
ATOM     29  C   UNL     1     -32.544  19.653   0.699  0.00  0.00    -0.024 C 
BRANCH  29  30
ATOM     30  C   UNL     1     -32.727  18.185   1.080  0.00  0.00    -0.086 C 
BRANCH  30  31
ATOM     31  N   UNL     1     -31.471  17.628   1.568  0.00  0.00    +0.380 N 
ATOM     32  H   UNL     1     -30.690  18.125   1.140  0.00  0.00    -0.089 HD
ATOM     33  H   UNL     1     -31.419  16.639   1.325  0.00  0.00    -0.089 HD
ATOM     34  H   UNL     1     -31.424  17.731   2.582  0.00  0.00    -0.089 HD
ENDBRANCH  30  31
ENDBRANCH  29  30
ENDBRANCH  28  29
ENDBRANCH  27  28
ENDBRANCH  26  27
ENDBRANCH  11  26
TORSDOF 8
ENDMDL
MODEL 2
REMARK VINA RESULT:      -5.9      1.792      2.161
REMARK  Name = 194829
REMARK  8 active torsions:
REMARK  status: ('A' for Active; 'I' for Inactive)
REMARK    1  A    between atoms: C_11  and  C_26
REMARK    2  A    between atoms: C_18  and  O_22
REMARK    3  A    between atoms: C_19  and  O_24
REMARK    4  A    between atoms: C_26  and  C_27
REMARK    5  A    between atoms: C_27  and  C_28
REMARK    6  A    between atoms: C_28  and  C_29
REMARK    7  A    between atoms: C_29  and  C_30
REMARK    8  A    between atoms: C_30  and  N_31
REMARK                            x       y       z     vdW  Elec       q    Type
REMARK                         _______ _______ _______ _____ _____    ______ ____
ROOT
ATOM      1  O   UNL     1     -36.312  22.508   5.207  0.00  0.00    -0.275 OA
ATOM      2  N   UNL     1     -35.899  24.630   4.359  0.00  0.00    -0.276 N 
ATOM      3  N   UNL     1     -34.009  26.725   4.384  0.00  0.00    -0.231 N 
ATOM      4  N   UNL     1     -32.180  27.698   5.460  0.00  0.00    -0.332 NA
ATOM      5  N   UNL     1     -32.999  28.564   3.367  0.00  0.00    -0.317 NA
ATOM      6  N   UNL     1     -31.971  30.421   2.350  0.00  0.00    -0.335 N 
ATOM      7  C   UNL     1     -35.897  25.606   3.269  0.00  0.00    +0.116 C 
ATOM      8  C   UNL     1     -35.447  25.171   5.639  0.00  0.00    +0.116 C 
ATOM      9  C   UNL     1     -34.509  26.223   3.098  0.00  0.00    +0.125 C 
ATOM     10  C   UNL     1     -34.051  25.776   5.508  0.00  0.00    +0.125 C 
ATOM     11  C   UNL     1     -36.303  23.301   4.262  0.00  0.00    +0.226 C 
ATOM     12  C   UNL     1     -33.016  27.710   4.403  0.00  0.00    +0.203 C 
ATOM     13  C   UNL     1     -31.222  28.643   5.485  0.00  0.00    +0.138 C 
ATOM     14  C   UNL     1     -31.103  29.593   4.458  0.00  0.00    +0.146 C 
ATOM     15  C   UNL     1     -32.029  29.496   3.422  0.00  0.00    +0.178 C 
ATOM     16  C   UNL     1     -30.314  28.707   6.539  0.00  0.00    +0.069 C 
ATOM     17  C   UNL     1     -30.099  30.575   4.494  0.00  0.00    +0.029 C 
ATOM     18  C   UNL     1     -29.312  29.681   6.582  0.00  0.00    +0.174 C 
ATOM     19  C   UNL     1     -29.204  30.617   5.559  0.00  0.00    +0.169 C 
ATOM     20  H   UNL     1     -32.621  30.361   1.613  0.00  0.00    +0.144 HD
ATOM     21  H   UNL     1     -31.280  31.122   2.341  0.00  0.00    +0.144 HD
ENDROOT
BRANCH  18  22
ATOM     22  O   UNL     1     -28.447  29.703   7.635  0.00  0.00    -0.468 OA
ATOM     23  C   UNL     1     -27.687  28.520   7.875  0.00  0.00    +0.253 C 
ENDBRANCH  18  22
BRANCH  19  24
ATOM     24  O   UNL     1     -28.233  31.570   5.588  0.00  0.00    -0.469 OA
ATOM     25  C   UNL     1     -27.068  31.335   4.800  0.00  0.00    +0.253 C 
ENDBRANCH  19  24
BRANCH  11  26
ATOM     26  C   UNL     1     -36.751  22.831   2.901  0.00  0.00    +0.085 C 
BRANCH  26  27
ATOM     27  C   UNL     1     -35.613  22.127   2.181  0.00  0.00    +0.009 C 
BRANCH  27  28
ATOM     28  C   UNL     1     -35.463  20.662   2.602  0.00  0.00    -0.002 C 
BRANCH  28  29
ATOM     29  C   UNL     1     -34.640  19.872   1.581  0.00  0.00    -0.024 C 
BRANCH  29  30
ATOM     30  C   UNL     1     -35.494  19.460   0.383  0.00  0.00    -0.086 C 
BRANCH  30  31
ATOM     31  N   UNL     1     -36.689  18.755   0.831  0.00  0.00    +0.380 N 
ATOM     32  H   UNL     1     -37.377  19.431   1.165  0.00  0.00    -0.089 HD
ATOM     33  H   UNL     1     -36.444  18.117   1.588  0.00  0.00    -0.089 HD
ATOM     34  H   UNL     1     -37.083  18.226   0.053  0.00  0.00    -0.089 HD
ENDBRANCH  30  31
ENDBRANCH  29  30
ENDBRANCH  28  29
ENDBRANCH  27  28
ENDBRANCH  26  27
ENDBRANCH  11  26
TORSDOF 8
ENDMDL
MODEL 3
REMARK VINA RESULT:      -5.6      2.633      8.886
REMARK  Name = 194829
REMARK  8 active torsions:
REMARK  status: ('A' for Active; 'I' for Inactive)
REMARK    1  A    between atoms: C_11  and  C_26
REMARK    2  A    between atoms: C_18  and  O_22
REMARK    3  A    between atoms: C_19  and  O_24
REMARK    4  A    between atoms: C_26  and  C_27
REMARK    5  A    between atoms: C_27  and  C_28
REMARK    6  A    between atoms: C_28  and  C_29
REMARK    7  A    between atoms: C_29  and  C_30
REMARK    8  A    between atoms: C_30  and  N_31
REMARK                            x       y       z     vdW  Elec       q    Type
REMARK                         _______ _______ _______ _____ _____    ______ ____
ROOT
ATOM      1  O   UNL     1     -28.083  29.763   3.735  0.00  0.00    -0.275 OA
ATOM      2  N   UNL     1     -30.331  29.558   4.281  0.00  0.00    -0.276 N 
ATOM      3  N   UNL     1     -32.530  27.800   4.095  0.00  0.00    -0.231 N 
ATOM      4  N   UNL     1     -33.465  25.938   3.040  0.00  0.00    -0.332 NA
ATOM      5  N   UNL     1     -34.567  27.000   4.901  0.00  0.00    -0.317 NA
ATOM      6  N   UNL     1     -36.622  26.182   5.705  0.00  0.00    -0.335 N 
ATOM      7  C   UNL     1     -31.454  29.716   5.206  0.00  0.00    +0.116 C 
ATOM      8  C   UNL     1     -30.709  29.020   2.977  0.00  0.00    +0.116 C 
ATOM      9  C   UNL     1     -32.188  28.388   5.397  0.00  0.00    +0.125 C 
ATOM     10  C   UNL     1     -31.426  27.681   3.130  0.00  0.00    +0.125 C 
ATOM     11  C   UNL     1     -29.005  29.890   4.546  0.00  0.00    +0.226 C 
ATOM     12  C   UNL     1     -33.571  26.869   4.009  0.00  0.00    +0.203 C 
ATOM     13  C   UNL     1     -34.462  25.040   2.952  0.00  0.00    +0.138 C 
ATOM     14  C   UNL     1     -35.558  25.073   3.828  0.00  0.00    +0.146 C 
ATOM     15  C   UNL     1     -35.548  26.085   4.785  0.00  0.00    +0.178 C 
ATOM     16  C   UNL     1     -34.436  24.042   1.980  0.00  0.00    +0.069 C 
ATOM     17  C   UNL     1     -36.595  24.130   3.727  0.00  0.00    +0.029 C 
ATOM     18  C   UNL     1     -35.463  23.099   1.874  0.00  0.00    +0.174 C 
ATOM     19  C   UNL     1     -36.544  23.143   2.747  0.00  0.00    +0.169 C 
ATOM     20  H   UNL     1     -36.624  26.894   6.385  0.00  0.00    +0.144 HD
ATOM     21  H   UNL     1     -37.366  25.538   5.664  0.00  0.00    +0.144 HD
ENDROOT
BRANCH  18  22
ATOM     22  O   UNL     1     -35.392  22.142   0.906  0.00  0.00    -0.468 OA
ATOM     23  C   UNL     1     -34.467  21.077   1.114  0.00  0.00    +0.253 C 
ENDBRANCH  18  22
BRANCH  19  24
ATOM     24  O   UNL     1     -37.551  22.231   2.654  0.00  0.00    -0.469 OA
ATOM     25  C   UNL     1     -38.822  22.710   2.218  0.00  0.00    +0.253 C 
ENDBRANCH  19  24
BRANCH  11  26
ATOM     26  C   UNL     1     -28.709  30.435   5.920  0.00  0.00    +0.085 C 
BRANCH  26  27
ATOM     27  C   UNL     1     -27.575  29.657   6.567  0.00  0.00    +0.009 C 
BRANCH  27  28
ATOM     28  C   UNL     1     -28.074  28.583   7.539  0.00  0.00    -0.002 C 
BRANCH  28  29
ATOM     29  C   UNL     1     -28.083  27.201   6.883  0.00  0.00    -0.024 C 
BRANCH  29  30
ATOM     30  C   UNL     1     -26.940  27.057   5.879  0.00  0.00    -0.086 C 
BRANCH  30  31
ATOM     31  N   UNL     1     -27.462  26.706   4.563  0.00  0.00    +0.380 N 
ATOM     32  H   UNL     1     -28.191  26.000   4.665  0.00  0.00    -0.089 HD
ATOM     33  H   UNL     1     -26.707  26.334   3.987  0.00  0.00    -0.089 HD
ATOM     34  H   UNL     1     -27.852  27.537   4.120  0.00  0.00    -0.089 HD
ENDBRANCH  30  31
ENDBRANCH  29  30
ENDBRANCH  28  29
ENDBRANCH  27  28
ENDBRANCH  26  27
ENDBRANCH  11  26
TORSDOF 8
ENDMDL
MODEL 4
REMARK VINA RESULT:      -5.6      5.481     10.724
REMARK  Name = 194829
REMARK  8 active torsions:
REMARK  status: ('A' for Active; 'I' for Inactive)
REMARK    1  A    between atoms: C_11  and  C_26
REMARK    2  A    between atoms: C_18  and  O_22
REMARK    3  A    between atoms: C_19  and  O_24
REMARK    4  A    between atoms: C_26  and  C_27
REMARK    5  A    between atoms: C_27  and  C_28
REMARK    6  A    between atoms: C_28  and  C_29
REMARK    7  A    between atoms: C_29  and  C_30
REMARK    8  A    between atoms: C_30  and  N_31
REMARK                            x       y       z     vdW  Elec       q    Type
REMARK                         _______ _______ _______ _____ _____    ______ ____
ROOT
ATOM      1  O   UNL     1     -35.132  35.546   1.119  0.00  0.00    -0.275 OA
ATOM      2  N   UNL     1     -35.853  33.481   0.338  0.00  0.00    -0.276 N 
ATOM      3  N   UNL     1     -36.024  30.754   1.043  0.00  0.00    -0.231 N 
ATOM      4  N   UNL     1     -35.258  29.039   2.430  0.00  0.00    -0.332 NA
ATOM      5  N   UNL     1     -37.056  28.670   0.870  0.00  0.00    -0.317 NA
ATOM      6  N   UNL     1     -38.090  26.562   0.705  0.00  0.00    -0.335 N 
ATOM      7  C   UNL     1     -36.830  32.626  -0.338  0.00  0.00    +0.116 C 
ATOM      8  C   UNL     1     -34.649  32.776   0.771  0.00  0.00    +0.116 C 
ATOM      9  C   UNL     1     -37.222  31.446   0.551  0.00  0.00    +0.125 C 
ATOM     10  C   UNL     1     -35.005  31.603   1.680  0.00  0.00    +0.125 C 
ATOM     11  C   UNL     1     -35.985  34.849   0.562  0.00  0.00    +0.226 C 
ATOM     12  C   UNL     1     -36.118  29.424   1.467  0.00  0.00    +0.203 C 
ATOM     13  C   UNL     1     -35.343  27.761   2.842  0.00  0.00    +0.138 C 
ATOM     14  C   UNL     1     -36.284  26.875   2.294  0.00  0.00    +0.146 C 
ATOM     15  C   UNL     1     -37.115  27.398   1.306  0.00  0.00    +0.178 C 
ATOM     16  C   UNL     1     -34.493  27.275   3.833  0.00  0.00    +0.069 C 
ATOM     17  C   UNL     1     -36.364  25.542   2.732  0.00  0.00    +0.029 C 
ATOM     18  C   UNL     1     -34.567  25.951   4.275  0.00  0.00    +0.174 C 
ATOM     19  C   UNL     1     -35.503  25.083   3.724  0.00  0.00    +0.169 C 
ATOM     20  H   UNL     1     -38.683  26.922   0.006  0.00  0.00    +0.144 HD
ATOM     21  H   UNL     1     -38.175  25.623   0.987  0.00  0.00    +0.144 HD
ENDROOT
BRANCH  18  22
ATOM     22  O   UNL     1     -33.713  25.523   5.247  0.00  0.00    -0.468 OA
ATOM     23  C   UNL     1     -33.396  26.448   6.285  0.00  0.00    +0.253 C 
ENDBRANCH  18  22
BRANCH  19  24
ATOM     24  O   UNL     1     -35.586  23.791   4.145  0.00  0.00    -0.469 OA
ATOM     25  C   UNL     1     -35.845  22.800   3.152  0.00  0.00    +0.253 C 
ENDBRANCH  19  24
BRANCH  11  26
ATOM     26  C   UNL     1     -37.263  35.489   0.084  0.00  0.00    +0.085 C 
BRANCH  26  27
ATOM     27  C   UNL     1     -37.807  36.441   1.137  0.00  0.00    +0.009 C 
BRANCH  27  28
ATOM     28  C   UNL     1     -38.586  35.719   2.241  0.00  0.00    -0.002 C 
BRANCH  28  29
ATOM     29  C   UNL     1     -39.895  35.134   1.705  0.00  0.00    -0.024 C 
BRANCH  29  30
ATOM     30  C   UNL     1     -41.102  35.906   2.235  0.00  0.00    -0.086 C 
BRANCH  30  31
ATOM     31  N   UNL     1     -41.175  35.799   3.688  0.00  0.00    +0.380 N 
ATOM     32  H   UNL     1     -40.873  36.679   4.108  0.00  0.00    -0.089 HD
ATOM     33  H   UNL     1     -40.565  35.045   4.004  0.00  0.00    -0.089 HD
ATOM     34  H   UNL     1     -42.135  35.600   3.967  0.00  0.00    -0.089 HD
ENDBRANCH  30  31
ENDBRANCH  29  30
ENDBRANCH  28  29
ENDBRANCH  27  28
ENDBRANCH  26  27
ENDBRANCH  11  26
TORSDOF 8
ENDMDL
MODEL 5
REMARK VINA RESULT:      -5.6      2.725      3.137
REMARK  Name = 194829
REMARK  8 active torsions:
REMARK  status: ('A' for Active; 'I' for Inactive)
REMARK    1  A    between atoms: C_11  and  C_26
REMARK    2  A    between atoms: C_18  and  O_22
REMARK    3  A    between atoms: C_19  and  O_24
REMARK    4  A    between atoms: C_26  and  C_27
REMARK    5  A    between atoms: C_27  and  C_28
REMARK    6  A    between atoms: C_28  and  C_29
REMARK    7  A    between atoms: C_29  and  C_30
REMARK    8  A    between atoms: C_30  and  N_31
REMARK                            x       y       z     vdW  Elec       q    Type
REMARK                         _______ _______ _______ _____ _____    ______ ____
ROOT
ATOM      1  O   UNL     1     -36.223  22.467   4.762  0.00  0.00    -0.275 OA
ATOM      2  N   UNL     1     -36.050  24.751   4.383  0.00  0.00    -0.276 N 
ATOM      3  N   UNL     1     -34.227  26.904   4.452  0.00  0.00    -0.231 N 
ATOM      4  N   UNL     1     -32.188  27.717   5.249  0.00  0.00    -0.332 NA
ATOM      5  N   UNL     1     -33.518  28.993   3.697  0.00  0.00    -0.317 NA
ATOM      6  N   UNL     1     -32.791  31.101   2.943  0.00  0.00    -0.335 N 
ATOM      7  C   UNL     1     -36.331  25.954   3.597  0.00  0.00    +0.116 C 
ATOM      8  C   UNL     1     -35.290  25.006   5.603  0.00  0.00    +0.116 C 
ATOM      9  C   UNL     1     -35.034  26.685   3.245  0.00  0.00    +0.125 C 
ATOM     10  C   UNL     1     -33.976  25.717   5.285  0.00  0.00    +0.125 C 
ATOM     11  C   UNL     1     -36.459  23.458   4.066  0.00  0.00    +0.226 C 
ATOM     12  C   UNL     1     -33.266  27.921   4.466  0.00  0.00    +0.203 C 
ATOM     13  C   UNL     1     -31.260  28.691   5.268  0.00  0.00    +0.138 C 
ATOM     14  C   UNL     1     -31.411  29.861   4.506  0.00  0.00    +0.146 C 
ATOM     15  C   UNL     1     -32.570  29.948   3.738  0.00  0.00    +0.178 C 
ATOM     16  C   UNL     1     -30.114  28.568   6.050  0.00  0.00    +0.069 C 
ATOM     17  C   UNL     1     -30.436  30.873   4.533  0.00  0.00    +0.029 C 
ATOM     18  C   UNL     1     -29.139  29.568   6.081  0.00  0.00    +0.174 C 
ATOM     19  C   UNL     1     -29.300  30.723   5.323  0.00  0.00    +0.169 C 
ATOM     20  H   UNL     1     -33.607  31.172   2.397  0.00  0.00    +0.144 HD
ATOM     21  H   UNL     1     -32.129  31.829   2.937  0.00  0.00    +0.144 HD
ENDROOT
BRANCH  18  22
ATOM     22  O   UNL     1     -28.035  29.400   6.862  0.00  0.00    -0.468 OA
ATOM     23  C   UNL     1     -28.189  29.634   8.260  0.00  0.00    +0.253 C 
ENDBRANCH  18  22
BRANCH  19  24
ATOM     24  O   UNL     1     -28.358  31.706   5.344  0.00  0.00    -0.469 OA
ATOM     25  C   UNL     1     -28.352  32.623   4.251  0.00  0.00    +0.253 C 
ENDBRANCH  19  24
BRANCH  11  26
ATOM     26  C   UNL     1     -37.236  23.292   2.785  0.00  0.00    +0.085 C 
BRANCH  26  27
ATOM     27  C   UNL     1     -36.558  22.276   1.881  0.00  0.00    +0.009 C 
BRANCH  27  28
ATOM     28  C   UNL     1     -37.455  21.076   1.562  0.00  0.00    -0.002 C 
BRANCH  28  29
ATOM     29  C   UNL     1     -38.313  21.340   0.322  0.00  0.00    -0.024 C 
BRANCH  29  30
ATOM     30  C   UNL     1     -39.796  21.126   0.620  0.00  0.00    -0.086 C 
BRANCH  30  31
ATOM     31  N   UNL     1     -40.055  21.291   2.046  0.00  0.00    +0.380 N 
ATOM     32  H   UNL     1     -41.057  21.409   2.198  0.00  0.00    -0.089 HD
ATOM     33  H   UNL     1     -39.560  22.115   2.388  0.00  0.00    -0.089 HD
ATOM     34  H   UNL     1     -39.730  20.465   2.548  0.00  0.00    -0.089 HD
ENDBRANCH  30  31
ENDBRANCH  29  30
ENDBRANCH  28  29
ENDBRANCH  27  28
ENDBRANCH  26  27
ENDBRANCH  11  26
TORSDOF 8
ENDMDL
MODEL 6
REMARK VINA RESULT:      -5.6      6.489      9.748
REMARK  Name = 194829
REMARK  8 active torsions:
REMARK  status: ('A' for Active; 'I' for Inactive)
REMARK    1  A    between atoms: C_11  and  C_26
REMARK    2  A    between atoms: C_18  and  O_22
REMARK    3  A    between atoms: C_19  and  O_24
REMARK    4  A    between atoms: C_26  and  C_27
REMARK    5  A    between atoms: C_27  and  C_28
REMARK    6  A    between atoms: C_28  and  C_29
REMARK    7  A    between atoms: C_29  and  C_30
REMARK    8  A    between atoms: C_30  and  N_31
REMARK                            x       y       z     vdW  Elec       q    Type
REMARK                         _______ _______ _______ _____ _____    ______ ____
ROOT
ATOM      1  O   UNL     1     -36.135  34.370   0.378  0.00  0.00    -0.275 OA
ATOM      2  N   UNL     1     -35.521  32.394   1.431  0.00  0.00    -0.276 N 
ATOM      3  N   UNL     1     -33.562  31.269   3.121  0.00  0.00    -0.231 N 
ATOM      4  N   UNL     1     -31.412  31.448   4.015  0.00  0.00    -0.332 NA
ATOM      5  N   UNL     1     -32.913  29.701   4.720  0.00  0.00    -0.317 NA
ATOM      6  N   UNL     1     -32.247  28.124   6.336  0.00  0.00    -0.335 N 
ATOM      7  C   UNL     1     -35.839  31.183   2.190  0.00  0.00    +0.116 C 
ATOM      8  C   UNL     1     -34.111  32.513   1.070  0.00  0.00    +0.116 C 
ATOM      9  C   UNL     1     -34.982  31.097   3.453  0.00  0.00    +0.125 C 
ATOM     10  C   UNL     1     -33.227  32.453   2.313  0.00  0.00    +0.125 C 
ATOM     11  C   UNL     1     -36.432  33.370   1.036  0.00  0.00    +0.226 C 
ATOM     12  C   UNL     1     -32.583  30.781   3.994  0.00  0.00    +0.203 C 
ATOM     13  C   UNL     1     -30.466  30.984   4.852  0.00  0.00    +0.138 C 
ATOM     14  C   UNL     1     -30.693  29.861   5.664  0.00  0.00    +0.146 C 
ATOM     15  C   UNL     1     -31.945  29.264   5.548  0.00  0.00    +0.178 C 
ATOM     16  C   UNL     1     -29.224  31.610   4.940  0.00  0.00    +0.069 C 
ATOM     17  C   UNL     1     -29.698  29.385   6.535  0.00  0.00    +0.029 C 
ATOM     18  C   UNL     1     -28.230  31.143   5.804  0.00  0.00    +0.174 C 
ATOM     19  C   UNL     1     -28.466  30.029   6.602  0.00  0.00    +0.169 C 
ATOM     20  H   UNL     1     -33.129  27.695   6.261  0.00  0.00    +0.144 HD
ATOM     21  H   UNL     1     -31.574  27.763   6.957  0.00  0.00    +0.144 HD
ENDROOT
BRANCH  18  22
ATOM     22  O   UNL     1     -27.031  31.789   5.853  0.00  0.00    -0.468 OA
ATOM     23  C   UNL     1     -27.065  33.214   5.922  0.00  0.00    +0.253 C 
ENDBRANCH  18  22
BRANCH  19  24
ATOM     24  O   UNL     1     -27.506  29.564   7.448  0.00  0.00    -0.469 OA
ATOM     25  C   UNL     1     -27.561  28.181   7.795  0.00  0.00    +0.253 C 
ENDBRANCH  19  24
BRANCH  11  26
ATOM     26  C   UNL     1     -37.865  33.163   1.457  0.00  0.00    +0.085 C 
BRANCH  26  27
ATOM     27  C   UNL     1     -38.714  34.359   1.057  0.00  0.00    +0.009 C 
BRANCH  27  28
ATOM     28  C   UNL     1     -40.153  34.263   1.573  0.00  0.00    -0.002 C 
BRANCH  28  29
ATOM     29  C   UNL     1     -40.771  35.651   1.756  0.00  0.00    -0.024 C 
BRANCH  29  30
ATOM     30  C   UNL     1     -40.756  36.074   3.224  0.00  0.00    -0.086 C 
BRANCH  30  31
ATOM     31  N   UNL     1     -41.828  35.406   3.954  0.00  0.00    +0.380 N 
ATOM     32  H   UNL     1     -41.571  34.432   4.119  0.00  0.00    -0.089 HD
ATOM     33  H   UNL     1     -42.687  35.443   3.406  0.00  0.00    -0.089 HD
ATOM     34  H   UNL     1     -41.974  35.875   4.848  0.00  0.00    -0.089 HD
ENDBRANCH  30  31
ENDBRANCH  29  30
ENDBRANCH  28  29
ENDBRANCH  27  28
ENDBRANCH  26  27
ENDBRANCH  11  26
TORSDOF 8
ENDMDL
MODEL 7
REMARK VINA RESULT:      -5.5      4.183      6.384
REMARK  Name = 194829
REMARK  8 active torsions:
REMARK  status: ('A' for Active; 'I' for Inactive)
REMARK    1  A    between atoms: C_11  and  C_26
REMARK    2  A    between atoms: C_18  and  O_22
REMARK    3  A    between atoms: C_19  and  O_24
REMARK    4  A    between atoms: C_26  and  C_27
REMARK    5  A    between atoms: C_27  and  C_28
REMARK    6  A    between atoms: C_28  and  C_29
REMARK    7  A    between atoms: C_29  and  C_30
REMARK    8  A    between atoms: C_30  and  N_31
REMARK                            x       y       z     vdW  Elec       q    Type
REMARK                         _______ _______ _______ _____ _____    ______ ____
ROOT
ATOM      1  O   UNL     1     -36.314  19.418  -3.277  0.00  0.00    -0.275 OA
ATOM      2  N   UNL     1     -35.988  19.386  -0.978  0.00  0.00    -0.276 N 
ATOM      3  N   UNL     1     -35.550  21.064   1.248  0.00  0.00    -0.231 N 
ATOM      4  N   UNL     1     -34.882  23.167   2.012  0.00  0.00    -0.332 NA
ATOM      5  N   UNL     1     -35.723  21.498   3.532  0.00  0.00    -0.317 NA
ATOM      6  N   UNL     1     -35.892  21.948   5.836  0.00  0.00    -0.335 N 
ATOM      7  C   UNL     1     -36.304  18.894   0.364  0.00  0.00    +0.116 C 
ATOM      8  C   UNL     1     -34.889  20.348  -1.012  0.00  0.00    +0.116 C 
ATOM      9  C   UNL     1     -36.617  20.057   1.306  0.00  0.00    +0.125 C 
ATOM     10  C   UNL     1     -35.180  21.535  -0.096  0.00  0.00    +0.125 C 
ATOM     11  C   UNL     1     -36.619  18.999  -2.157  0.00  0.00    +0.226 C 
ATOM     12  C   UNL     1     -35.377  21.951   2.316  0.00  0.00    +0.203 C 
ATOM     13  C   UNL     1     -34.713  24.025   3.035  0.00  0.00    +0.138 C 
ATOM     14  C   UNL     1     -35.038  23.667   4.353  0.00  0.00    +0.146 C 
ATOM     15  C   UNL     1     -35.542  22.381   4.533  0.00  0.00    +0.178 C 
ATOM     16  C   UNL     1     -34.206  25.304   2.815  0.00  0.00    +0.069 C 
ATOM     17  C   UNL     1     -34.858  24.570   5.414  0.00  0.00    +0.029 C 
ATOM     18  C   UNL     1     -34.025  26.209   3.864  0.00  0.00    +0.174 C 
ATOM     19  C   UNL     1     -34.349  25.842   5.166  0.00  0.00    +0.169 C 
ATOM     20  H   UNL     1     -36.249  21.041   5.974  0.00  0.00    +0.144 HD
ATOM     21  H   UNL     1     -35.779  22.554   6.603  0.00  0.00    +0.144 HD
ENDROOT
BRANCH  18  22
ATOM     22  O   UNL     1     -33.525  27.448   3.598  0.00  0.00    -0.468 OA
ATOM     23  C   UNL     1     -32.193  27.515   3.092  0.00  0.00    +0.253 C 
ENDBRANCH  18  22
BRANCH  19  24
ATOM     24  O   UNL     1     -34.177  26.713   6.197  0.00  0.00    -0.469 OA
ATOM     25  C   UNL     1     -32.858  26.844   6.723  0.00  0.00    +0.253 C 
ENDBRANCH  19  24
BRANCH  11  26
ATOM     26  C   UNL     1     -37.744  18.004  -2.024  0.00  0.00    +0.085 C 
BRANCH  26  27
ATOM     27  C   UNL     1     -37.266  16.610  -2.393  0.00  0.00    +0.009 C 
BRANCH  27  28
ATOM     28  C   UNL     1     -37.729  15.542  -1.395  0.00  0.00    -0.002 C 
BRANCH  28  29
ATOM     29  C   UNL     1     -38.961  16.008  -0.615  0.00  0.00    -0.024 C 
BRANCH  29  30
ATOM     30  C   UNL     1     -40.089  14.982  -0.700  0.00  0.00    -0.086 C 
BRANCH  30  31
ATOM     31  N   UNL     1     -39.660  13.709  -0.132  0.00  0.00    +0.380 N 
ATOM     32  H   UNL     1     -40.221  13.500   0.694  0.00  0.00    -0.089 HD
ATOM     33  H   UNL     1     -38.677  13.768   0.131  0.00  0.00    -0.089 HD
ATOM     34  H   UNL     1     -39.784  12.970  -0.823  0.00  0.00    -0.089 HD
ENDBRANCH  30  31
ENDBRANCH  29  30
ENDBRANCH  28  29
ENDBRANCH  27  28
ENDBRANCH  26  27
ENDBRANCH  11  26
TORSDOF 8
ENDMDL
MODEL 8
REMARK VINA RESULT:      -5.4      4.129     10.099
REMARK  Name = 194829
REMARK  8 active torsions:
REMARK  status: ('A' for Active; 'I' for Inactive)
REMARK    1  A    between atoms: C_11  and  C_26
REMARK    2  A    between atoms: C_18  and  O_22
REMARK    3  A    between atoms: C_19  and  O_24
REMARK    4  A    between atoms: C_26  and  C_27
REMARK    5  A    between atoms: C_27  and  C_28
REMARK    6  A    between atoms: C_28  and  C_29
REMARK    7  A    between atoms: C_29  and  C_30
REMARK    8  A    between atoms: C_30  and  N_31
REMARK                            x       y       z     vdW  Elec       q    Type
REMARK                         _______ _______ _______ _____ _____    ______ ____
ROOT
ATOM      1  O   UNL     1     -34.373  32.461  -0.901  0.00  0.00    -0.275 OA
ATOM      2  N   UNL     1     -34.415  31.504   1.215  0.00  0.00    -0.276 N 
ATOM      3  N   UNL     1     -34.595  29.025   2.550  0.00  0.00    -0.231 N 
ATOM      4  N   UNL     1     -35.187  26.770   2.420  0.00  0.00    -0.332 NA
ATOM      5  N   UNL     1     -34.149  27.674   4.397  0.00  0.00    -0.317 NA
ATOM      6  N   UNL     1     -33.704  26.300   6.255  0.00  0.00    -0.335 N 
ATOM      7  C   UNL     1     -33.932  31.396   2.592  0.00  0.00    +0.116 C 
ATOM      8  C   UNL     1     -35.520  30.602   0.902  0.00  0.00    +0.116 C 
ATOM      9  C   UNL     1     -33.519  29.958   2.908  0.00  0.00    +0.125 C 
ATOM     10  C   UNL     1     -35.132  29.152   1.186  0.00  0.00    +0.125 C 
ATOM     11  C   UNL     1     -33.929  32.380   0.248  0.00  0.00    +0.226 C 
ATOM     12  C   UNL     1     -34.646  27.764   3.153  0.00  0.00    +0.203 C 
ATOM     13  C   UNL     1     -35.239  25.554   2.994  0.00  0.00    +0.138 C 
ATOM     14  C   UNL     1     -34.751  25.335   4.292  0.00  0.00    +0.146 C 
ATOM     15  C   UNL     1     -34.216  26.444   4.941  0.00  0.00    +0.178 C 
ATOM     16  C   UNL     1     -35.783  24.468   2.311  0.00  0.00    +0.069 C 
ATOM     17  C   UNL     1     -34.810  24.060   4.881  0.00  0.00    +0.029 C 
ATOM     18  C   UNL     1     -35.844  23.198   2.890  0.00  0.00    +0.174 C 
ATOM     19  C   UNL     1     -35.359  22.993   4.177  0.00  0.00    +0.169 C 
ATOM     20  H   UNL     1     -33.323  27.077   6.723  0.00  0.00    +0.144 HD
ATOM     21  H   UNL     1     -33.728  25.421   6.700  0.00  0.00    +0.144 HD
ENDROOT
BRANCH  18  22
ATOM     22  O   UNL     1     -36.386  22.168   2.181  0.00  0.00    -0.468 OA
ATOM     23  C   UNL     1     -37.810  22.108   2.110  0.00  0.00    +0.253 C 
ENDBRANCH  18  22
BRANCH  19  24
ATOM     24  O   UNL     1     -35.413  21.760   4.752  0.00  0.00    -0.469 OA
ATOM     25  C   UNL     1     -35.264  21.699   6.170  0.00  0.00    +0.253 C 
ENDBRANCH  19  24
BRANCH  11  26
ATOM     26  C   UNL     1     -32.785  33.272   0.661  0.00  0.00    +0.085 C 
BRANCH  26  27
ATOM     27  C   UNL     1     -33.207  34.731   0.618  0.00  0.00    +0.009 C 
BRANCH  27  28
ATOM     28  C   UNL     1     -34.292  35.063   1.647  0.00  0.00    -0.002 C 
BRANCH  28  29
ATOM     29  C   UNL     1     -35.548  35.619   0.971  0.00  0.00    -0.024 C 
BRANCH  29  30
ATOM     30  C   UNL     1     -36.725  34.656   1.114  0.00  0.00    -0.086 C 
BRANCH  30  31
ATOM     31  N   UNL     1     -37.027  34.031  -0.168  0.00  0.00    +0.380 N 
ATOM     32  H   UNL     1     -36.419  33.223  -0.303  0.00  0.00    -0.089 HD
ATOM     33  H   UNL     1     -36.871  34.703  -0.919  0.00  0.00    -0.089 HD
ATOM     34  H   UNL     1     -38.001  33.729  -0.178  0.00  0.00    -0.089 HD
ENDBRANCH  30  31
ENDBRANCH  29  30
ENDBRANCH  28  29
ENDBRANCH  27  28
ENDBRANCH  26  27
ENDBRANCH  11  26
TORSDOF 8
ENDMDL
MODEL 9
REMARK VINA RESULT:      -5.4      5.687      8.057
REMARK  Name = 194829
REMARK  8 active torsions:
REMARK  status: ('A' for Active; 'I' for Inactive)
REMARK    1  A    between atoms: C_11  and  C_26
REMARK    2  A    between atoms: C_18  and  O_22
REMARK    3  A    between atoms: C_19  and  O_24
REMARK    4  A    between atoms: C_26  and  C_27
REMARK    5  A    between atoms: C_27  and  C_28
REMARK    6  A    between atoms: C_28  and  C_29
REMARK    7  A    between atoms: C_29  and  C_30
REMARK    8  A    between atoms: C_30  and  N_31
REMARK                            x       y       z     vdW  Elec       q    Type
REMARK                         _______ _______ _______ _____ _____    ______ ____
ROOT
ATOM      1  O   UNL     1     -42.580  26.466  -0.544  0.00  0.00    -0.275 OA
ATOM      2  N   UNL     1     -41.103  25.216   0.739  0.00  0.00    -0.276 N 
ATOM      3  N   UNL     1     -38.685  25.391   2.184  0.00  0.00    -0.231 N 
ATOM      4  N   UNL     1     -36.713  26.583   2.561  0.00  0.00    -0.332 NA
ATOM      5  N   UNL     1     -37.285  24.663   3.900  0.00  0.00    -0.317 NA
ATOM      6  N   UNL     1     -35.862  23.938   5.629  0.00  0.00    -0.335 N 
ATOM      7  C   UNL     1     -40.814  24.225   1.778  0.00  0.00    +0.116 C 
ATOM      8  C   UNL     1     -39.912  25.746   0.080  0.00  0.00    +0.116 C 
ATOM      9  C   UNL     1     -39.866  24.803   2.828  0.00  0.00    +0.125 C 
ATOM     10  C   UNL     1     -38.952  26.351   1.101  0.00  0.00    +0.125 C 
ATOM     11  C   UNL     1     -42.370  25.643   0.351  0.00  0.00    +0.226 C 
ATOM     12  C   UNL     1     -37.504  25.552   2.917  0.00  0.00    +0.203 C 
ATOM     13  C   UNL     1     -35.576  26.743   3.262  0.00  0.00    +0.138 C 
ATOM     14  C   UNL     1     -35.235  25.877   4.314  0.00  0.00    +0.146 C 
ATOM     15  C   UNL     1     -36.139  24.852   4.582  0.00  0.00    +0.178 C 
ATOM     16  C   UNL     1     -34.696  27.781   2.964  0.00  0.00    +0.069 C 
ATOM     17  C   UNL     1     -34.045  26.054   5.040  0.00  0.00    +0.029 C 
ATOM     18  C   UNL     1     -33.511  27.964   3.682  0.00  0.00    +0.174 C 
ATOM     19  C   UNL     1     -33.184  27.100   4.721  0.00  0.00    +0.169 C 
ATOM     20  H   UNL     1     -36.495  23.210   5.827  0.00  0.00    +0.144 HD
ATOM     21  H   UNL     1     -35.038  24.031   6.159  0.00  0.00    +0.144 HD
ENDROOT
BRANCH  18  22
ATOM     22  O   UNL     1     -32.683  28.995   3.351  0.00  0.00    -0.468 OA
ATOM     23  C   UNL     1     -32.942  30.257   3.963  0.00  0.00    +0.253 C 
ENDBRANCH  18  22
BRANCH  19  24
ATOM     24  O   UNL     1     -32.033  27.266   5.428  0.00  0.00    -0.469 OA
ATOM     25  C   UNL     1     -32.142  27.884   6.710  0.00  0.00    +0.253 C 
ENDBRANCH  19  24
BRANCH  11  26
ATOM     26  C   UNL     1     -43.539  25.043   1.090  0.00  0.00    +0.085 C 
BRANCH  26  27
ATOM     27  C   UNL     1     -44.021  25.989   2.178  0.00  0.00    +0.009 C 
BRANCH  27  28
ATOM     28  C   UNL     1     -45.442  25.670   2.652  0.00  0.00    -0.002 C 
BRANCH  28  29
ATOM     29  C   UNL     1     -45.644  26.079   4.113  0.00  0.00    -0.024 C 
BRANCH  29  30
ATOM     30  C   UNL     1     -44.553  27.043   4.574  0.00  0.00    -0.086 C 
BRANCH  30  31
ATOM     31  N   UNL     1     -45.132  28.338   4.913  0.00  0.00    +0.380 N 
ATOM     32  H   UNL     1     -46.150  28.271   4.894  0.00  0.00    -0.089 HD
ATOM     33  H   UNL     1     -44.825  29.036   4.236  0.00  0.00    -0.089 HD
ATOM     34  H   UNL     1     -44.827  28.613   5.847  0.00  0.00    -0.089 HD
ENDBRANCH  30  31
ENDBRANCH  29  30
ENDBRANCH  28  29
ENDBRANCH  27  28
ENDBRANCH  26  27
ENDBRANCH  11  26
TORSDOF 8
ENDMDL
