MODEL 1
REMARK VINA RESULT:      -5.4      0.000      0.000
REMARK  Name = 5353523
REMARK  13 active torsions:
REMARK  status: ('A' for Active; 'I' for Inactive)
REMARK    1  A    between atoms: C_1  and  N_5
REMARK    2  A    between atoms: C_2  and  S_18
REMARK    3  A    between atoms: C_2  and  C_24
REMARK    4  A    between atoms: N_5  and  C_7
REMARK    5  A    between atoms: C_7  and  C_11
REMARK    6  A    between atoms: S_18  and  C_20
REMARK    7  A    between atoms: C_20  and  O_21
REMARK    8  A    between atoms: O_21  and  C_22
REMARK    9  A    between atoms: C_24  and  C_25
REMARK   10  A    between atoms: C_25  and  O_26
REMARK   11  A    between atoms: O_26  and  C_28
REMARK   12  A    between atoms: C_28  and  O_29
REMARK   13  A    between atoms: O_29  and  C_30
REMARK                            x       y       z     vdW  Elec       q    Type
REMARK                         _______ _______ _______ _____ _____    ______ ____
ROOT
ATOM      1  C   UNL     1     -36.137  23.410   2.684  0.00  0.00    +0.035 C 
ATOM      2  C   UNL     1     -37.235  23.033   1.987  0.00  0.00    +0.027 C 
ATOM      3  C   UNL     1     -34.779  23.662   2.085  0.00  0.00    +0.048 C 
ENDROOT
BRANCH   1   5
ATOM      4  O   UNL     1     -35.849  22.569   6.135  0.00  0.00    -0.265 OA
ATOM      5  N   UNL     1     -36.169  23.585   4.046  0.00  0.00    -0.250 N 
ATOM      6  C   UNL     1     -35.859  22.543   4.909  0.00  0.00    +0.307 C 
BRANCH   5   7
ATOM      7  C   UNL     1     -36.538  24.895   4.562  0.00  0.00    +0.130 C 
BRANCH   7  11
ATOM      8  N   UNL     1     -34.108  27.724   3.867  0.00  0.00    -0.340 NA
ATOM      9  N   UNL     1     -33.300  26.431   5.735  0.00  0.00    -0.186 NA
ATOM     10  N   UNL     1     -36.133  27.129   2.789  0.00  0.00    -0.332 N 
ATOM     11  C   UNL     1     -35.358  25.820   4.645  0.00  0.00    +0.062 C 
ATOM     12  C   UNL     1     -35.166  26.890   3.795  0.00  0.00    +0.187 C 
ATOM     13  C   UNL     1     -34.384  25.637   5.605  0.00  0.00    +0.111 C 
ATOM     14  C   UNL     1     -33.227  27.440   4.846  0.00  0.00    +0.066 C 
ATOM     15  C   UNL     1     -32.043  28.340   4.957  0.00  0.00    +0.129 C 
ATOM     16  H   UNL     1     -36.023  27.885   2.168  0.00  0.00    +0.145 HD
ATOM     17  H   UNL     1     -36.917  26.538   2.710  0.00  0.00    +0.145 HD
ENDBRANCH   7  11
ENDBRANCH   5   7
ENDBRANCH   1   5
BRANCH   2  18
ATOM     18  S   UNL     1     -37.139  22.745   0.252  0.00  0.00    -0.010 S 
BRANCH  18  20
ATOM     19  O   UNL     1     -38.093  20.289   0.091  0.00  0.00    -0.237 OA
ATOM     20  C   UNL     1     -37.090  20.987   0.191  0.00  0.00    +0.374 C 
BRANCH  20  21
ATOM     21  O   UNL     1     -35.814  20.497   0.240  0.00  0.00    -0.441 OA
BRANCH  21  22
ATOM     22  C   UNL     1     -35.414  19.919   1.487  0.00  0.00    +0.209 C 
ATOM     23  C   UNL     1     -33.946  19.557   1.415  0.00  0.00    +0.051 C 
ENDBRANCH  21  22
ENDBRANCH  20  21
ENDBRANCH  18  20
ENDBRANCH   2  18
BRANCH   2  24
ATOM     24  C   UNL     1     -38.592  22.787   2.627  0.00  0.00    +0.082 C 
BRANCH  24  25
ATOM     25  C   UNL     1     -39.639  23.824   2.221  0.00  0.00    +0.217 C 
BRANCH  25  26
ATOM     26  O   UNL     1     -39.818  24.796   3.242  0.00  0.00    -0.418 OA
BRANCH  26  28
ATOM     27  O   UNL     1     -38.896  26.606   2.154  0.00  0.00    -0.203 OA
ATOM     28  C   UNL     1     -39.775  26.101   2.841  0.00  0.00    +0.512 C 
BRANCH  28  29
ATOM     29  O   UNL     1     -40.872  26.739   3.334  0.00  0.00    -0.418 OA
BRANCH  29  30
ATOM     30  C   UNL     1     -41.933  26.957   2.397  0.00  0.00    +0.212 C 
ATOM     31  C   UNL     1     -43.257  26.692   3.082  0.00  0.00    +0.051 C 
ENDBRANCH  29  30
ENDBRANCH  28  29
ENDBRANCH  26  28
ENDBRANCH  25  26
ENDBRANCH  24  25
ENDBRANCH   2  24
TORSDOF 13
ENDMDL
MODEL 2
REMARK VINA RESULT:      -5.2      2.066      5.962
REMARK  Name = 5353523
REMARK  13 active torsions:
REMARK  status: ('A' for Active; 'I' for Inactive)
REMARK    1  A    between atoms: C_1  and  N_5
REMARK    2  A    between atoms: C_2  and  S_18
REMARK    3  A    between atoms: C_2  and  C_24
REMARK    4  A    between atoms: N_5  and  C_7
REMARK    5  A    between atoms: C_7  and  C_11
REMARK    6  A    between atoms: S_18  and  C_20
REMARK    7  A    between atoms: C_20  and  O_21
REMARK    8  A    between atoms: O_21  and  C_22
REMARK    9  A    between atoms: C_24  and  C_25
REMARK   10  A    between atoms: C_25  and  O_26
REMARK   11  A    between atoms: O_26  and  C_28
REMARK   12  A    between atoms: C_28  and  O_29
REMARK   13  A    between atoms: O_29  and  C_30
REMARK                            x       y       z     vdW  Elec       q    Type
REMARK                         _______ _______ _______ _____ _____    ______ ____
ROOT
ATOM      1  C   UNL     1     -37.183  25.491   0.842  0.00  0.00    +0.035 C 
ATOM      2  C   UNL     1     -37.419  24.160   0.761  0.00  0.00    +0.027 C 
ATOM      3  C   UNL     1     -38.171  26.567   0.475  0.00  0.00    +0.048 C 
ENDROOT
BRANCH   1   5
ATOM      4  O   UNL     1     -33.754  26.445   0.665  0.00  0.00    -0.265 OA
ATOM      5  N   UNL     1     -35.974  25.988   1.264  0.00  0.00    -0.250 N 
ATOM      6  C   UNL     1     -34.879  26.028   0.412  0.00  0.00    +0.307 C 
BRANCH   5   7
ATOM      7  C   UNL     1     -35.871  26.471   2.633  0.00  0.00    +0.130 C 
BRANCH   7  11
ATOM      8  N   UNL     1     -36.505  23.780   5.231  0.00  0.00    -0.340 NA
ATOM      9  N   UNL     1     -34.157  23.810   4.682  0.00  0.00    -0.186 NA
ATOM     10  N   UNL     1     -37.997  25.294   4.181  0.00  0.00    -0.332 N 
ATOM     11  C   UNL     1     -35.666  25.351   3.611  0.00  0.00    +0.062 C 
ATOM     12  C   UNL     1     -36.685  24.787   4.352  0.00  0.00    +0.187 C 
ATOM     13  C   UNL     1     -34.411  24.817   3.820  0.00  0.00    +0.111 C 
ATOM     14  C   UNL     1     -35.235  23.346   5.344  0.00  0.00    +0.066 C 
ATOM     15  C   UNL     1     -34.996  22.232   6.307  0.00  0.00    +0.129 C 
ATOM     16  H   UNL     1     -38.744  24.912   4.696  0.00  0.00    +0.145 HD
ATOM     17  H   UNL     1     -38.161  26.030   3.547  0.00  0.00    +0.145 HD
ENDBRANCH   7  11
ENDBRANCH   5   7
ENDBRANCH   1   5
BRANCH   2  18
ATOM     18  S   UNL     1     -38.955  23.559   0.142  0.00  0.00    -0.010 S 
BRANCH  18  20
ATOM     19  O   UNL     1     -40.047  21.966   1.941  0.00  0.00    -0.237 OA
ATOM     20  C   UNL     1     -39.787  23.123   1.630  0.00  0.00    +0.374 C 
BRANCH  20  21
ATOM     21  O   UNL     1     -40.083  24.212   2.402  0.00  0.00    -0.441 OA
BRANCH  21  22
ATOM     22  C   UNL     1     -41.119  25.068   1.904  0.00  0.00    +0.209 C 
ATOM     23  C   UNL     1     -41.271  26.251   2.836  0.00  0.00    +0.051 C 
ENDBRANCH  21  22
ENDBRANCH  20  21
ENDBRANCH  18  20
ENDBRANCH   2  18
BRANCH   2  24
ATOM     24  C   UNL     1     -36.396  23.102   1.140  0.00  0.00    +0.082 C 
BRANCH  24  25
ATOM     25  C   UNL     1     -36.620  21.772   0.421  0.00  0.00    +0.217 C 
BRANCH  25  26
ATOM     26  O   UNL     1     -36.873  20.726   1.349  0.00  0.00    -0.418 OA
BRANCH  26  28
ATOM     27  O   UNL     1     -35.512  20.458   3.189  0.00  0.00    -0.203 OA
ATOM     28  C   UNL     1     -35.784  20.240   2.016  0.00  0.00    +0.512 C 
BRANCH  28  29
ATOM     29  O   UNL     1     -35.060  19.473   1.155  0.00  0.00    -0.418 OA
BRANCH  29  30
ATOM     30  C   UNL     1     -33.642  19.662   1.202  0.00  0.00    +0.212 C 
ATOM     31  C   UNL     1     -32.970  18.314   1.353  0.00  0.00    +0.051 C 
ENDBRANCH  29  30
ENDBRANCH  28  29
ENDBRANCH  26  28
ENDBRANCH  25  26
ENDBRANCH  24  25
ENDBRANCH   2  24
TORSDOF 13
ENDMDL
MODEL 3
REMARK VINA RESULT:      -5.2      3.000      7.096
REMARK  Name = 5353523
REMARK  13 active torsions:
REMARK  status: ('A' for Active; 'I' for Inactive)
REMARK    1  A    between atoms: C_1  and  N_5
REMARK    2  A    between atoms: C_2  and  S_18
REMARK    3  A    between atoms: C_2  and  C_24
REMARK    4  A    between atoms: N_5  and  C_7
REMARK    5  A    between atoms: C_7  and  C_11
REMARK    6  A    between atoms: S_18  and  C_20
REMARK    7  A    between atoms: C_20  and  O_21
REMARK    8  A    between atoms: O_21  and  C_22
REMARK    9  A    between atoms: C_24  and  C_25
REMARK   10  A    between atoms: C_25  and  O_26
REMARK   11  A    between atoms: O_26  and  C_28
REMARK   12  A    between atoms: C_28  and  O_29
REMARK   13  A    between atoms: O_29  and  C_30
REMARK                            x       y       z     vdW  Elec       q    Type
REMARK                         _______ _______ _______ _____ _____    ______ ____
ROOT
ATOM      1  C   UNL     1     -35.543  26.996   1.833  0.00  0.00    +0.035 C 
ATOM      2  C   UNL     1     -34.302  26.469   1.960  0.00  0.00    +0.027 C 
ATOM      3  C   UNL     1     -35.876  28.459   1.949  0.00  0.00    +0.048 C 
ENDROOT
BRANCH   1   5
ATOM      4  O   UNL     1     -37.846  24.999  -0.014  0.00  0.00    -0.265 OA
ATOM      5  N   UNL     1     -36.643  26.208   1.595  0.00  0.00    -0.250 N 
ATOM      6  C   UNL     1     -36.906  25.709   0.327  0.00  0.00    +0.307 C 
BRANCH   5   7
ATOM      7  C   UNL     1     -37.529  25.910   2.711  0.00  0.00    +0.130 C 
BRANCH   7  11
ATOM      8  N   UNL     1     -35.850  24.249   5.680  0.00  0.00    -0.340 NA
ATOM      9  N   UNL     1     -36.456  22.561   4.069  0.00  0.00    -0.186 NA
ATOM     10  N   UNL     1     -36.330  26.532   5.256  0.00  0.00    -0.332 N 
ATOM     11  C   UNL     1     -36.947  24.876   3.631  0.00  0.00    +0.062 C 
ATOM     12  C   UNL     1     -36.373  25.176   4.850  0.00  0.00    +0.187 C 
ATOM     13  C   UNL     1     -36.960  23.540   3.289  0.00  0.00    +0.111 C 
ATOM     14  C   UNL     1     -35.924  22.981   5.234  0.00  0.00    +0.066 C 
ATOM     15  C   UNL     1     -35.355  21.928   6.124  0.00  0.00    +0.129 C 
ATOM     16  H   UNL     1     -35.927  26.776   6.120  0.00  0.00    +0.145 HD
ATOM     17  H   UNL     1     -36.703  27.232   4.672  0.00  0.00    +0.145 HD
ENDBRANCH   7  11
ENDBRANCH   5   7
ENDBRANCH   1   5
BRANCH   2  18
ATOM     18  S   UNL     1     -32.927  27.501   2.340  0.00  0.00    -0.010 S 
BRANCH  18  20
ATOM     19  O   UNL     1     -33.125  26.581   4.806  0.00  0.00    -0.237 OA
ATOM     20  C   UNL     1     -33.017  27.574   4.096  0.00  0.00    +0.374 C 
BRANCH  20  21
ATOM     21  O   UNL     1     -32.928  28.853   4.572  0.00  0.00    -0.441 OA
BRANCH  21  22
ATOM     22  C   UNL     1     -31.913  29.085   5.555  0.00  0.00    +0.209 C 
ATOM     23  C   UNL     1     -31.933  30.547   5.949  0.00  0.00    +0.051 C 
ENDBRANCH  21  22
ENDBRANCH  20  21
ENDBRANCH  18  20
ENDBRANCH   2  18
BRANCH   2  24
ATOM     24  C   UNL     1     -34.004  24.984   1.837  0.00  0.00    +0.082 C 
BRANCH  24  25
ATOM     25  C   UNL     1     -33.223  24.636   0.570  0.00  0.00    +0.217 C 
BRANCH  25  26
ATOM     26  O   UNL     1     -34.028  23.898  -0.340  0.00  0.00    -0.418 OA
BRANCH  26  28
ATOM     27  O   UNL     1     -35.654  22.349   0.176  0.00  0.00    -0.203 OA
ATOM     28  C   UNL     1     -34.480  22.688   0.105  0.00  0.00    +0.512 C 
BRANCH  28  29
ATOM     29  O   UNL     1     -33.405  21.928   0.453  0.00  0.00    -0.418 OA
BRANCH  29  30
ATOM     30  C   UNL     1     -33.378  20.607  -0.096  0.00  0.00    +0.212 C 
ATOM     31  C   UNL     1     -32.133  19.897   0.390  0.00  0.00    +0.051 C 
ENDBRANCH  29  30
ENDBRANCH  28  29
ENDBRANCH  26  28
ENDBRANCH  25  26
ENDBRANCH  24  25
ENDBRANCH   2  24
TORSDOF 13
ENDMDL
MODEL 4
REMARK VINA RESULT:      -5.1      0.903      1.675
REMARK  Name = 5353523
REMARK  13 active torsions:
REMARK  status: ('A' for Active; 'I' for Inactive)
REMARK    1  A    between atoms: C_1  and  N_5
REMARK    2  A    between atoms: C_2  and  S_18
REMARK    3  A    between atoms: C_2  and  C_24
REMARK    4  A    between atoms: N_5  and  C_7
REMARK    5  A    between atoms: C_7  and  C_11
REMARK    6  A    between atoms: S_18  and  C_20
REMARK    7  A    between atoms: C_20  and  O_21
REMARK    8  A    between atoms: O_21  and  C_22
REMARK    9  A    between atoms: C_24  and  C_25
REMARK   10  A    between atoms: C_25  and  O_26
REMARK   11  A    between atoms: O_26  and  C_28
REMARK   12  A    between atoms: C_28  and  O_29
REMARK   13  A    between atoms: O_29  and  C_30
REMARK                            x       y       z     vdW  Elec       q    Type
REMARK                         _______ _______ _______ _____ _____    ______ ____
ROOT
ATOM      1  C   UNL     1     -36.185  23.510   2.665  0.00  0.00    +0.035 C 
ATOM      2  C   UNL     1     -37.305  23.180   1.977  0.00  0.00    +0.027 C 
ATOM      3  C   UNL     1     -34.827  23.724   2.052  0.00  0.00    +0.048 C 
ENDROOT
BRANCH   1   5
ATOM      4  O   UNL     1     -35.856  22.616   6.099  0.00  0.00    -0.265 OA
ATOM      5  N   UNL     1     -36.194  23.665   4.030  0.00  0.00    -0.250 N 
ATOM      6  C   UNL     1     -35.885  22.607   4.873  0.00  0.00    +0.307 C 
BRANCH   5   7
ATOM      7  C   UNL     1     -36.538  24.972   4.569  0.00  0.00    +0.130 C 
BRANCH   7  11
ATOM      8  N   UNL     1     -34.045  27.750   3.891  0.00  0.00    -0.340 NA
ATOM      9  N   UNL     1     -33.287  26.452   5.776  0.00  0.00    -0.186 NA
ATOM     10  N   UNL     1     -36.068  27.188   2.789  0.00  0.00    -0.332 N 
ATOM     11  C   UNL     1     -35.342  25.875   4.663  0.00  0.00    +0.062 C 
ATOM     12  C   UNL     1     -35.118  26.937   3.810  0.00  0.00    +0.187 C 
ATOM     13  C   UNL     1     -34.384  25.678   5.636  0.00  0.00    +0.111 C 
ATOM     14  C   UNL     1     -33.183  27.455   4.882  0.00  0.00    +0.066 C 
ATOM     15  C   UNL     1     -31.983  28.333   5.005  0.00  0.00    +0.129 C 
ATOM     16  H   UNL     1     -35.934  27.939   2.166  0.00  0.00    +0.145 HD
ATOM     17  H   UNL     1     -36.862  26.612   2.703  0.00  0.00    +0.145 HD
ENDBRANCH   7  11
ENDBRANCH   5   7
ENDBRANCH   1   5
BRANCH   2  18
ATOM     18  S   UNL     1     -37.240  22.914   0.237  0.00  0.00    -0.010 S 
BRANCH  18  20
ATOM     19  O   UNL     1     -35.992  20.605  -0.038  0.00  0.00    -0.237 OA
ATOM     20  C   UNL     1     -37.064  21.165   0.156  0.00  0.00    +0.374 C 
BRANCH  20  21
ATOM     21  O   UNL     1     -38.248  20.511   0.358  0.00  0.00    -0.441 OA
BRANCH  21  22
ATOM     22  C   UNL     1     -39.164  20.522  -0.743  0.00  0.00    +0.209 C 
ATOM     23  C   UNL     1     -40.493  21.075  -0.273  0.00  0.00    +0.051 C 
ENDBRANCH  21  22
ENDBRANCH  20  21
ENDBRANCH  18  20
ENDBRANCH   2  18
BRANCH   2  24
ATOM     24  C   UNL     1     -38.661  22.971   2.631  0.00  0.00    +0.082 C 
BRANCH  24  25
ATOM     25  C   UNL     1     -39.740  23.900   2.075  0.00  0.00    +0.217 C 
BRANCH  25  26
ATOM     26  O   UNL     1     -40.020  24.957   2.982  0.00  0.00    -0.418 OA
BRANCH  26  28
ATOM     27  O   UNL     1     -38.740  26.624   2.038  0.00  0.00    -0.203 OA
ATOM     28  C   UNL     1     -39.791  26.221   2.519  0.00  0.00    +0.512 C 
BRANCH  28  29
ATOM     29  O   UNL     1     -40.929  26.952   2.681  0.00  0.00    -0.418 OA
BRANCH  29  30
ATOM     30  C   UNL     1     -41.735  26.599   3.809  0.00  0.00    +0.212 C 
ATOM     31  C   UNL     1     -43.175  26.967   3.521  0.00  0.00    +0.051 C 
ENDBRANCH  29  30
ENDBRANCH  28  29
ENDBRANCH  26  28
ENDBRANCH  25  26
ENDBRANCH  24  25
ENDBRANCH   2  24
TORSDOF 13
ENDMDL
MODEL 5
REMARK VINA RESULT:      -5.1      2.276      4.893
REMARK  Name = 5353523
REMARK  13 active torsions:
REMARK  status: ('A' for Active; 'I' for Inactive)
REMARK    1  A    between atoms: C_1  and  N_5
REMARK    2  A    between atoms: C_2  and  S_18
REMARK    3  A    between atoms: C_2  and  C_24
REMARK    4  A    between atoms: N_5  and  C_7
REMARK    5  A    between atoms: C_7  and  C_11
REMARK    6  A    between atoms: S_18  and  C_20
REMARK    7  A    between atoms: C_20  and  O_21
REMARK    8  A    between atoms: O_21  and  C_22
REMARK    9  A    between atoms: C_24  and  C_25
REMARK   10  A    between atoms: C_25  and  O_26
REMARK   11  A    between atoms: O_26  and  C_28
REMARK   12  A    between atoms: C_28  and  O_29
REMARK   13  A    between atoms: O_29  and  C_30
REMARK                            x       y       z     vdW  Elec       q    Type
REMARK                         _______ _______ _______ _____ _____    ______ ____
ROOT
ATOM      1  C   UNL     1     -36.656  23.338   1.443  0.00  0.00    +0.035 C 
ATOM      2  C   UNL     1     -37.123  22.070   1.349  0.00  0.00    +0.027 C 
ATOM      3  C   UNL     1     -35.268  23.777   1.059  0.00  0.00    +0.048 C 
ENDROOT
BRANCH   1   5
ATOM      4  O   UNL     1     -38.616  26.315   1.392  0.00  0.00    -0.265 OA
ATOM      5  N   UNL     1     -37.433  24.362   1.927  0.00  0.00    -0.250 N 
ATOM      6  C   UNL     1     -37.917  25.354   1.086  0.00  0.00    +0.307 C 
BRANCH   5   7
ATOM      7  C   UNL     1     -37.736  24.379   3.351  0.00  0.00    +0.130 C 
BRANCH   7  11
ATOM      8  N   UNL     1     -34.859  24.636   5.809  0.00  0.00    -0.340 NA
ATOM      9  N   UNL     1     -35.162  26.767   4.723  0.00  0.00    -0.186 NA
ATOM     10  N   UNL     1     -36.263  22.806   5.263  0.00  0.00    -0.332 N 
ATOM     11  C   UNL     1     -36.592  24.914   4.163  0.00  0.00    +0.062 C 
ATOM     12  C   UNL     1     -35.887  24.159   5.079  0.00  0.00    +0.187 C 
ATOM     13  C   UNL     1     -36.182  26.224   4.026  0.00  0.00    +0.111 C 
ATOM     14  C   UNL     1     -34.553  25.928   5.585  0.00  0.00    +0.066 C 
ATOM     15  C   UNL     1     -33.421  26.493   6.375  0.00  0.00    +0.129 C 
ATOM     16  H   UNL     1     -35.779  22.244   5.909  0.00  0.00    +0.145 HD
ATOM     17  H   UNL     1     -37.010  22.428   4.745  0.00  0.00    +0.145 HD
ENDBRANCH   7  11
ENDBRANCH   5   7
ENDBRANCH   1   5
BRANCH   2  18
ATOM     18  S   UNL     1     -36.074  20.768   0.795  0.00  0.00    -0.010 S 
BRANCH  18  20
ATOM     19  O   UNL     1     -35.548  20.748   3.381  0.00  0.00    -0.237 OA
ATOM     20  C   UNL     1     -35.198  20.371   2.269  0.00  0.00    +0.374 C 
BRANCH  20  21
ATOM     21  O   UNL     1     -34.109  19.579   2.032  0.00  0.00    -0.441 OA
BRANCH  21  22
ATOM     22  C   UNL     1     -33.744  19.413   0.657  0.00  0.00    +0.209 C 
ATOM     23  C   UNL     1     -32.312  19.865   0.469  0.00  0.00    +0.051 C 
ENDBRANCH  21  22
ENDBRANCH  20  21
ENDBRANCH  18  20
ENDBRANCH   2  18
BRANCH   2  24
ATOM     24  C   UNL     1     -38.533  21.663   1.747  0.00  0.00    +0.082 C 
BRANCH  24  25
ATOM     25  C   UNL     1     -39.476  21.538   0.552  0.00  0.00    +0.217 C 
BRANCH  25  26
ATOM     26  O   UNL     1     -39.690  20.175   0.211  0.00  0.00    -0.418 OA
BRANCH  26  28
ATOM     27  O   UNL     1     -38.753  20.508  -1.868  0.00  0.00    -0.203 OA
ATOM     28  C   UNL     1     -39.386  19.824  -1.074  0.00  0.00    +0.512 C 
BRANCH  28  29
ATOM     29  O   UNL     1     -39.902  18.588  -1.316  0.00  0.00    -0.418 OA
BRANCH  29  30
ATOM     30  C   UNL     1     -38.982  17.498  -1.193  0.00  0.00    +0.212 C 
ATOM     31  C   UNL     1     -39.751  16.195  -1.242  0.00  0.00    +0.051 C 
ENDBRANCH  29  30
ENDBRANCH  28  29
ENDBRANCH  26  28
ENDBRANCH  25  26
ENDBRANCH  24  25
ENDBRANCH   2  24
TORSDOF 13
ENDMDL
MODEL 6
REMARK VINA RESULT:      -5.0      4.104      7.002
REMARK  Name = 5353523
REMARK  13 active torsions:
REMARK  status: ('A' for Active; 'I' for Inactive)
REMARK    1  A    between atoms: C_1  and  N_5
REMARK    2  A    between atoms: C_2  and  S_18
REMARK    3  A    between atoms: C_2  and  C_24
REMARK    4  A    between atoms: N_5  and  C_7
REMARK    5  A    between atoms: C_7  and  C_11
REMARK    6  A    between atoms: S_18  and  C_20
REMARK    7  A    between atoms: C_20  and  O_21
REMARK    8  A    between atoms: O_21  and  C_22
REMARK    9  A    between atoms: C_24  and  C_25
REMARK   10  A    between atoms: C_25  and  O_26
REMARK   11  A    between atoms: O_26  and  C_28
REMARK   12  A    between atoms: C_28  and  O_29
REMARK   13  A    between atoms: O_29  and  C_30
REMARK                            x       y       z     vdW  Elec       q    Type
REMARK                         _______ _______ _______ _____ _____    ______ ____
ROOT
ATOM      1  C   UNL     1     -34.330  26.538   1.918  0.00  0.00    +0.035 C 
ATOM      2  C   UNL     1     -34.208  27.789   2.424  0.00  0.00    +0.027 C 
ATOM      3  C   UNL     1     -33.208  25.541   1.802  0.00  0.00    +0.048 C 
ENDROOT
BRANCH   1   5
ATOM      4  O   UNL     1     -36.706  25.362  -0.464  0.00  0.00    -0.265 OA
ATOM      5  N   UNL     1     -35.526  26.066   1.437  0.00  0.00    -0.250 N 
ATOM      6  C   UNL     1     -35.695  25.786   0.088  0.00  0.00    +0.307 C 
BRANCH   5   7
ATOM      7  C   UNL     1     -36.615  25.866   2.381  0.00  0.00    +0.130 C 
BRANCH   7  11
ATOM      8  N   UNL     1     -35.900  24.135   5.681  0.00  0.00    -0.340 NA
ATOM      9  N   UNL     1     -35.759  22.521   3.896  0.00  0.00    -0.186 NA
ATOM     10  N   UNL     1     -36.420  26.399   5.206  0.00  0.00    -0.332 N 
ATOM     11  C   UNL     1     -36.287  24.817   3.405  0.00  0.00    +0.062 C 
ATOM     12  C   UNL     1     -36.194  25.074   4.758  0.00  0.00    +0.187 C 
ATOM     13  C   UNL     1     -36.057  23.511   3.028  0.00  0.00    +0.111 C 
ATOM     14  C   UNL     1     -35.698  22.899   5.188  0.00  0.00    +0.066 C 
ATOM     15  C   UNL     1     -35.370  21.832   6.178  0.00  0.00    +0.129 C 
ATOM     16  H   UNL     1     -36.360  26.612   6.165  0.00  0.00    +0.145 HD
ATOM     17  H   UNL     1     -36.636  27.108   4.557  0.00  0.00    +0.145 HD
ENDBRANCH   7  11
ENDBRANCH   5   7
ENDBRANCH   1   5
BRANCH   2  18
ATOM     18  S   UNL     1     -32.641  28.388   2.961  0.00  0.00    -0.010 S 
BRANCH  18  20
ATOM     19  O   UNL     1     -33.573  27.332   5.193  0.00  0.00    -0.237 OA
ATOM     20  C   UNL     1     -32.608  27.837   4.632  0.00  0.00    +0.374 C 
BRANCH  20  21
ATOM     21  O   UNL     1     -31.383  28.012   5.215  0.00  0.00    -0.441 OA
BRANCH  21  22
ATOM     22  C   UNL     1     -31.372  28.771   6.430  0.00  0.00    +0.209 C 
ATOM     23  C   UNL     1     -31.806  30.190   6.128  0.00  0.00    +0.051 C 
ENDBRANCH  21  22
ENDBRANCH  20  21
ENDBRANCH  18  20
ENDBRANCH   2  18
BRANCH   2  24
ATOM     24  C   UNL     1     -35.365  28.769   2.525  0.00  0.00    +0.082 C 
BRANCH  24  25
ATOM     25  C   UNL     1     -34.931  30.223   2.339  0.00  0.00    +0.217 C 
BRANCH  25  26
ATOM     26  O   UNL     1     -35.928  31.118   2.813  0.00  0.00    -0.418 OA
BRANCH  26  28
ATOM     27  O   UNL     1     -37.827  31.923   1.784  0.00  0.00    -0.203 OA
ATOM     28  C   UNL     1     -36.610  31.817   1.856  0.00  0.00    +0.512 C 
BRANCH  28  29
ATOM     29  O   UNL     1     -35.705  32.373   1.004  0.00  0.00    -0.418 OA
BRANCH  29  30
ATOM     30  C   UNL     1     -35.719  33.802   0.934  0.00  0.00    +0.212 C 
ATOM     31  C   UNL     1     -36.202  34.224  -0.438  0.00  0.00    +0.051 C 
ENDBRANCH  29  30
ENDBRANCH  28  29
ENDBRANCH  26  28
ENDBRANCH  25  26
ENDBRANCH  24  25
ENDBRANCH   2  24
TORSDOF 13
ENDMDL
MODEL 7
REMARK VINA RESULT:      -5.0      3.433      7.080
REMARK  Name = 5353523
REMARK  13 active torsions:
REMARK  status: ('A' for Active; 'I' for Inactive)
REMARK    1  A    between atoms: C_1  and  N_5
REMARK    2  A    between atoms: C_2  and  S_18
REMARK    3  A    between atoms: C_2  and  C_24
REMARK    4  A    between atoms: N_5  and  C_7
REMARK    5  A    between atoms: C_7  and  C_11
REMARK    6  A    between atoms: S_18  and  C_20
REMARK    7  A    between atoms: C_20  and  O_21
REMARK    8  A    between atoms: O_21  and  C_22
REMARK    9  A    between atoms: C_24  and  C_25
REMARK   10  A    between atoms: C_25  and  O_26
REMARK   11  A    between atoms: O_26  and  C_28
REMARK   12  A    between atoms: C_28  and  O_29
REMARK   13  A    between atoms: O_29  and  C_30
REMARK                            x       y       z     vdW  Elec       q    Type
REMARK                         _______ _______ _______ _____ _____    ______ ____
ROOT
ATOM      1  C   UNL     1     -35.137  23.756   2.006  0.00  0.00    +0.035 C 
ATOM      2  C   UNL     1     -34.407  24.683   2.671  0.00  0.00    +0.027 C 
ATOM      3  C   UNL     1     -35.458  23.802   0.536  0.00  0.00    +0.048 C 
ENDROOT
BRANCH   1   5
ATOM      4  O   UNL     1     -35.595  20.337   2.901  0.00  0.00    -0.265 OA
ATOM      5  N   UNL     1     -35.677  22.666   2.644  0.00  0.00    -0.250 N 
ATOM      6  C   UNL     1     -35.202  21.385   2.400  0.00  0.00    +0.307 C 
BRANCH   5   7
ATOM      7  C   UNL     1     -36.764  22.891   3.586  0.00  0.00    +0.130 C 
BRANCH   7  11
ATOM      8  N   UNL     1     -40.019  22.851   1.638  0.00  0.00    -0.340 NA
ATOM      9  N   UNL     1     -39.505  25.120   2.269  0.00  0.00    -0.186 NA
ATOM     10  N   UNL     1     -38.566  21.081   2.252  0.00  0.00    -0.332 N 
ATOM     11  C   UNL     1     -38.024  23.329   2.896  0.00  0.00    +0.062 C 
ATOM     12  C   UNL     1     -38.886  22.461   2.258  0.00  0.00    +0.187 C 
ATOM     13  C   UNL     1     -38.388  24.659   2.869  0.00  0.00    +0.111 C 
ATOM     14  C   UNL     1     -40.264  24.174   1.682  0.00  0.00    +0.066 C 
ATOM     15  C   UNL     1     -41.509  24.644   1.007  0.00  0.00    +0.129 C 
ATOM     16  H   UNL     1     -39.162  20.438   1.804  0.00  0.00    +0.145 HD
ATOM     17  H   UNL     1     -37.745  20.765   2.695  0.00  0.00    +0.145 HD
ENDBRANCH   7  11
ENDBRANCH   5   7
ENDBRANCH   1   5
BRANCH   2  18
ATOM     18  S   UNL     1     -33.795  26.107   1.835  0.00  0.00    -0.010 S 
BRANCH  18  20
ATOM     19  O   UNL     1     -31.762  25.060   0.519  0.00  0.00    -0.237 OA
ATOM     20  C   UNL     1     -32.124  25.646   1.532  0.00  0.00    +0.374 C 
BRANCH  20  21
ATOM     21  O   UNL     1     -31.283  26.038   2.537  0.00  0.00    -0.441 OA
BRANCH  21  22
ATOM     22  C   UNL     1     -30.096  26.726   2.125  0.00  0.00    +0.209 C 
ATOM     23  C   UNL     1     -29.838  27.876   3.075  0.00  0.00    +0.051 C 
ENDBRANCH  21  22
ENDBRANCH  20  21
ENDBRANCH  18  20
ENDBRANCH   2  18
BRANCH   2  24
ATOM     24  C   UNL     1     -34.103  24.603   4.158  0.00  0.00    +0.082 C 
BRANCH  24  25
ATOM     25  C   UNL     1     -34.518  25.862   4.919  0.00  0.00    +0.217 C 
BRANCH  25  26
ATOM     26  O   UNL     1     -33.467  26.322   5.757  0.00  0.00    -0.418 OA
BRANCH  26  28
ATOM     27  O   UNL     1     -33.259  28.244   4.504  0.00  0.00    -0.203 OA
ATOM     28  C   UNL     1     -32.854  27.479   5.370  0.00  0.00    +0.512 C 
BRANCH  28  29
ATOM     29  O   UNL     1     -31.722  27.636   6.111  0.00  0.00    -0.418 OA
BRANCH  29  30
ATOM     30  C   UNL     1     -31.512  28.944   6.651  0.00  0.00    +0.212 C 
ATOM     31  C   UNL     1     -30.034  29.267   6.603  0.00  0.00    +0.051 C 
ENDBRANCH  29  30
ENDBRANCH  28  29
ENDBRANCH  26  28
ENDBRANCH  25  26
ENDBRANCH  24  25
ENDBRANCH   2  24
TORSDOF 13
ENDMDL
MODEL 8
REMARK VINA RESULT:      -5.0      1.950      4.878
REMARK  Name = 5353523
REMARK  13 active torsions:
REMARK  status: ('A' for Active; 'I' for Inactive)
REMARK    1  A    between atoms: C_1  and  N_5
REMARK    2  A    between atoms: C_2  and  S_18
REMARK    3  A    between atoms: C_2  and  C_24
REMARK    4  A    between atoms: N_5  and  C_7
REMARK    5  A    between atoms: C_7  and  C_11
REMARK    6  A    between atoms: S_18  and  C_20
REMARK    7  A    between atoms: C_20  and  O_21
REMARK    8  A    between atoms: O_21  and  C_22
REMARK    9  A    between atoms: C_24  and  C_25
REMARK   10  A    between atoms: C_25  and  O_26
REMARK   11  A    between atoms: O_26  and  C_28
REMARK   12  A    between atoms: C_28  and  O_29
REMARK   13  A    between atoms: O_29  and  C_30
REMARK                            x       y       z     vdW  Elec       q    Type
REMARK                         _______ _______ _______ _____ _____    ______ ____
ROOT
ATOM      1  C   UNL     1     -36.647  23.689   1.830  0.00  0.00    +0.035 C 
ATOM      2  C   UNL     1     -37.946  24.023   1.648  0.00  0.00    +0.027 C 
ATOM      3  C   UNL     1     -35.505  24.164   0.972  0.00  0.00    +0.048 C 
ENDROOT
BRANCH   1   5
ATOM      4  O   UNL     1     -35.469  20.699   3.373  0.00  0.00    -0.265 OA
ATOM      5  N   UNL     1     -36.251  22.845   2.839  0.00  0.00    -0.250 N 
ATOM      6  C   UNL     1     -35.844  21.546   2.568  0.00  0.00    +0.307 C 
BRANCH   5   7
ATOM      7  C   UNL     1     -36.270  23.350   4.204  0.00  0.00    +0.130 C 
BRANCH   7  11
ATOM      8  N   UNL     1     -35.069  26.918   4.677  0.00  0.00    -0.340 NA
ATOM      9  N   UNL     1     -33.158  25.455   4.528  0.00  0.00    -0.186 NA
ATOM     10  N   UNL     1     -37.264  26.035   4.524  0.00  0.00    -0.332 N 
ATOM     11  C   UNL     1     -35.384  24.551   4.371  0.00  0.00    +0.062 C 
ATOM     12  C   UNL     1     -35.862  25.837   4.525  0.00  0.00    +0.187 C 
ATOM     13  C   UNL     1     -34.011  24.419   4.380  0.00  0.00    +0.111 C 
ATOM     14  C   UNL     1     -33.748  26.659   4.669  0.00  0.00    +0.066 C 
ATOM     15  C   UNL     1     -32.838  27.829   4.834  0.00  0.00    +0.129 C 
ATOM     16  H   UNL     1     -37.634  26.941   4.632  0.00  0.00    +0.145 HD
ATOM     17  H   UNL     1     -37.870  25.266   4.415  0.00  0.00    +0.145 HD
ENDBRANCH   7  11
ENDBRANCH   5   7
ENDBRANCH   1   5
BRANCH   2  18
ATOM     18  S   UNL     1     -38.426  25.046   0.297  0.00  0.00    -0.010 S 
BRANCH  18  20
ATOM     19  O   UNL     1     -37.713  27.181   1.676  0.00  0.00    -0.237 OA
ATOM     20  C   UNL     1     -38.622  26.605   1.089  0.00  0.00    +0.374 C 
BRANCH  20  21
ATOM     21  O   UNL     1     -39.888  27.105   0.951  0.00  0.00    -0.441 OA
BRANCH  21  22
ATOM     22  C   UNL     1     -40.895  26.161   0.571  0.00  0.00    +0.209 C 
ATOM     23  C   UNL     1     -42.259  26.769   0.818  0.00  0.00    +0.051 C 
ENDBRANCH  21  22
ENDBRANCH  20  21
ENDBRANCH  18  20
ENDBRANCH   2  18
BRANCH   2  24
ATOM     24  C   UNL     1     -39.074  23.522   2.536  0.00  0.00    +0.082 C 
BRANCH  24  25
ATOM     25  C   UNL     1     -39.637  22.177   2.081  0.00  0.00    +0.217 C 
BRANCH  25  26
ATOM     26  O   UNL     1     -40.571  22.345   1.023  0.00  0.00    -0.418 OA
BRANCH  26  28
ATOM     27  O   UNL     1     -41.610  20.605  -0.074  0.00  0.00    -0.203 OA
ATOM     28  C   UNL     1     -40.639  21.327   0.115  0.00  0.00    +0.512 C 
BRANCH  28  29
ATOM     29  O   UNL     1     -39.448  21.255  -0.541  0.00  0.00    -0.418 OA
BRANCH  29  30
ATOM     30  C   UNL     1     -38.992  19.934  -0.853  0.00  0.00    +0.212 C 
ATOM     31  C   UNL     1     -37.701  19.670  -0.108  0.00  0.00    +0.051 C 
ENDBRANCH  29  30
ENDBRANCH  28  29
ENDBRANCH  26  28
ENDBRANCH  25  26
ENDBRANCH  24  25
ENDBRANCH   2  24
TORSDOF 13
ENDMDL
MODEL 9
REMARK VINA RESULT:      -4.9      2.953      6.412
REMARK  Name = 5353523
REMARK  13 active torsions:
REMARK  status: ('A' for Active; 'I' for Inactive)
REMARK    1  A    between atoms: C_1  and  N_5
REMARK    2  A    between atoms: C_2  and  S_18
REMARK    3  A    between atoms: C_2  and  C_24
REMARK    4  A    between atoms: N_5  and  C_7
REMARK    5  A    between atoms: C_7  and  C_11
REMARK    6  A    between atoms: S_18  and  C_20
REMARK    7  A    between atoms: C_20  and  O_21
REMARK    8  A    between atoms: O_21  and  C_22
REMARK    9  A    between atoms: C_24  and  C_25
REMARK   10  A    between atoms: C_25  and  O_26
REMARK   11  A    between atoms: O_26  and  C_28
REMARK   12  A    between atoms: C_28  and  O_29
REMARK   13  A    between atoms: O_29  and  C_30
REMARK                            x       y       z     vdW  Elec       q    Type
REMARK                         _______ _______ _______ _____ _____    ______ ____
ROOT
ATOM      1  C   UNL     1     -37.090  23.882   1.551  0.00  0.00    +0.035 C 
ATOM      2  C   UNL     1     -36.149  23.329   2.354  0.00  0.00    +0.027 C 
ATOM      3  C   UNL     1     -37.082  23.827   0.047  0.00  0.00    +0.048 C 
ENDROOT
BRANCH   1   5
ATOM      4  O   UNL     1     -39.070  26.699   2.471  0.00  0.00    -0.265 OA
ATOM      5  N   UNL     1     -38.159  24.578   2.062  0.00  0.00    -0.250 N 
ATOM      6  C   UNL     1     -38.182  25.965   2.050  0.00  0.00    +0.307 C 
BRANCH   5   7
ATOM      7  C   UNL     1     -39.269  23.819   2.619  0.00  0.00    +0.130 C 
BRANCH   7  11
ATOM      8  N   UNL     1     -40.572  20.990   0.452  0.00  0.00    -0.340 NA
ATOM      9  N   UNL     1     -41.551  23.066  -0.287  0.00  0.00    -0.186 NA
ATOM     10  N   UNL     1     -39.054  20.967   2.273  0.00  0.00    -0.332 N 
ATOM     11  C   UNL     1     -40.011  23.051   1.563  0.00  0.00    +0.062 C 
ATOM     12  C   UNL     1     -39.907  21.684   1.399  0.00  0.00    +0.187 C 
ATOM     13  C   UNL     1     -40.855  23.695   0.683  0.00  0.00    +0.111 C 
ATOM     14  C   UNL     1     -41.365  21.732  -0.344  0.00  0.00    +0.066 C 
ATOM     15  C   UNL     1     -42.118  21.001  -1.404  0.00  0.00    +0.129 C 
ATOM     16  H   UNL     1     -38.961  19.991   2.180  0.00  0.00    +0.145 HD
ATOM     17  H   UNL     1     -38.555  21.444   2.975  0.00  0.00    +0.145 HD
ENDBRANCH   7  11
ENDBRANCH   5   7
ENDBRANCH   1   5
BRANCH   2  18
ATOM     18  S   UNL     1     -34.752  22.510   1.661  0.00  0.00    -0.010 S 
BRANCH  18  20
ATOM     19  O   UNL     1     -36.301  20.450   2.230  0.00  0.00    -0.237 OA
ATOM     20  C   UNL     1     -35.178  20.820   1.905  0.00  0.00    +0.374 C 
BRANCH  20  21
ATOM     21  O   UNL     1     -34.128  19.977   1.667  0.00  0.00    -0.441 OA
BRANCH  21  22
ATOM     22  C   UNL     1     -33.618  19.977   0.329  0.00  0.00    +0.209 C 
ATOM     23  C   UNL     1     -32.105  19.952   0.379  0.00  0.00    +0.051 C 
ENDBRANCH  21  22
ENDBRANCH  20  21
ENDBRANCH  18  20
ENDBRANCH   2  18
BRANCH   2  24
ATOM     24  C   UNL     1     -36.191  23.405   3.871  0.00  0.00    +0.082 C 
BRANCH  24  25
ATOM     25  C   UNL     1     -34.852  23.815   4.483  0.00  0.00    +0.217 C 
BRANCH  25  26
ATOM     26  O   UNL     1     -35.027  24.832   5.460  0.00  0.00    -0.418 OA
BRANCH  26  28
ATOM     27  O   UNL     1     -33.271  26.317   5.612  0.00  0.00    -0.203 OA
ATOM     28  C   UNL     1     -34.389  26.015   5.215  0.00  0.00    +0.512 C 
BRANCH  28  29
ATOM     29  O   UNL     1     -35.207  26.795   4.455  0.00  0.00    -0.418 OA
BRANCH  29  30
ATOM     30  C   UNL     1     -34.562  27.539   3.416  0.00  0.00    +0.212 C 
ATOM     31  C   UNL     1     -34.518  26.696   2.161  0.00  0.00    +0.051 C 
ENDBRANCH  29  30
ENDBRANCH  28  29
ENDBRANCH  26  28
ENDBRANCH  25  26
ENDBRANCH  24  25
ENDBRANCH   2  24
TORSDOF 13
ENDMDL
