MODEL 1
REMARK VINA RESULT:      -6.0      0.000      0.000
REMARK  Name = 5281481
REMARK  4 active torsions:
REMARK  status: ('A' for Active; 'I' for Inactive)
REMARK    1  A    between atoms: C_7  and  O_20
REMARK    2  A    between atoms: C_11  and  O_22
REMARK    3  A    between atoms: C_13  and  C_17
REMARK    4  A    between atoms: C_13  and  O_24
REMARK                            x       y       z     vdW  Elec       q    Type
REMARK                         _______ _______ _______ _____ _____    ______ ____
ROOT
ATOM      1  O   UNL     1     -34.736  24.867  -0.335  0.00  0.00    -0.349 OA
ATOM      2  O   UNL     1     -37.212  22.749   0.087  0.00  0.00    -0.351 OA
ATOM      3  O   UNL     1     -38.071  25.345   3.242  0.00  0.00    -0.447 OA
ATOM      4  O   UNL     1     -37.722  27.158   1.865  0.00  0.00    -0.250 OA
ATOM      5  C   UNL     1     -35.920  23.719   2.025  0.00  0.00    +0.081 C 
ATOM      6  C   UNL     1     -36.801  23.948   0.765  0.00  0.00    +0.152 C 
ATOM      7  C   UNL     1     -35.145  25.141   2.140  0.00  0.00    +0.133 C 
ATOM      8  C   UNL     1     -36.144  25.014  -0.092  0.00  0.00    +0.172 C 
ATOM      9  C   UNL     1     -35.120  25.731   0.736  0.00  0.00    +0.170 C 
ATOM     10  C   UNL     1     -35.867  26.138   3.102  0.00  0.00    +0.158 C 
ATOM     11  C   UNL     1     -36.642  23.373   3.363  0.00  0.00    +0.158 C 
ATOM     12  C   UNL     1     -38.263  23.571   0.596  0.00  0.00    +0.172 C 
ATOM     13  C   UNL     1     -36.137  25.576   4.499  0.00  0.00    +0.155 C 
ATOM     14  C   UNL     1     -37.228  24.577   4.123  0.00  0.00    +0.224 C 
ATOM     15  C   UNL     1     -34.926  22.558   1.725  0.00  0.00    +0.008 C 
ATOM     16  C   UNL     1     -37.306  26.322   2.650  0.00  0.00    +0.322 C 
ENDROOT
BRANCH  13  17
ATOM     17  C   UNL     1     -34.975  25.051   5.273  0.00  0.00    -0.016 C 
ATOM     18  C   UNL     1     -33.946  26.060   5.686  0.00  0.00    +0.029 C 
ATOM     19  C   UNL     1     -34.859  23.751   5.583  0.00  0.00    -0.007 C 
ENDBRANCH  13  17
BRANCH   7  20
ATOM     20  O   UNL     1     -33.787  24.992   2.535  0.00  0.00    -0.383 OA
ATOM     21  H   UNL     1     -33.285  25.780   2.271  0.00  0.00    +0.210 HD
ENDBRANCH   7  20
BRANCH  11  22
ATOM     22  O   UNL     1     -37.643  22.373   3.219  0.00  0.00    -0.381 OA
ATOM     23  H   UNL     1     -38.177  22.561   2.431  0.00  0.00    +0.210 HD
ENDBRANCH  11  22
BRANCH  13  24
ATOM     24  O   UNL     1     -36.706  26.618   5.306  0.00  0.00    -0.379 OA
ATOM     25  H   UNL     1     -36.163  26.745   6.099  0.00  0.00    +0.211 HD
ENDBRANCH  13  24
TORSDOF 4
ENDMDL
MODEL 2
REMARK VINA RESULT:      -6.0      1.472      3.678
REMARK  Name = 5281481
REMARK  4 active torsions:
REMARK  status: ('A' for Active; 'I' for Inactive)
REMARK    1  A    between atoms: C_7  and  O_20
REMARK    2  A    between atoms: C_11  and  O_22
REMARK    3  A    between atoms: C_13  and  C_17
REMARK    4  A    between atoms: C_13  and  O_24
REMARK                            x       y       z     vdW  Elec       q    Type
REMARK                         _______ _______ _______ _____ _____    ______ ____
ROOT
ATOM      1  O   UNL     1     -38.978  26.294   2.675  0.00  0.00    -0.349 OA
ATOM      2  O   UNL     1     -36.708  26.484   0.307  0.00  0.00    -0.351 OA
ATOM      3  O   UNL     1     -36.082  22.518   1.450  0.00  0.00    -0.447 OA
ATOM      4  O   UNL     1     -38.354  22.150   1.473  0.00  0.00    -0.250 OA
ATOM      5  C   UNL     1     -36.290  25.282   2.485  0.00  0.00    +0.081 C 
ATOM      6  C   UNL     1     -37.138  25.437   1.192  0.00  0.00    +0.152 C 
ATOM      7  C   UNL     1     -37.343  24.546   3.477  0.00  0.00    +0.133 C 
ATOM      8  C   UNL     1     -38.605  25.442   1.579  0.00  0.00    +0.172 C 
ATOM      9  C   UNL     1     -38.735  24.919   2.979  0.00  0.00    +0.170 C 
ATOM     10  C   UNL     1     -37.193  22.992   3.461  0.00  0.00    +0.158 C 
ATOM     11  C   UNL     1     -34.962  24.470   2.390  0.00  0.00    +0.158 C 
ATOM     12  C   UNL     1     -36.685  25.163  -0.232  0.00  0.00    +0.172 C 
ATOM     13  C   UNL     1     -35.774  22.497   3.747  0.00  0.00    +0.155 C 
ATOM     14  C   UNL     1     -35.123  22.940   2.441  0.00  0.00    +0.224 C 
ATOM     15  C   UNL     1     -35.924  26.703   3.006  0.00  0.00    +0.008 C 
ATOM     16  C   UNL     1     -37.326  22.487   2.034  0.00  0.00    +0.322 C 
ENDROOT
BRANCH  13  17
ATOM     17  C   UNL     1     -35.125  22.943   5.014  0.00  0.00    -0.016 C 
ATOM     18  C   UNL     1     -35.572  22.251   6.266  0.00  0.00    +0.029 C 
ATOM     19  C   UNL     1     -34.194  23.908   5.031  0.00  0.00    -0.007 C 
ENDBRANCH  13  17
BRANCH   7  20
ATOM     20  O   UNL     1     -37.258  25.023   4.814  0.00  0.00    -0.383 OA
ATOM     21  H   UNL     1     -36.332  25.214   5.032  0.00  0.00    +0.210 HD
ENDBRANCH   7  20
BRANCH  11  22
ATOM     22  O   UNL     1     -34.167  24.823   1.265  0.00  0.00    -0.381 OA
ATOM     23  H   UNL     1     -33.562  24.094   1.054  0.00  0.00    +0.210 HD
ENDBRANCH  11  22
BRANCH  13  24
ATOM     24  O   UNL     1     -35.797  21.062   3.804  0.00  0.00    -0.379 OA
ATOM     25  H   UNL     1     -34.903  20.719   3.649  0.00  0.00    +0.211 HD
ENDBRANCH  13  24
TORSDOF 4
ENDMDL
MODEL 3
REMARK VINA RESULT:      -5.9      1.136      1.247
REMARK  Name = 5281481
REMARK  4 active torsions:
REMARK  status: ('A' for Active; 'I' for Inactive)
REMARK    1  A    between atoms: C_7  and  O_20
REMARK    2  A    between atoms: C_11  and  O_22
REMARK    3  A    between atoms: C_13  and  C_17
REMARK    4  A    between atoms: C_13  and  O_24
REMARK                            x       y       z     vdW  Elec       q    Type
REMARK                         _______ _______ _______ _____ _____    ______ ____
ROOT
ATOM      1  O   UNL     1     -36.573  24.465  -0.560  0.00  0.00    -0.349 OA
ATOM      2  O   UNL     1     -37.776  21.893   1.092  0.00  0.00    -0.351 OA
ATOM      3  O   UNL     1     -38.027  24.750   4.125  0.00  0.00    -0.447 OA
ATOM      4  O   UNL     1     -38.919  26.269   2.642  0.00  0.00    -0.250 OA
ATOM      5  C   UNL     1     -36.189  23.549   2.142  0.00  0.00    +0.081 C 
ATOM      6  C   UNL     1     -37.541  23.270   1.428  0.00  0.00    +0.152 C 
ATOM      7  C   UNL     1     -35.960  25.119   1.800  0.00  0.00    +0.133 C 
ATOM      8  C   UNL     1     -37.706  24.275   0.303  0.00  0.00    +0.172 C 
ATOM      9  C   UNL     1     -36.730  25.395   0.513  0.00  0.00    +0.170 C 
ATOM     10  C   UNL     1     -36.492  26.060   2.927  0.00  0.00    +0.158 C 
ATOM     11  C   UNL     1     -36.115  23.303   3.680  0.00  0.00    +0.158 C 
ATOM     12  C   UNL     1     -38.719  22.487   1.983  0.00  0.00    +0.172 C 
ATOM     13  C   UNL     1     -35.942  25.744   4.319  0.00  0.00    +0.155 C 
ATOM     14  C   UNL     1     -36.688  24.434   4.554  0.00  0.00    +0.224 C 
ATOM     15  C   UNL     1     -35.092  22.662   1.481  0.00  0.00    +0.008 C 
ATOM     16  C   UNL     1     -37.958  25.754   3.188  0.00  0.00    +0.322 C 
ENDROOT
BRANCH  13  17
ATOM     17  C   UNL     1     -34.460  25.721   4.490  0.00  0.00    -0.016 C 
ATOM     18  C   UNL     1     -33.742  27.006   4.209  0.00  0.00    +0.029 C 
ATOM     19  C   UNL     1     -33.809  24.613   4.875  0.00  0.00    -0.007 C 
ENDBRANCH  13  17
BRANCH   7  20
ATOM     20  O   UNL     1     -34.599  25.425   1.523  0.00  0.00    -0.383 OA
ATOM     21  H   UNL     1     -34.031  24.717   1.867  0.00  0.00    +0.210 HD
ENDBRANCH   7  20
BRANCH  11  22
ATOM     22  O   UNL     1     -36.688  22.063   4.079  0.00  0.00    -0.381 OA
ATOM     23  H   UNL     1     -37.506  22.229   4.573  0.00  0.00    +0.210 HD
ENDBRANCH  11  22
BRANCH  13  24
ATOM     24  O   UNL     1     -36.427  26.737   5.235  0.00  0.00    -0.379 OA
ATOM     25  H   UNL     1     -35.877  26.734   6.034  0.00  0.00    +0.211 HD
ENDBRANCH  13  24
TORSDOF 4
ENDMDL
MODEL 4
REMARK VINA RESULT:      -5.6      1.422      3.246
REMARK  Name = 5281481
REMARK  4 active torsions:
REMARK  status: ('A' for Active; 'I' for Inactive)
REMARK    1  A    between atoms: C_7  and  O_20
REMARK    2  A    between atoms: C_11  and  O_22
REMARK    3  A    between atoms: C_13  and  C_17
REMARK    4  A    between atoms: C_13  and  O_24
REMARK                            x       y       z     vdW  Elec       q    Type
REMARK                         _______ _______ _______ _____ _____    ______ ____
ROOT
ATOM      1  O   UNL     1     -38.155  21.907   1.332  0.00  0.00    -0.349 OA
ATOM      2  O   UNL     1     -38.881  24.927   0.260  0.00  0.00    -0.351 OA
ATOM      3  O   UNL     1     -34.979  25.649   1.558  0.00  0.00    -0.447 OA
ATOM      4  O   UNL     1     -34.266  23.710   0.541  0.00  0.00    -0.250 OA
ATOM      5  C   UNL     1     -37.586  24.524   2.388  0.00  0.00    +0.081 C 
ATOM      6  C   UNL     1     -37.712  24.334   0.850  0.00  0.00    +0.152 C 
ATOM      7  C   UNL     1     -36.621  23.282   2.789  0.00  0.00    +0.133 C 
ATOM      8  C   UNL     1     -37.462  22.873   0.526  0.00  0.00    +0.172 C 
ATOM      9  C   UNL     1     -36.815  22.222   1.712  0.00  0.00    +0.170 C 
ATOM     10  C   UNL     1     -35.114  23.690   2.842  0.00  0.00    +0.158 C 
ATOM     11  C   UNL     1     -36.998  25.872   2.908  0.00  0.00    +0.158 C 
ATOM     12  C   UNL     1     -37.625  25.418  -0.211  0.00  0.00    +0.172 C 
ATOM     13  C   UNL     1     -34.821  24.891   3.743  0.00  0.00    +0.155 C 
ATOM     14  C   UNL     1     -35.462  25.972   2.877  0.00  0.00    +0.224 C 
ATOM     15  C   UNL     1     -39.001  24.365   3.020  0.00  0.00    +0.008 C 
ATOM     16  C   UNL     1     -34.711  24.301   1.510  0.00  0.00    +0.322 C 
ENDROOT
BRANCH  13  17
ATOM     17  C   UNL     1     -35.259  24.814   5.166  0.00  0.00    -0.016 C 
ATOM     18  C   UNL     1     -34.932  23.543   5.891  0.00  0.00    +0.029 C 
ATOM     19  C   UNL     1     -35.908  25.825   5.764  0.00  0.00    -0.007 C 
ENDBRANCH  13  17
BRANCH   7  20
ATOM     20  O   UNL     1     -36.996  22.674   4.019  0.00  0.00    -0.383 OA
ATOM     21  H   UNL     1     -37.962  22.697   4.110  0.00  0.00    +0.210 HD
ENDBRANCH   7  20
BRANCH  11  22
ATOM     22  O   UNL     1     -37.558  27.013   2.270  0.00  0.00    -0.381 OA
ATOM     23  H   UNL     1     -38.155  27.467   2.885  0.00  0.00    +0.210 HD
ENDBRANCH  11  22
BRANCH  13  24
ATOM     24  O   UNL     1     -33.400  25.094   3.781  0.00  0.00    -0.379 OA
ATOM     25  H   UNL     1     -33.209  26.044   3.740  0.00  0.00    +0.211 HD
ENDBRANCH  13  24
TORSDOF 4
ENDMDL
MODEL 5
REMARK VINA RESULT:      -5.5      1.889      3.802
REMARK  Name = 5281481
REMARK  4 active torsions:
REMARK  status: ('A' for Active; 'I' for Inactive)
REMARK    1  A    between atoms: C_7  and  O_20
REMARK    2  A    between atoms: C_11  and  O_22
REMARK    3  A    between atoms: C_13  and  C_17
REMARK    4  A    between atoms: C_13  and  O_24
REMARK                            x       y       z     vdW  Elec       q    Type
REMARK                         _______ _______ _______ _____ _____    ______ ____
ROOT
ATOM      1  O   UNL     1     -32.485  26.355   1.230  0.00  0.00    -0.349 OA
ATOM      2  O   UNL     1     -34.883  28.590   1.463  0.00  0.00    -0.351 OA
ATOM      3  O   UNL     1     -35.697  26.441   4.948  0.00  0.00    -0.447 OA
ATOM      4  O   UNL     1     -33.456  26.425   5.479  0.00  0.00    -0.250 OA
ATOM      5  C   UNL     1     -35.241  26.159   2.039  0.00  0.00    +0.081 C 
ATOM      6  C   UNL     1     -34.468  27.485   2.284  0.00  0.00    +0.152 C 
ATOM      7  C   UNL     1     -34.178  25.060   2.581  0.00  0.00    +0.133 C 
ATOM      8  C   UNL     1     -32.982  27.178   2.298  0.00  0.00    +0.172 C 
ATOM      9  C   UNL     1     -32.799  25.699   2.459  0.00  0.00    +0.170 C 
ATOM     10  C   UNL     1     -34.431  24.670   4.072  0.00  0.00    +0.158 C 
ATOM     11  C   UNL     1     -36.623  25.984   2.739  0.00  0.00    +0.158 C 
ATOM     12  C   UNL     1     -35.027  28.770   2.871  0.00  0.00    +0.172 C 
ATOM     13  C   UNL     1     -35.858  24.203   4.364  0.00  0.00    +0.155 C 
ATOM     14  C   UNL     1     -36.561  25.550   4.215  0.00  0.00    +0.224 C 
ATOM     15  C   UNL     1     -35.479  26.005   0.507  0.00  0.00    +0.008 C 
ATOM     16  C   UNL     1     -34.422  25.924   4.930  0.00  0.00    +0.322 C 
ENDROOT
BRANCH  13  17
ATOM     17  C   UNL     1     -36.395  23.066   3.561  0.00  0.00    -0.016 C 
ATOM     18  C   UNL     1     -35.628  21.781   3.641  0.00  0.00    +0.029 C 
ATOM     19  C   UNL     1     -37.501  23.188   2.812  0.00  0.00    -0.007 C 
ENDBRANCH  13  17
BRANCH   7  20
ATOM     20  O   UNL     1     -34.147  23.887   1.778  0.00  0.00    -0.383 OA
ATOM     21  H   UNL     1     -34.088  23.105   2.348  0.00  0.00    +0.210 HD
ENDBRANCH   7  20
BRANCH  11  22
ATOM     22  O   UNL     1     -37.463  27.126   2.619  0.00  0.00    -0.381 OA
ATOM     23  H   UNL     1     -38.384  26.840   2.512  0.00  0.00    +0.210 HD
ENDBRANCH  11  22
BRANCH  13  24
ATOM     24  O   UNL     1     -35.927  23.782   5.735  0.00  0.00    -0.379 OA
ATOM     25  H   UNL     1     -35.705  22.840   5.794  0.00  0.00    +0.211 HD
ENDBRANCH  13  24
TORSDOF 4
ENDMDL
MODEL 6
REMARK VINA RESULT:      -5.3      1.635      3.967
REMARK  Name = 5281481
REMARK  4 active torsions:
REMARK  status: ('A' for Active; 'I' for Inactive)
REMARK    1  A    between atoms: C_7  and  O_20
REMARK    2  A    between atoms: C_11  and  O_22
REMARK    3  A    between atoms: C_13  and  C_17
REMARK    4  A    between atoms: C_13  and  O_24
REMARK                            x       y       z     vdW  Elec       q    Type
REMARK                         _______ _______ _______ _____ _____    ______ ____
ROOT
ATOM      1  O   UNL     1     -34.620  26.590   2.234  0.00  0.00    -0.349 OA
ATOM      2  O   UNL     1     -37.886  26.740   1.905  0.00  0.00    -0.351 OA
ATOM      3  O   UNL     1     -37.604  22.920   3.566  0.00  0.00    -0.447 OA
ATOM      4  O   UNL     1     -36.108  23.696   5.135  0.00  0.00    -0.250 OA
ATOM      5  C   UNL     1     -36.572  24.647   1.397  0.00  0.00    +0.081 C 
ATOM      6  C   UNL     1     -36.981  25.747   2.416  0.00  0.00    +0.152 C 
ATOM      7  C   UNL     1     -35.164  24.135   2.021  0.00  0.00    +0.133 C 
ATOM      8  C   UNL     1     -35.725  26.264   3.092  0.00  0.00    +0.172 C 
ATOM      9  C   UNL     1     -34.609  25.296   2.838  0.00  0.00    +0.170 C 
ATOM     10  C   UNL     1     -35.339  22.892   2.950  0.00  0.00    +0.158 C 
ATOM     11  C   UNL     1     -37.550  23.451   1.186  0.00  0.00    +0.158 C 
ATOM     12  C   UNL     1     -38.362  25.970   3.009  0.00  0.00    +0.172 C 
ATOM     13  C   UNL     1     -36.077  21.721   2.298  0.00  0.00    +0.155 C 
ATOM     14  C   UNL     1     -37.470  22.342   2.252  0.00  0.00    +0.224 C 
ATOM     15  C   UNL     1     -36.361  25.318   0.007  0.00  0.00    +0.008 C 
ATOM     16  C   UNL     1     -36.347  23.216   4.040  0.00  0.00    +0.322 C 
ENDROOT
BRANCH  13  17
ATOM     17  C   UNL     1     -35.532  21.183   1.018  0.00  0.00    -0.016 C 
ATOM     18  C   UNL     1     -34.169  20.562   1.089  0.00  0.00    +0.029 C 
ATOM     19  C   UNL     1     -36.222  21.251  -0.130  0.00  0.00    -0.007 C 
ENDBRANCH  13  17
BRANCH   7  20
ATOM     20  O   UNL     1     -34.194  23.852   1.020  0.00  0.00    -0.383 OA
ATOM     21  H   UNL     1     -33.337  23.676   1.441  0.00  0.00    +0.210 HD
ENDBRANCH   7  20
BRANCH  11  22
ATOM     22  O   UNL     1     -38.905  23.854   1.026  0.00  0.00    -0.381 OA
ATOM     23  H   UNL     1     -39.489  23.194   1.432  0.00  0.00    +0.210 HD
ENDBRANCH  11  22
BRANCH  13  24
ATOM     24  O   UNL     1     -36.080  20.618   3.217  0.00  0.00    -0.379 OA
ATOM     25  H   UNL     1     -36.877  20.659   3.768  0.00  0.00    +0.211 HD
ENDBRANCH  13  24
TORSDOF 4
ENDMDL
MODEL 7
REMARK VINA RESULT:      -5.2      1.430      4.528
REMARK  Name = 5281481
REMARK  4 active torsions:
REMARK  status: ('A' for Active; 'I' for Inactive)
REMARK    1  A    between atoms: C_7  and  O_20
REMARK    2  A    between atoms: C_11  and  O_22
REMARK    3  A    between atoms: C_13  and  C_17
REMARK    4  A    between atoms: C_13  and  O_24
REMARK                            x       y       z     vdW  Elec       q    Type
REMARK                         _______ _______ _______ _____ _____    ______ ____
ROOT
ATOM      1  O   UNL     1     -33.349  25.600   2.459  0.00  0.00    -0.349 OA
ATOM      2  O   UNL     1     -35.353  26.988   4.661  0.00  0.00    -0.351 OA
ATOM      3  O   UNL     1     -37.554  23.519   3.919  0.00  0.00    -0.447 OA
ATOM      4  O   UNL     1     -35.636  22.253   4.064  0.00  0.00    -0.250 OA
ATOM      5  C   UNL     1     -36.216  25.807   2.605  0.00  0.00    +0.081 C 
ATOM      6  C   UNL     1     -35.388  25.758   3.919  0.00  0.00    +0.152 C 
ATOM      7  C   UNL     1     -35.554  24.591   1.759  0.00  0.00    +0.133 C 
ATOM      8  C   UNL     1     -34.047  25.115   3.617  0.00  0.00    +0.172 C 
ATOM      9  C   UNL     1     -34.136  24.420   2.292  0.00  0.00    +0.170 C 
ATOM     10  C   UNL     1     -36.332  23.249   1.934  0.00  0.00    +0.158 C 
ATOM     11  C   UNL     1     -37.762  25.628   2.713  0.00  0.00    +0.158 C 
ATOM     12  C   UNL     1     -35.923  25.868   5.337  0.00  0.00    +0.172 C 
ATOM     13  C   UNL     1     -37.827  23.346   1.624  0.00  0.00    +0.155 C 
ATOM     14  C   UNL     1     -38.246  24.172   2.836  0.00  0.00    +0.224 C 
ATOM     15  C   UNL     1     -35.959  27.180   1.914  0.00  0.00    +0.008 C 
ATOM     16  C   UNL     1     -36.429  22.911   3.412  0.00  0.00    +0.322 C 
ENDROOT
BRANCH  13  17
ATOM     17  C   UNL     1     -38.226  23.862   0.282  0.00  0.00    -0.016 C 
ATOM     18  C   UNL     1     -37.761  23.062  -0.898  0.00  0.00    +0.029 C 
ATOM     19  C   UNL     1     -38.958  24.977   0.140  0.00  0.00    -0.007 C 
ENDBRANCH  13  17
BRANCH   7  20
ATOM     20  O   UNL     1     -35.426  24.894   0.376  0.00  0.00    -0.383 OA
ATOM     21  H   UNL     1     -35.581  24.091  -0.148  0.00  0.00    +0.210 HD
ENDBRANCH   7  20
BRANCH  11  22
ATOM     22  O   UNL     1     -38.347  26.410   3.746  0.00  0.00    -0.381 OA
ATOM     23  H   UNL     1     -38.542  25.843   4.509  0.00  0.00    +0.210 HD
ENDBRANCH  11  22
BRANCH  13  24
ATOM     24  O   UNL     1     -38.399  22.033   1.724  0.00  0.00    -0.379 OA
ATOM     25  H   UNL     1     -38.509  21.660   0.836  0.00  0.00    +0.211 HD
ENDBRANCH  13  24
TORSDOF 4
ENDMDL
MODEL 8
REMARK VINA RESULT:      -5.1      9.557     11.591
REMARK  Name = 5281481
REMARK  4 active torsions:
REMARK  status: ('A' for Active; 'I' for Inactive)
REMARK    1  A    between atoms: C_7  and  O_20
REMARK    2  A    between atoms: C_11  and  O_22
REMARK    3  A    between atoms: C_13  and  C_17
REMARK    4  A    between atoms: C_13  and  O_24
REMARK                            x       y       z     vdW  Elec       q    Type
REMARK                         _______ _______ _______ _____ _____    ______ ____
ROOT
ATOM      1  O   UNL     1     -46.485  28.419   3.100  0.00  0.00    -0.349 OA
ATOM      2  O   UNL     1     -46.012  31.615   2.501  0.00  0.00    -0.351 OA
ATOM      3  O   UNL     1     -43.447  31.210   5.770  0.00  0.00    -0.447 OA
ATOM      4  O   UNL     1     -42.597  29.264   4.880  0.00  0.00    -0.250 OA
ATOM      5  C   UNL     1     -46.209  30.694   4.842  0.00  0.00    +0.081 C 
ATOM      6  C   UNL     1     -45.482  30.694   3.468  0.00  0.00    +0.152 C 
ATOM      7  C   UNL     1     -45.838  29.218   5.405  0.00  0.00    +0.133 C 
ATOM      8  C   UNL     1     -45.321  29.256   3.011  0.00  0.00    +0.172 C 
ATOM      9  C   UNL     1     -45.557  28.351   4.183  0.00  0.00    +0.170 C 
ATOM     10  C   UNL     1     -44.577  29.229   6.326  0.00  0.00    +0.158 C 
ATOM     11  C   UNL     1     -45.813  31.795   5.874  0.00  0.00    +0.158 C 
ATOM     12  C   UNL     1     -44.651  31.821   2.878  0.00  0.00    +0.172 C 
ATOM     13  C   UNL     1     -44.657  30.225   7.485  0.00  0.00    +0.155 C 
ATOM     14  C   UNL     1     -44.529  31.511   6.674  0.00  0.00    +0.224 C 
ATOM     15  C   UNL     1     -47.740  30.832   4.587  0.00  0.00    +0.008 C 
ATOM     16  C   UNL     1     -43.410  29.849   5.575  0.00  0.00    +0.322 C 
ENDROOT
BRANCH  13  17
ATOM     17  C   UNL     1     -45.821  30.120   8.411  0.00  0.00    -0.016 C 
ATOM     18  C   UNL     1     -46.078  28.765   9.000  0.00  0.00    +0.029 C 
ATOM     19  C   UNL     1     -46.594  31.177   8.700  0.00  0.00    -0.007 C 
ENDBRANCH  13  17
BRANCH   7  20
ATOM     20  O   UNL     1     -46.924  28.605   6.087  0.00  0.00    -0.383 OA
ATOM     21  H   UNL     1     -47.200  27.808   5.607  0.00  0.00    +0.210 HD
ENDBRANCH   7  20
BRANCH  11  22
ATOM     22  O   UNL     1     -45.737  33.096   5.306  0.00  0.00    -0.381 OA
ATOM     23  H   UNL     1     -45.246  33.682   5.904  0.00  0.00    +0.210 HD
ENDBRANCH  11  22
BRANCH  13  24
ATOM     24  O   UNL     1     -43.489  30.062   8.304  0.00  0.00    -0.379 OA
ATOM     25  H   UNL     1     -43.753  30.009   9.236  0.00  0.00    +0.211 HD
ENDBRANCH  13  24
TORSDOF 4
ENDMDL
MODEL 9
REMARK VINA RESULT:      -5.1      1.644      2.142
REMARK  Name = 5281481
REMARK  4 active torsions:
REMARK  status: ('A' for Active; 'I' for Inactive)
REMARK    1  A    between atoms: C_7  and  O_20
REMARK    2  A    between atoms: C_11  and  O_22
REMARK    3  A    between atoms: C_13  and  C_17
REMARK    4  A    between atoms: C_13  and  O_24
REMARK                            x       y       z     vdW  Elec       q    Type
REMARK                         _______ _______ _______ _____ _____    ______ ____
ROOT
ATOM      1  O   UNL     1     -36.024  23.422  -1.266  0.00  0.00    -0.349 OA
ATOM      2  O   UNL     1     -36.382  20.467   0.124  0.00  0.00    -0.351 OA
ATOM      3  O   UNL     1     -38.106  22.783   3.139  0.00  0.00    -0.447 OA
ATOM      4  O   UNL     1     -39.292  23.975   1.566  0.00  0.00    -0.250 OA
ATOM      5  C   UNL     1     -35.697  22.506   1.443  0.00  0.00    +0.081 C 
ATOM      6  C   UNL     1     -36.732  21.803   0.521  0.00  0.00    +0.152 C 
ATOM      7  C   UNL     1     -36.033  24.070   1.173  0.00  0.00    +0.133 C 
ATOM      8  C   UNL     1     -37.108  22.760  -0.594  0.00  0.00    +0.172 C 
ATOM      9  C   UNL     1     -36.666  24.141  -0.211  0.00  0.00    +0.170 C 
ATOM     10  C   UNL     1     -37.030  24.657   2.222  0.00  0.00    +0.158 C 
ATOM     11  C   UNL     1     -35.748  22.185   2.969  0.00  0.00    +0.158 C 
ATOM     12  C   UNL     1     -37.592  20.599   0.869  0.00  0.00    +0.172 C 
ATOM     13  C   UNL     1     -36.598  24.460   3.677  0.00  0.00    +0.155 C 
ATOM     14  C   UNL     1     -36.818  22.953   3.766  0.00  0.00    +0.224 C 
ATOM     15  C   UNL     1     -34.267  22.142   0.944  0.00  0.00    +0.008 C 
ATOM     16  C   UNL     1     -38.293  23.812   2.245  0.00  0.00    +0.322 C 
ENDROOT
BRANCH  13  17
ATOM     17  C   UNL     1     -35.255  24.973   4.077  0.00  0.00    -0.016 C 
ATOM     18  C   UNL     1     -35.026  26.443   3.888  0.00  0.00    +0.029 C 
ATOM     19  C   UNL     1     -34.309  24.166   4.578  0.00  0.00    -0.007 C 
ENDBRANCH  13  17
BRANCH   7  20
ATOM     20  O   UNL     1     -34.864  24.878   1.119  0.00  0.00    -0.383 OA
ATOM     21  H   UNL     1     -34.569  24.960   0.198  0.00  0.00    +0.210 HD
ENDBRANCH   7  20
BRANCH  11  22
ATOM     22  O   UNL     1     -35.859  20.795   3.248  0.00  0.00    -0.381 OA
ATOM     23  H   UNL     1     -35.781  20.292   2.422  0.00  0.00    +0.210 HD
ENDBRANCH  11  22
BRANCH  13  24
ATOM     24  O   UNL     1     -37.542  25.129   4.526  0.00  0.00    -0.379 OA
ATOM     25  H   UNL     1     -37.066  25.662   5.181  0.00  0.00    +0.211 HD
ENDBRANCH  13  24
TORSDOF 4
ENDMDL
