MODEL 1
REMARK VINA RESULT:      -5.6      0.000      0.000
REMARK  Name = 5317465
REMARK  10 active torsions:
REMARK  status: ('A' for Active; 'I' for Inactive)
REMARK    1  A    between atoms: C_1  and  C_14
REMARK    2  A    between atoms: C_4  and  O_7
REMARK    3  A    between atoms: C_5  and  O_9
REMARK    4  A    between atoms: C_6  and  O_11
REMARK    5  A    between atoms: C_14  and  O_15
REMARK    6  A    between atoms: O_15  and  C_16
REMARK    7  A    between atoms: C_16  and  C_17
REMARK    8  A    between atoms: C_17  and  O_18
REMARK    9  A    between atoms: C_17  and  C_20
REMARK   10  A    between atoms: C_20  and  O_21
REMARK                            x       y       z     vdW  Elec       q    Type
REMARK                         _______ _______ _______ _____ _____    ______ ____
ROOT
ATOM      1  C   UNL     1     -34.956  24.243   4.763  0.00  0.00    +0.082 C 
ATOM      2  C   UNL     1     -35.074  23.188   5.646  0.00  0.00    +0.046 C 
ATOM      3  C   UNL     1     -35.096  24.079   3.400  0.00  0.00    +0.046 C 
ATOM      4  C   UNL     1     -35.365  22.805   2.898  0.00  0.00    +0.171 C 
ATOM      5  C   UNL     1     -35.342  21.915   5.144  0.00  0.00    +0.171 C 
ATOM      6  C   UNL     1     -35.488  21.723   3.770  0.00  0.00    +0.202 C 
ENDROOT
BRANCH   4   7
ATOM      7  O   UNL     1     -35.505  22.631   1.554  0.00  0.00    -0.503 OA
ATOM      8  H   UNL     1     -35.398  23.359   0.974  0.00  0.00    +0.292 HD
ENDBRANCH   4   7
BRANCH   5   9
ATOM      9  O   UNL     1     -35.460  20.867   6.006  0.00  0.00    -0.503 OA
ATOM     10  H   UNL     1     -35.119  20.026   5.770  0.00  0.00    +0.292 HD
ENDBRANCH   5   9
BRANCH   6  11
ATOM     11  O   UNL     1     -35.752  20.479   3.280  0.00  0.00    -0.501 OA
ATOM     12  H   UNL     1     -36.595  20.091   3.417  0.00  0.00    +0.292 HD
ENDBRANCH   6  11
BRANCH   1  14
ATOM     13  O   UNL     1     -35.493  26.267   5.902  0.00  0.00    -0.245 OA
ATOM     14  C   UNL     1     -34.671  25.598   5.297  0.00  0.00    +0.341 C 
BRANCH  14  15
ATOM     15  O   UNL     1     -33.390  25.964   5.018  0.00  0.00    -0.443 OA
BRANCH  15  16
ATOM     16  C   UNL     1     -33.234  27.156   4.253  0.00  0.00    +0.240 C 
BRANCH  16  17
ATOM     17  C   UNL     1     -32.222  28.075   4.928  0.00  0.00    +0.184 C 
BRANCH  17  18
ATOM     18  O   UNL     1     -30.912  27.721   4.481  0.00  0.00    -0.378 OA
ATOM     19  H   UNL     1     -30.980  27.153   3.696  0.00  0.00    +0.211 HD
ENDBRANCH  17  18
BRANCH  17  20
ATOM     20  C   UNL     1     -32.258  27.926   6.443  0.00  0.00    +0.170 C 
BRANCH  20  21
ATOM     21  O   UNL     1     -31.127  27.168   6.859  0.00  0.00    -0.379 OA
ATOM     22  H   UNL     1     -30.952  26.465   6.212  0.00  0.00    +0.211 HD
ENDBRANCH  20  21
ENDBRANCH  17  20
ENDBRANCH  16  17
ENDBRANCH  15  16
ENDBRANCH  14  15
ENDBRANCH   1  14
TORSDOF 10
ENDMDL
MODEL 2
REMARK VINA RESULT:      -5.6      1.113      2.494
REMARK  Name = 5317465
REMARK  10 active torsions:
REMARK  status: ('A' for Active; 'I' for Inactive)
REMARK    1  A    between atoms: C_1  and  C_14
REMARK    2  A    between atoms: C_4  and  O_7
REMARK    3  A    between atoms: C_5  and  O_9
REMARK    4  A    between atoms: C_6  and  O_11
REMARK    5  A    between atoms: C_14  and  O_15
REMARK    6  A    between atoms: O_15  and  C_16
REMARK    7  A    between atoms: C_16  and  C_17
REMARK    8  A    between atoms: C_17  and  O_18
REMARK    9  A    between atoms: C_17  and  C_20
REMARK   10  A    between atoms: C_20  and  O_21
REMARK                            x       y       z     vdW  Elec       q    Type
REMARK                         _______ _______ _______ _____ _____    ______ ____
ROOT
ATOM      1  C   UNL     1     -34.821  24.730   4.584  0.00  0.00    +0.082 C 
ATOM      2  C   UNL     1     -34.745  24.266   3.286  0.00  0.00    +0.046 C 
ATOM      3  C   UNL     1     -35.248  23.932   5.626  0.00  0.00    +0.046 C 
ATOM      4  C   UNL     1     -35.615  22.613   5.358  0.00  0.00    +0.171 C 
ATOM      5  C   UNL     1     -35.113  22.948   3.018  0.00  0.00    +0.171 C 
ATOM      6  C   UNL     1     -35.548  22.121   4.054  0.00  0.00    +0.202 C 
ENDROOT
BRANCH   4   7
ATOM      7  O   UNL     1     -36.037  21.816   6.379  0.00  0.00    -0.503 OA
ATOM      8  H   UNL     1     -35.982  20.884   6.300  0.00  0.00    +0.292 HD
ENDBRANCH   4   7
BRANCH   5   9
ATOM      9  O   UNL     1     -35.043  22.479   1.741  0.00  0.00    -0.503 OA
ATOM     10  H   UNL     1     -35.563  21.743   1.484  0.00  0.00    +0.292 HD
ENDBRANCH   5   9
BRANCH   6  11
ATOM     11  O   UNL     1     -35.905  20.832   3.793  0.00  0.00    -0.501 OA
ATOM     12  H   UNL     1     -35.721  20.158   4.418  0.00  0.00    +0.292 HD
ENDBRANCH   6  11
BRANCH   1  14
ATOM     13  O   UNL     1     -35.160  27.088   4.660  0.00  0.00    -0.245 OA
ATOM     14  C   UNL     1     -34.429  26.133   4.869  0.00  0.00    +0.341 C 
BRANCH  14  15
ATOM     15  O   UNL     1     -33.171  26.186   5.384  0.00  0.00    -0.443 OA
BRANCH  15  16
ATOM     16  C   UNL     1     -33.007  26.986   6.551  0.00  0.00    +0.240 C 
BRANCH  16  17
ATOM     17  C   UNL     1     -31.782  27.881   6.397  0.00  0.00    +0.184 C 
BRANCH  17  18
ATOM     18  O   UNL     1     -31.847  28.920   7.376  0.00  0.00    -0.378 OA
ATOM     19  H   UNL     1     -31.895  28.527   8.262  0.00  0.00    +0.211 HD
ENDBRANCH  17  18
BRANCH  17  20
ATOM     20  C   UNL     1     -31.739  28.533   5.022  0.00  0.00    +0.170 C 
BRANCH  20  21
ATOM     21  O   UNL     1     -32.975  29.200   4.787  0.00  0.00    -0.379 OA
ATOM     22  H   UNL     1     -33.390  29.419   5.637  0.00  0.00    +0.211 HD
ENDBRANCH  20  21
ENDBRANCH  17  20
ENDBRANCH  16  17
ENDBRANCH  15  16
ENDBRANCH  14  15
ENDBRANCH   1  14
TORSDOF 10
ENDMDL
MODEL 3
REMARK VINA RESULT:      -5.6      1.113      1.534
REMARK  Name = 5317465
REMARK  10 active torsions:
REMARK  status: ('A' for Active; 'I' for Inactive)
REMARK    1  A    between atoms: C_1  and  C_14
REMARK    2  A    between atoms: C_4  and  O_7
REMARK    3  A    between atoms: C_5  and  O_9
REMARK    4  A    between atoms: C_6  and  O_11
REMARK    5  A    between atoms: C_14  and  O_15
REMARK    6  A    between atoms: O_15  and  C_16
REMARK    7  A    between atoms: C_16  and  C_17
REMARK    8  A    between atoms: C_17  and  O_18
REMARK    9  A    between atoms: C_17  and  C_20
REMARK   10  A    between atoms: C_20  and  O_21
REMARK                            x       y       z     vdW  Elec       q    Type
REMARK                         _______ _______ _______ _____ _____    ______ ____
ROOT
ATOM      1  C   UNL     1     -34.815  24.708   4.510  0.00  0.00    +0.082 C 
ATOM      2  C   UNL     1     -35.237  23.918   5.560  0.00  0.00    +0.046 C 
ATOM      3  C   UNL     1     -34.746  24.233   3.216  0.00  0.00    +0.046 C 
ATOM      4  C   UNL     1     -35.115  22.912   2.960  0.00  0.00    +0.171 C 
ATOM      5  C   UNL     1     -35.605  22.597   5.306  0.00  0.00    +0.171 C 
ATOM      6  C   UNL     1     -35.543  22.094   4.005  0.00  0.00    +0.202 C 
ENDROOT
BRANCH   4   7
ATOM      7  O   UNL     1     -35.050  22.434   1.687  0.00  0.00    -0.503 OA
ATOM      8  H   UNL     1     -35.373  21.576   1.492  0.00  0.00    +0.292 HD
ENDBRANCH   4   7
BRANCH   5   9
ATOM      9  O   UNL     1     -36.022  21.807   6.334  0.00  0.00    -0.503 OA
ATOM     10  H   UNL     1     -36.910  21.511   6.367  0.00  0.00    +0.292 HD
ENDBRANCH   5   9
BRANCH   6  11
ATOM     11  O   UNL     1     -35.905  20.803   3.757  0.00  0.00    -0.501 OA
ATOM     12  H   UNL     1     -35.417  20.289   3.144  0.00  0.00    +0.292 HD
ENDBRANCH   6  11
BRANCH   1  14
ATOM     13  O   UNL     1     -35.139  27.069   4.527  0.00  0.00    -0.245 OA
ATOM     14  C   UNL     1     -34.423  26.113   4.781  0.00  0.00    +0.341 C 
BRANCH  14  15
ATOM     15  O   UNL     1     -33.184  26.167   5.340  0.00  0.00    -0.443 OA
BRANCH  15  16
ATOM     16  C   UNL     1     -33.055  26.990   6.496  0.00  0.00    +0.240 C 
BRANCH  16  17
ATOM     17  C   UNL     1     -31.814  27.866   6.372  0.00  0.00    +0.184 C 
BRANCH  17  18
ATOM     18  O   UNL     1     -31.855  28.866   7.393  0.00  0.00    -0.378 OA
ATOM     19  H   UNL     1     -30.962  29.218   7.537  0.00  0.00    +0.211 HD
ENDBRANCH  17  18
BRANCH  17  20
ATOM     20  C   UNL     1     -31.764  28.573   5.024  0.00  0.00    +0.170 C 
BRANCH  20  21
ATOM     21  O   UNL     1     -33.032  29.169   4.767  0.00  0.00    -0.379 OA
ATOM     22  H   UNL     1     -32.907  30.095   4.507  0.00  0.00    +0.211 HD
ENDBRANCH  20  21
ENDBRANCH  17  20
ENDBRANCH  16  17
ENDBRANCH  15  16
ENDBRANCH  14  15
ENDBRANCH   1  14
TORSDOF 10
ENDMDL
MODEL 4
REMARK VINA RESULT:      -5.5      1.059      2.635
REMARK  Name = 5317465
REMARK  10 active torsions:
REMARK  status: ('A' for Active; 'I' for Inactive)
REMARK    1  A    between atoms: C_1  and  C_14
REMARK    2  A    between atoms: C_4  and  O_7
REMARK    3  A    between atoms: C_5  and  O_9
REMARK    4  A    between atoms: C_6  and  O_11
REMARK    5  A    between atoms: C_14  and  O_15
REMARK    6  A    between atoms: O_15  and  C_16
REMARK    7  A    between atoms: C_16  and  C_17
REMARK    8  A    between atoms: C_17  and  O_18
REMARK    9  A    between atoms: C_17  and  C_20
REMARK   10  A    between atoms: C_20  and  O_21
REMARK                            x       y       z     vdW  Elec       q    Type
REMARK                         _______ _______ _______ _____ _____    ______ ____
ROOT
ATOM      1  C   UNL     1     -35.213  24.191   4.887  0.00  0.00    +0.082 C 
ATOM      2  C   UNL     1     -35.432  24.085   3.528  0.00  0.00    +0.046 C 
ATOM      3  C   UNL     1     -35.179  23.086   5.713  0.00  0.00    +0.046 C 
ATOM      4  C   UNL     1     -35.372  21.821   5.157  0.00  0.00    +0.171 C 
ATOM      5  C   UNL     1     -35.626  22.821   2.972  0.00  0.00    +0.171 C 
ATOM      6  C   UNL     1     -35.596  21.688   3.787  0.00  0.00    +0.202 C 
ENDROOT
BRANCH   4   7
ATOM      7  O   UNL     1     -35.341  20.724   5.963  0.00  0.00    -0.503 OA
ATOM      8  H   UNL     1     -36.093  20.169   6.030  0.00  0.00    +0.292 HD
ENDBRANCH   4   7
BRANCH   5   9
ATOM      9  O   UNL     1     -35.844  22.705   1.632  0.00  0.00    -0.503 OA
ATOM     10  H   UNL     1     -36.684  22.435   1.316  0.00  0.00    +0.292 HD
ENDBRANCH   5   9
BRANCH   6  11
ATOM     11  O   UNL     1     -35.783  20.453   3.242  0.00  0.00    -0.501 OA
ATOM     12  H   UNL     1     -35.571  19.686   3.737  0.00  0.00    +0.292 HD
ENDBRANCH   6  11
BRANCH   1  14
ATOM     13  O   UNL     1     -35.921  26.307   5.725  0.00  0.00    -0.245 OA
ATOM     14  C   UNL     1     -35.007  25.536   5.479  0.00  0.00    +0.341 C 
BRANCH  14  15
ATOM     15  O   UNL     1     -33.684  25.767   5.697  0.00  0.00    -0.443 OA
BRANCH  15  16
ATOM     16  C   UNL     1     -33.193  27.035   5.273  0.00  0.00    +0.240 C 
BRANCH  16  17
ATOM     17  C   UNL     1     -33.103  27.072   3.751  0.00  0.00    +0.184 C 
BRANCH  17  18
ATOM     18  O   UNL     1     -31.725  27.085   3.373  0.00  0.00    -0.378 OA
ATOM     19  H   UNL     1     -31.187  27.386   4.123  0.00  0.00    +0.211 HD
ENDBRANCH  17  18
BRANCH  17  20
ATOM     20  C   UNL     1     -33.758  28.324   3.185  0.00  0.00    +0.170 C 
BRANCH  20  21
ATOM     21  O   UNL     1     -35.130  28.340   3.565  0.00  0.00    -0.379 OA
ATOM     22  H   UNL     1     -35.456  27.429   3.637  0.00  0.00    +0.211 HD
ENDBRANCH  20  21
ENDBRANCH  17  20
ENDBRANCH  16  17
ENDBRANCH  15  16
ENDBRANCH  14  15
ENDBRANCH   1  14
TORSDOF 10
ENDMDL
MODEL 5
REMARK VINA RESULT:      -5.4      1.910      2.991
REMARK  Name = 5317465
REMARK  10 active torsions:
REMARK  status: ('A' for Active; 'I' for Inactive)
REMARK    1  A    between atoms: C_1  and  C_14
REMARK    2  A    between atoms: C_4  and  O_7
REMARK    3  A    between atoms: C_5  and  O_9
REMARK    4  A    between atoms: C_6  and  O_11
REMARK    5  A    between atoms: C_14  and  O_15
REMARK    6  A    between atoms: O_15  and  C_16
REMARK    7  A    between atoms: C_16  and  C_17
REMARK    8  A    between atoms: C_17  and  O_18
REMARK    9  A    between atoms: C_17  and  C_20
REMARK   10  A    between atoms: C_20  and  O_21
REMARK                            x       y       z     vdW  Elec       q    Type
REMARK                         _______ _______ _______ _____ _____    ______ ____
ROOT
ATOM      1  C   UNL     1     -34.645  25.868   5.116  0.00  0.00    +0.082 C 
ATOM      2  C   UNL     1     -35.497  26.525   4.252  0.00  0.00    +0.046 C 
ATOM      3  C   UNL     1     -34.852  24.557   5.496  0.00  0.00    +0.046 C 
ATOM      4  C   UNL     1     -35.958  23.874   4.988  0.00  0.00    +0.171 C 
ATOM      5  C   UNL     1     -36.603  25.843   3.745  0.00  0.00    +0.171 C 
ATOM      6  C   UNL     1     -36.834  24.518   4.114  0.00  0.00    +0.202 C 
ENDROOT
BRANCH   4   7
ATOM      7  O   UNL     1     -36.171  22.580   5.356  0.00  0.00    -0.503 OA
ATOM      8  H   UNL     1     -37.044  22.272   5.500  0.00  0.00    +0.292 HD
ENDBRANCH   4   7
BRANCH   5   9
ATOM      9  O   UNL     1     -37.451  26.482   2.892  0.00  0.00    -0.503 OA
ATOM     10  H   UNL     1     -37.272  26.489   1.972  0.00  0.00    +0.292 HD
ENDBRANCH   5   9
BRANCH   6  11
ATOM     11  O   UNL     1     -37.913  23.850   3.616  0.00  0.00    -0.501 OA
ATOM     12  H   UNL     1     -38.031  23.774   2.690  0.00  0.00    +0.292 HD
ENDBRANCH   6  11
BRANCH   1  14
ATOM     13  O   UNL     1     -33.306  26.819   6.844  0.00  0.00    -0.245 OA
ATOM     14  C   UNL     1     -33.468  26.594   5.655  0.00  0.00    +0.341 C 
BRANCH  14  15
ATOM     15  O   UNL     1     -32.625  26.956   4.650  0.00  0.00    -0.443 OA
BRANCH  15  16
ATOM     16  C   UNL     1     -32.355  28.349   4.534  0.00  0.00    +0.240 C 
BRANCH  16  17
ATOM     17  C   UNL     1     -30.854  28.595   4.630  0.00  0.00    +0.184 C 
BRANCH  17  18
ATOM     18  O   UNL     1     -30.168  27.468   4.080  0.00  0.00    -0.378 OA
ATOM     19  H   UNL     1     -30.808  26.878   3.650  0.00  0.00    +0.211 HD
ENDBRANCH  17  18
BRANCH  17  20
ATOM     20  C   UNL     1     -30.408  28.757   6.076  0.00  0.00    +0.170 C 
BRANCH  20  21
ATOM     21  O   UNL     1     -30.352  27.473   6.689  0.00  0.00    -0.379 OA
ATOM     22  H   UNL     1     -31.227  27.247   7.045  0.00  0.00    +0.211 HD
ENDBRANCH  20  21
ENDBRANCH  17  20
ENDBRANCH  16  17
ENDBRANCH  15  16
ENDBRANCH  14  15
ENDBRANCH   1  14
TORSDOF 10
ENDMDL
MODEL 6
REMARK VINA RESULT:      -5.4      2.383      3.883
REMARK  Name = 5317465
REMARK  10 active torsions:
REMARK  status: ('A' for Active; 'I' for Inactive)
REMARK    1  A    between atoms: C_1  and  C_14
REMARK    2  A    between atoms: C_4  and  O_7
REMARK    3  A    between atoms: C_5  and  O_9
REMARK    4  A    between atoms: C_6  and  O_11
REMARK    5  A    between atoms: C_14  and  O_15
REMARK    6  A    between atoms: O_15  and  C_16
REMARK    7  A    between atoms: C_16  and  C_17
REMARK    8  A    between atoms: C_17  and  O_18
REMARK    9  A    between atoms: C_17  and  C_20
REMARK   10  A    between atoms: C_20  and  O_21
REMARK                            x       y       z     vdW  Elec       q    Type
REMARK                         _______ _______ _______ _____ _____    ______ ____
ROOT
ATOM      1  C   UNL     1     -36.890  22.448   2.898  0.00  0.00    +0.082 C 
ATOM      2  C   UNL     1     -37.993  22.064   2.163  0.00  0.00    +0.046 C 
ATOM      3  C   UNL     1     -35.758  21.663   2.988  0.00  0.00    +0.046 C 
ATOM      4  C   UNL     1     -35.729  20.442   2.313  0.00  0.00    +0.171 C 
ATOM      5  C   UNL     1     -37.965  20.844   1.489  0.00  0.00    +0.171 C 
ATOM      6  C   UNL     1     -36.833  20.032   1.564  0.00  0.00    +0.202 C 
ENDROOT
BRANCH   4   7
ATOM      7  O   UNL     1     -34.618  19.659   2.394  0.00  0.00    -0.503 OA
ATOM      8  H   UNL     1     -34.574  18.856   1.914  0.00  0.00    +0.292 HD
ENDBRANCH   4   7
BRANCH   5   9
ATOM      9  O   UNL     1     -39.049  20.455   0.762  0.00  0.00    -0.503 OA
ATOM     10  H   UNL     1     -39.045  20.549  -0.171  0.00  0.00    +0.292 HD
ENDBRANCH   5   9
BRANCH   6  11
ATOM     11  O   UNL     1     -36.804  18.840   0.903  0.00  0.00    -0.501 OA
ATOM     12  H   UNL     1     -37.431  18.663   0.229  0.00  0.00    +0.292 HD
ENDBRANCH   6  11
BRANCH   1  14
ATOM     13  O   UNL     1     -37.939  24.400   3.776  0.00  0.00    -0.245 OA
ATOM     14  C   UNL     1     -36.921  23.747   3.615  0.00  0.00    +0.341 C 
BRANCH  14  15
ATOM     15  O   UNL     1     -35.677  24.083   4.053  0.00  0.00    -0.443 OA
BRANCH  15  16
ATOM     16  C   UNL     1     -35.572  24.429   5.431  0.00  0.00    +0.240 C 
BRANCH  16  17
ATOM     17  C   UNL     1     -35.293  25.922   5.569  0.00  0.00    +0.184 C 
BRANCH  17  18
ATOM     18  O   UNL     1     -36.512  26.638   5.359  0.00  0.00    -0.378 OA
ATOM     19  H   UNL     1     -36.310  27.555   5.114  0.00  0.00    +0.211 HD
ENDBRANCH  17  18
BRANCH  17  20
ATOM     20  C   UNL     1     -34.284  26.398   4.534  0.00  0.00    +0.170 C 
BRANCH  20  21
ATOM     21  O   UNL     1     -33.217  25.458   4.463  0.00  0.00    -0.379 OA
ATOM     22  H   UNL     1     -33.102  25.167   3.544  0.00  0.00    +0.211 HD
ENDBRANCH  20  21
ENDBRANCH  17  20
ENDBRANCH  16  17
ENDBRANCH  15  16
ENDBRANCH  14  15
ENDBRANCH   1  14
TORSDOF 10
ENDMDL
MODEL 7
REMARK VINA RESULT:      -5.3      1.854      2.368
REMARK  Name = 5317465
REMARK  10 active torsions:
REMARK  status: ('A' for Active; 'I' for Inactive)
REMARK    1  A    between atoms: C_1  and  C_14
REMARK    2  A    between atoms: C_4  and  O_7
REMARK    3  A    between atoms: C_5  and  O_9
REMARK    4  A    between atoms: C_6  and  O_11
REMARK    5  A    between atoms: C_14  and  O_15
REMARK    6  A    between atoms: O_15  and  C_16
REMARK    7  A    between atoms: C_16  and  C_17
REMARK    8  A    between atoms: C_17  and  O_18
REMARK    9  A    between atoms: C_17  and  C_20
REMARK   10  A    between atoms: C_20  and  O_21
REMARK                            x       y       z     vdW  Elec       q    Type
REMARK                         _______ _______ _______ _____ _____    ______ ____
ROOT
ATOM      1  C   UNL     1     -34.691  25.817   5.107  0.00  0.00    +0.082 C 
ATOM      2  C   UNL     1     -34.858  24.487   5.436  0.00  0.00    +0.046 C 
ATOM      3  C   UNL     1     -35.576  26.487   4.287  0.00  0.00    +0.046 C 
ATOM      4  C   UNL     1     -36.675  25.798   3.774  0.00  0.00    +0.171 C 
ATOM      5  C   UNL     1     -35.956  23.797   4.922  0.00  0.00    +0.171 C 
ATOM      6  C   UNL     1     -36.865  24.453   4.091  0.00  0.00    +0.202 C 
ENDROOT
BRANCH   4   7
ATOM      7  O   UNL     1     -37.554  26.450   2.964  0.00  0.00    -0.503 OA
ATOM      8  H   UNL     1     -37.991  25.986   2.277  0.00  0.00    +0.292 HD
ENDBRANCH   4   7
BRANCH   5   9
ATOM      9  O   UNL     1     -36.131  22.484   5.239  0.00  0.00    -0.503 OA
ATOM     10  H   UNL     1     -35.784  22.146   6.041  0.00  0.00    +0.292 HD
ENDBRANCH   5   9
BRANCH   6  11
ATOM     11  O   UNL     1     -37.939  23.779   3.591  0.00  0.00    -0.501 OA
ATOM     12  H   UNL     1     -37.842  22.896   3.293  0.00  0.00    +0.292 HD
ENDBRANCH   6  11
BRANCH   1  14
ATOM     13  O   UNL     1     -33.378  26.791   6.842  0.00  0.00    -0.245 OA
ATOM     14  C   UNL     1     -33.523  26.550   5.654  0.00  0.00    +0.341 C 
BRANCH  14  15
ATOM     15  O   UNL     1     -32.665  26.899   4.656  0.00  0.00    -0.443 OA
BRANCH  15  16
ATOM     16  C   UNL     1     -32.424  28.294   4.500  0.00  0.00    +0.240 C 
BRANCH  16  17
ATOM     17  C   UNL     1     -30.927  28.572   4.578  0.00  0.00    +0.184 C 
BRANCH  17  18
ATOM     18  O   UNL     1     -30.223  27.455   4.031  0.00  0.00    -0.378 OA
ATOM     19  H   UNL     1     -30.289  27.474   3.063  0.00  0.00    +0.211 HD
ENDBRANCH  17  18
BRANCH  17  20
ATOM     20  C   UNL     1     -30.470  28.757   6.018  0.00  0.00    +0.170 C 
BRANCH  20  21
ATOM     21  O   UNL     1     -30.436  27.486   6.659  0.00  0.00    -0.379 OA
ATOM     22  H   UNL     1     -29.514  27.208   6.779  0.00  0.00    +0.211 HD
ENDBRANCH  20  21
ENDBRANCH  17  20
ENDBRANCH  16  17
ENDBRANCH  15  16
ENDBRANCH  14  15
ENDBRANCH   1  14
TORSDOF 10
ENDMDL
MODEL 8
REMARK VINA RESULT:      -5.2      1.943      6.076
REMARK  Name = 5317465
REMARK  10 active torsions:
REMARK  status: ('A' for Active; 'I' for Inactive)
REMARK    1  A    between atoms: C_1  and  C_14
REMARK    2  A    between atoms: C_4  and  O_7
REMARK    3  A    between atoms: C_5  and  O_9
REMARK    4  A    between atoms: C_6  and  O_11
REMARK    5  A    between atoms: C_14  and  O_15
REMARK    6  A    between atoms: O_15  and  C_16
REMARK    7  A    between atoms: C_16  and  C_17
REMARK    8  A    between atoms: C_17  and  O_18
REMARK    9  A    between atoms: C_17  and  C_20
REMARK   10  A    between atoms: C_20  and  O_21
REMARK                            x       y       z     vdW  Elec       q    Type
REMARK                         _______ _______ _______ _____ _____    ______ ____
ROOT
ATOM      1  C   UNL     1     -35.509  23.763   4.954  0.00  0.00    +0.082 C 
ATOM      2  C   UNL     1     -36.658  24.409   4.546  0.00  0.00    +0.046 C 
ATOM      3  C   UNL     1     -34.288  24.403   5.012  0.00  0.00    +0.046 C 
ATOM      4  C   UNL     1     -34.213  25.748   4.646  0.00  0.00    +0.171 C 
ATOM      5  C   UNL     1     -36.584  25.752   4.179  0.00  0.00    +0.171 C 
ATOM      6  C   UNL     1     -35.360  26.422   4.228  0.00  0.00    +0.202 C 
ENDROOT
BRANCH   4   7
ATOM      7  O   UNL     1     -33.013  26.389   4.698  0.00  0.00    -0.503 OA
ATOM      8  H   UNL     1     -32.349  26.196   4.067  0.00  0.00    +0.292 HD
ENDBRANCH   4   7
BRANCH   5   9
ATOM      9  O   UNL     1     -37.711  26.400   3.773  0.00  0.00    -0.503 OA
ATOM     10  H   UNL     1     -38.511  25.923   3.664  0.00  0.00    +0.292 HD
ENDBRANCH   5   9
BRANCH   6  11
ATOM     11  O   UNL     1     -35.288  27.735   3.872  0.00  0.00    -0.501 OA
ATOM     12  H   UNL     1     -35.598  28.398   4.458  0.00  0.00    +0.292 HD
ENDBRANCH   6  11
BRANCH   1  14
ATOM     13  O   UNL     1     -35.941  21.960   6.452  0.00  0.00    -0.245 OA
ATOM     14  C   UNL     1     -35.589  22.334   5.345  0.00  0.00    +0.341 C 
BRANCH  14  15
ATOM     15  O   UNL     1     -35.221  21.531   4.309  0.00  0.00    -0.443 OA
BRANCH  15  16
ATOM     16  C   UNL     1     -35.700  21.913   3.023  0.00  0.00    +0.240 C 
BRANCH  16  17
ATOM     17  C   UNL     1     -35.849  20.680   2.139  0.00  0.00    +0.184 C 
BRANCH  17  18
ATOM     18  O   UNL     1     -36.778  19.784   2.754  0.00  0.00    -0.378 OA
ATOM     19  H   UNL     1     -36.944  19.033   2.161  0.00  0.00    +0.211 HD
ENDBRANCH  17  18
BRANCH  17  20
ATOM     20  C   UNL     1     -34.525  19.946   1.979  0.00  0.00    +0.170 C 
BRANCH  20  21
ATOM     21  O   UNL     1     -33.828  20.489   0.862  0.00  0.00    -0.379 OA
ATOM     22  H   UNL     1     -32.953  20.074   0.794  0.00  0.00    +0.211 HD
ENDBRANCH  20  21
ENDBRANCH  17  20
ENDBRANCH  16  17
ENDBRANCH  15  16
ENDBRANCH  14  15
ENDBRANCH   1  14
TORSDOF 10
ENDMDL
MODEL 9
REMARK VINA RESULT:      -5.2      1.941      6.230
REMARK  Name = 5317465
REMARK  10 active torsions:
REMARK  status: ('A' for Active; 'I' for Inactive)
REMARK    1  A    between atoms: C_1  and  C_14
REMARK    2  A    between atoms: C_4  and  O_7
REMARK    3  A    between atoms: C_5  and  O_9
REMARK    4  A    between atoms: C_6  and  O_11
REMARK    5  A    between atoms: C_14  and  O_15
REMARK    6  A    between atoms: O_15  and  C_16
REMARK    7  A    between atoms: C_16  and  C_17
REMARK    8  A    between atoms: C_17  and  O_18
REMARK    9  A    between atoms: C_17  and  C_20
REMARK   10  A    between atoms: C_20  and  O_21
REMARK                            x       y       z     vdW  Elec       q    Type
REMARK                         _______ _______ _______ _____ _____    ______ ____
ROOT
ATOM      1  C   UNL     1     -35.301  23.699   4.828  0.00  0.00    +0.082 C 
ATOM      2  C   UNL     1     -34.129  24.423   4.919  0.00  0.00    +0.046 C 
ATOM      3  C   UNL     1     -36.500  24.285   4.474  0.00  0.00    +0.046 C 
ATOM      4  C   UNL     1     -36.527  25.653   4.199  0.00  0.00    +0.171 C 
ATOM      5  C   UNL     1     -34.156  25.790   4.645  0.00  0.00    +0.171 C 
ATOM      6  C   UNL     1     -35.356  26.405   4.286  0.00  0.00    +0.202 C 
ENDROOT
BRANCH   4   7
ATOM      7  O   UNL     1     -37.705  26.241   3.849  0.00  0.00    -0.503 OA
ATOM      8  H   UNL     1     -37.730  27.156   3.650  0.00  0.00    +0.292 HD
ENDBRANCH   4   7
BRANCH   5   9
ATOM      9  O   UNL     1     -33.006  26.514   4.733  0.00  0.00    -0.503 OA
ATOM     10  H   UNL     1     -32.181  26.104   4.561  0.00  0.00    +0.292 HD
ENDBRANCH   5   9
BRANCH   6  11
ATOM     11  O   UNL     1     -35.382  27.741   4.016  0.00  0.00    -0.501 OA
ATOM     12  H   UNL     1     -35.700  28.343   4.660  0.00  0.00    +0.292 HD
ENDBRANCH   6  11
BRANCH   1  14
ATOM     13  O   UNL     1     -34.747  21.771   6.114  0.00  0.00    -0.245 OA
ATOM     14  C   UNL     1     -35.272  22.245   5.119  0.00  0.00    +0.341 C 
BRANCH  14  15
ATOM     15  O   UNL     1     -35.902  21.545   4.137  0.00  0.00    -0.443 OA
BRANCH  15  16
ATOM     16  C   UNL     1     -35.070  21.036   3.100  0.00  0.00    +0.240 C 
BRANCH  16  17
ATOM     17  C   UNL     1     -35.930  20.459   1.982  0.00  0.00    +0.184 C 
BRANCH  17  18
ATOM     18  O   UNL     1     -36.968  19.667   2.563  0.00  0.00    -0.378 OA
ATOM     19  H   UNL     1     -36.896  19.701   3.531  0.00  0.00    +0.211 HD
ENDBRANCH  17  18
BRANCH  17  20
ATOM     20  C   UNL     1     -35.116  19.563   1.059  0.00  0.00    +0.170 C 
BRANCH  20  21
ATOM     21  O   UNL     1     -33.752  19.600   1.464  0.00  0.00    -0.379 OA
ATOM     22  H   UNL     1     -33.507  18.745   1.855  0.00  0.00    +0.211 HD
ENDBRANCH  20  21
ENDBRANCH  17  20
ENDBRANCH  16  17
ENDBRANCH  15  16
ENDBRANCH  14  15
ENDBRANCH   1  14
TORSDOF 10
ENDMDL
