MODEL 1
REMARK VINA RESULT:      -5.6      0.000      0.000
REMARK  Name = 54365914
REMARK  10 active torsions:
REMARK  status: ('A' for Active; 'I' for Inactive)
REMARK    1  A    between atoms: C_1  and  N_3
REMARK    2  A    between atoms: C_1  and  C_11
REMARK    3  A    between atoms: C_1  and  C_15
REMARK    4  A    between atoms: C_4  and  C_6
REMARK    5  A    between atoms: C_11  and  O_12
REMARK    6  A    between atoms: O_12  and  C_13
REMARK    7  A    between atoms: C_15  and  S_16
REMARK    8  A    between atoms: S_16  and  C_18
REMARK    9  A    between atoms: C_18  and  C_19
REMARK   10  A    between atoms: C_19  and  N_22
REMARK                            x       y       z     vdW  Elec       q    Type
REMARK                         _______ _______ _______ _____ _____    ______ ____
ROOT
ATOM      1  C   UNL     1     -37.928  22.647   2.338  0.00  0.00    +0.183 C 
ENDROOT
BRANCH   1   3
ATOM      2  O   UNL     1     -35.576  24.253   2.435  0.00  0.00    -0.275 OA
ATOM      3  N   UNL     1     -37.200  23.028   3.526  0.00  0.00    -0.296 N 
ATOM      4  C   UNL     1     -36.059  23.816   3.479  0.00  0.00    +0.222 C 
ATOM      5  H   UNL     1     -37.525  22.717   4.402  0.00  0.00    +0.150 HD
BRANCH   4   6
ATOM      6  C   UNL     1     -35.436  24.109   4.860  0.00  0.00    +0.069 C 
ATOM      7  C   UNL     1     -36.205  25.244   5.554  0.00  0.00    +0.009 C 
ATOM      8  C   UNL     1     -35.461  22.843   5.730  0.00  0.00    +0.009 C 
ATOM      9  C   UNL     1     -33.972  24.550   4.676  0.00  0.00    +0.009 C 
ENDBRANCH   4   6
ENDBRANCH   1   3
BRANCH   1  11
ATOM     10  O   UNL     1     -40.259  22.507   1.707  0.00  0.00    -0.248 OA
ATOM     11  C   UNL     1     -39.403  23.028   2.414  0.00  0.00    +0.336 C 
BRANCH  11  12
ATOM     12  O   UNL     1     -39.634  24.000   3.340  0.00  0.00    -0.447 OA
BRANCH  12  13
ATOM     13  C   UNL     1     -40.089  25.255   2.823  0.00  0.00    +0.209 C 
ATOM     14  C   UNL     1     -38.894  26.062   2.363  0.00  0.00    +0.051 C 
ENDBRANCH  12  13
ENDBRANCH  11  12
ENDBRANCH   1  11
BRANCH   1  15
ATOM     15  C   UNL     1     -37.738  21.166   2.002  0.00  0.00    +0.096 C 
BRANCH  15  16
ATOM     16  S   UNL     1     -36.338  20.851   0.878  0.00  0.00    -0.073 S 
BRANCH  16  18
ATOM     17  O   UNL     1     -35.281  20.402   3.255  0.00  0.00    -0.283 OA
ATOM     18  C   UNL     1     -35.125  20.314   2.043  0.00  0.00    +0.216 C 
BRANCH  18  19
ATOM     19  C   UNL     1     -33.898  19.701   1.394  0.00  0.00    +0.140 C 
ATOM     20  C   UNL     1     -33.282  20.666   0.394  0.00  0.00    +0.030 C 
BRANCH  19  22
ATOM     21  O   UNL     1     -32.366  17.269   0.982  0.00  0.00    -0.275 OA
ATOM     22  N   UNL     1     -34.337  18.489   0.754  0.00  0.00    -0.299 N 
ATOM     23  C   UNL     1     -33.530  17.371   0.601  0.00  0.00    +0.223 C 
ATOM     24  C   UNL     1     -34.245  16.234  -0.079  0.00  0.00    +0.095 C 
ATOM     25  H   UNL     1     -35.257  18.451   0.406  0.00  0.00    +0.150 HD
ENDBRANCH  19  22
ENDBRANCH  18  19
ENDBRANCH  16  18
ENDBRANCH  15  16
ENDBRANCH   1  15
TORSDOF 10
ENDMDL
MODEL 2
REMARK VINA RESULT:      -5.3      3.372      7.403
REMARK  Name = 54365914
REMARK  10 active torsions:
REMARK  status: ('A' for Active; 'I' for Inactive)
REMARK    1  A    between atoms: C_1  and  N_3
REMARK    2  A    between atoms: C_1  and  C_11
REMARK    3  A    between atoms: C_1  and  C_15
REMARK    4  A    between atoms: C_4  and  C_6
REMARK    5  A    between atoms: C_11  and  O_12
REMARK    6  A    between atoms: O_12  and  C_13
REMARK    7  A    between atoms: C_15  and  S_16
REMARK    8  A    between atoms: S_16  and  C_18
REMARK    9  A    between atoms: C_18  and  C_19
REMARK   10  A    between atoms: C_19  and  N_22
REMARK                            x       y       z     vdW  Elec       q    Type
REMARK                         _______ _______ _______ _____ _____    ______ ____
ROOT
ATOM      1  C   UNL     1     -35.377  23.433   2.860  0.00  0.00    +0.183 C 
ENDROOT
BRANCH   1   3
ATOM      2  O   UNL     1     -35.112  20.633   3.322  0.00  0.00    -0.275 OA
ATOM      3  N   UNL     1     -35.274  22.405   1.851  0.00  0.00    -0.296 N 
ATOM      4  C   UNL     1     -35.147  21.060   2.168  0.00  0.00    +0.222 C 
ATOM      5  H   UNL     1     -35.296  22.667   0.902  0.00  0.00    +0.150 HD
BRANCH   4   6
ATOM      6  C   UNL     1     -35.055  20.127   0.943  0.00  0.00    +0.069 C 
ATOM      7  C   UNL     1     -36.391  19.393   0.739  0.00  0.00    +0.009 C 
ATOM      8  C   UNL     1     -34.700  20.937  -0.313  0.00  0.00    +0.009 C 
ATOM      9  C   UNL     1     -33.952  19.080   1.180  0.00  0.00    +0.009 C 
ENDBRANCH   4   6
ENDBRANCH   1   3
BRANCH   1  11
ATOM     10  O   UNL     1     -37.719  22.937   3.208  0.00  0.00    -0.248 OA
ATOM     11  C   UNL     1     -36.654  23.311   3.686  0.00  0.00    +0.336 C 
BRANCH  11  12
ATOM     12  O   UNL     1     -36.457  23.669   4.986  0.00  0.00    -0.447 OA
BRANCH  12  13
ATOM     13  C   UNL     1     -35.230  23.226   5.574  0.00  0.00    +0.209 C 
ATOM     14  C   UNL     1     -35.509  22.022   6.447  0.00  0.00    +0.051 C 
ENDBRANCH  12  13
ENDBRANCH  11  12
ENDBRANCH   1  11
BRANCH   1  15
ATOM     15  C   UNL     1     -35.214  24.835   2.266  0.00  0.00    +0.096 C 
BRANCH  15  16
ATOM     16  S   UNL     1     -33.611  25.608   2.659  0.00  0.00    -0.073 S 
BRANCH  16  18
ATOM     17  O   UNL     1     -35.174  27.389   3.824  0.00  0.00    -0.283 OA
ATOM     18  C   UNL     1     -34.123  26.763   3.892  0.00  0.00    +0.216 C 
BRANCH  18  19
ATOM     19  C   UNL     1     -33.154  26.868   5.056  0.00  0.00    +0.140 C 
ATOM     20  C   UNL     1     -33.776  26.305   6.323  0.00  0.00    +0.030 C 
BRANCH  19  22
ATOM     21  O   UNL     1     -30.728  28.025   6.152  0.00  0.00    -0.275 OA
ATOM     22  N   UNL     1     -32.839  28.266   5.201  0.00  0.00    -0.299 N 
ATOM     23  C   UNL     1     -31.647  28.728   5.740  0.00  0.00    +0.223 C 
ATOM     24  C   UNL     1     -31.566  30.231   5.751  0.00  0.00    +0.095 C 
ATOM     25  H   UNL     1     -33.504  28.928   4.902  0.00  0.00    +0.150 HD
ENDBRANCH  19  22
ENDBRANCH  18  19
ENDBRANCH  16  18
ENDBRANCH  15  16
ENDBRANCH   1  15
TORSDOF 10
ENDMDL
MODEL 3
REMARK VINA RESULT:      -5.1      3.892      6.315
REMARK  Name = 54365914
REMARK  10 active torsions:
REMARK  status: ('A' for Active; 'I' for Inactive)
REMARK    1  A    between atoms: C_1  and  N_3
REMARK    2  A    between atoms: C_1  and  C_11
REMARK    3  A    between atoms: C_1  and  C_15
REMARK    4  A    between atoms: C_4  and  C_6
REMARK    5  A    between atoms: C_11  and  O_12
REMARK    6  A    between atoms: O_12  and  C_13
REMARK    7  A    between atoms: C_15  and  S_16
REMARK    8  A    between atoms: S_16  and  C_18
REMARK    9  A    between atoms: C_18  and  C_19
REMARK   10  A    between atoms: C_19  and  N_22
REMARK                            x       y       z     vdW  Elec       q    Type
REMARK                         _______ _______ _______ _____ _____    ______ ____
ROOT
ATOM      1  C   UNL     1     -34.864  26.683   3.742  0.00  0.00    +0.183 C 
ENDROOT
BRANCH   1   3
ATOM      2  O   UNL     1     -35.898  28.699   2.014  0.00  0.00    -0.275 OA
ATOM      3  N   UNL     1     -34.295  27.992   3.517  0.00  0.00    -0.296 N 
ATOM      4  C   UNL     1     -34.868  28.914   2.654  0.00  0.00    +0.222 C 
ATOM      5  H   UNL     1     -33.470  28.239   3.994  0.00  0.00    +0.150 HD
BRANCH   4   6
ATOM      6  C   UNL     1     -34.106  30.252   2.560  0.00  0.00    +0.069 C 
ATOM      7  C   UNL     1     -33.169  30.410   3.768  0.00  0.00    +0.009 C 
ATOM      8  C   UNL     1     -33.298  30.308   1.254  0.00  0.00    +0.009 C 
ATOM      9  C   UNL     1     -35.113  31.416   2.565  0.00  0.00    +0.009 C 
ENDBRANCH   4   6
ENDBRANCH   1   3
BRANCH   1  11
ATOM     10  O   UNL     1     -35.328  25.559   5.833  0.00  0.00    -0.248 OA
ATOM     11  C   UNL     1     -34.509  26.123   5.115  0.00  0.00    +0.336 C 
BRANCH  11  12
ATOM     12  O   UNL     1     -33.200  26.334   5.431  0.00  0.00    -0.447 OA
BRANCH  12  13
ATOM     13  C   UNL     1     -32.957  26.928   6.711  0.00  0.00    +0.209 C 
ATOM     14  C   UNL     1     -32.070  28.141   6.531  0.00  0.00    +0.051 C 
ENDBRANCH  12  13
ENDBRANCH  11  12
ENDBRANCH   1  11
BRANCH   1  15
ATOM     15  C   UNL     1     -34.508  25.705   2.618  0.00  0.00    +0.096 C 
BRANCH  15  16
ATOM     16  S   UNL     1     -35.966  24.976   1.802  0.00  0.00    -0.073 S 
BRANCH  16  18
ATOM     17  O   UNL     1     -34.697  22.661   1.761  0.00  0.00    -0.283 OA
ATOM     18  C   UNL     1     -35.688  23.268   2.149  0.00  0.00    +0.216 C 
BRANCH  18  19
ATOM     19  C   UNL     1     -36.774  22.644   3.006  0.00  0.00    +0.140 C 
ATOM     20  C   UNL     1     -38.102  23.351   2.786  0.00  0.00    +0.030 C 
BRANCH  19  22
ATOM     21  O   UNL     1     -35.139  20.769   4.502  0.00  0.00    -0.275 OA
ATOM     22  N   UNL     1     -36.335  22.762   4.373  0.00  0.00    -0.299 N 
ATOM     23  C   UNL     1     -35.552  21.809   5.008  0.00  0.00    +0.223 C 
ATOM     24  C   UNL     1     -35.216  22.192   6.424  0.00  0.00    +0.095 C 
ATOM     25  H   UNL     1     -36.606  23.559   4.883  0.00  0.00    +0.150 HD
ENDBRANCH  19  22
ENDBRANCH  18  19
ENDBRANCH  16  18
ENDBRANCH  15  16
ENDBRANCH   1  15
TORSDOF 10
ENDMDL
MODEL 4
REMARK VINA RESULT:      -5.1      4.399      6.333
REMARK  Name = 54365914
REMARK  10 active torsions:
REMARK  status: ('A' for Active; 'I' for Inactive)
REMARK    1  A    between atoms: C_1  and  N_3
REMARK    2  A    between atoms: C_1  and  C_11
REMARK    3  A    between atoms: C_1  and  C_15
REMARK    4  A    between atoms: C_4  and  C_6
REMARK    5  A    between atoms: C_11  and  O_12
REMARK    6  A    between atoms: O_12  and  C_13
REMARK    7  A    between atoms: C_15  and  S_16
REMARK    8  A    between atoms: S_16  and  C_18
REMARK    9  A    between atoms: C_18  and  C_19
REMARK   10  A    between atoms: C_19  and  N_22
REMARK                            x       y       z     vdW  Elec       q    Type
REMARK                         _______ _______ _______ _____ _____    ______ ____
ROOT
ATOM      1  C   UNL     1     -33.712  27.234   4.124  0.00  0.00    +0.183 C 
ENDROOT
BRANCH   1   3
ATOM      2  O   UNL     1     -30.904  27.713   4.231  0.00  0.00    -0.275 OA
ATOM      3  N   UNL     1     -33.054  28.315   4.822  0.00  0.00    -0.296 N 
ATOM      4  C   UNL     1     -31.675  28.471   4.820  0.00  0.00    +0.222 C 
ATOM      5  H   UNL     1     -33.603  28.964   5.316  0.00  0.00    +0.150 HD
BRANCH   4   6
ATOM      6  C   UNL     1     -31.176  29.691   5.622  0.00  0.00    +0.069 C 
ATOM      7  C   UNL     1     -31.638  29.584   7.084  0.00  0.00    +0.009 C 
ATOM      8  C   UNL     1     -29.643  29.774   5.557  0.00  0.00    +0.009 C 
ATOM      9  C   UNL     1     -31.763  30.977   5.015  0.00  0.00    +0.009 C 
ENDBRANCH   4   6
ENDBRANCH   1   3
BRANCH   1  11
ATOM     10  O   UNL     1     -35.736  27.152   2.804  0.00  0.00    -0.248 OA
ATOM     11  C   UNL     1     -34.691  27.735   3.068  0.00  0.00    +0.336 C 
BRANCH  11  12
ATOM     12  O   UNL     1     -34.257  28.880   2.470  0.00  0.00    -0.447 OA
BRANCH  12  13
ATOM     13  C   UNL     1     -35.277  29.814   2.102  0.00  0.00    +0.209 C 
ATOM     14  C   UNL     1     -35.311  30.934   3.119  0.00  0.00    +0.051 C 
ENDBRANCH  12  13
ENDBRANCH  11  12
ENDBRANCH   1  11
BRANCH   1  15
ATOM     15  C   UNL     1     -34.372  26.248   5.092  0.00  0.00    +0.096 C 
BRANCH  15  16
ATOM     16  S   UNL     1     -34.182  24.505   4.594  0.00  0.00    -0.073 S 
BRANCH  16  18
ATOM     17  O   UNL     1     -36.808  24.675   4.812  0.00  0.00    -0.283 OA
ATOM     18  C   UNL     1     -35.833  23.933   4.847  0.00  0.00    +0.216 C 
BRANCH  18  19
ATOM     19  C   UNL     1     -35.922  22.435   5.070  0.00  0.00    +0.140 C 
ATOM     20  C   UNL     1     -35.241  22.045   6.372  0.00  0.00    +0.030 C 
BRANCH  19  22
ATOM     21  O   UNL     1     -37.122  21.794   2.505  0.00  0.00    -0.275 OA
ATOM     22  N   UNL     1     -35.287  21.814   3.937  0.00  0.00    -0.299 N 
ATOM     23  C   UNL     1     -35.944  21.544   2.746  0.00  0.00    +0.223 C 
ATOM     24  C   UNL     1     -35.039  20.916   1.720  0.00  0.00    +0.095 C 
ATOM     25  H   UNL     1     -34.336  21.567   4.012  0.00  0.00    +0.150 HD
ENDBRANCH  19  22
ENDBRANCH  18  19
ENDBRANCH  16  18
ENDBRANCH  15  16
ENDBRANCH   1  15
TORSDOF 10
ENDMDL
MODEL 5
REMARK VINA RESULT:      -5.1      1.592      2.347
REMARK  Name = 54365914
REMARK  10 active torsions:
REMARK  status: ('A' for Active; 'I' for Inactive)
REMARK    1  A    between atoms: C_1  and  N_3
REMARK    2  A    between atoms: C_1  and  C_11
REMARK    3  A    between atoms: C_1  and  C_15
REMARK    4  A    between atoms: C_4  and  C_6
REMARK    5  A    between atoms: C_11  and  O_12
REMARK    6  A    between atoms: O_12  and  C_13
REMARK    7  A    between atoms: C_15  and  S_16
REMARK    8  A    between atoms: S_16  and  C_18
REMARK    9  A    between atoms: C_18  and  C_19
REMARK   10  A    between atoms: C_19  and  N_22
REMARK                            x       y       z     vdW  Elec       q    Type
REMARK                         _______ _______ _______ _____ _____    ______ ____
ROOT
ATOM      1  C   UNL     1     -38.078  23.058   2.401  0.00  0.00    +0.183 C 
ENDROOT
BRANCH   1   3
ATOM      2  O   UNL     1     -35.380  23.975   2.438  0.00  0.00    -0.275 OA
ATOM      3  N   UNL     1     -37.309  23.408   3.573  0.00  0.00    -0.296 N 
ATOM      4  C   UNL     1     -35.995  23.847   3.497  0.00  0.00    +0.222 C 
ATOM      5  H   UNL     1     -37.733  23.332   4.458  0.00  0.00    +0.150 HD
BRANCH   4   6
ATOM      6  C   UNL     1     -35.357  24.171   4.864  0.00  0.00    +0.069 C 
ATOM      7  C   UNL     1     -35.411  22.935   5.777  0.00  0.00    +0.009 C 
ATOM      8  C   UNL     1     -33.900  24.622   4.671  0.00  0.00    +0.009 C 
ATOM      9  C   UNL     1     -36.140  25.313   5.536  0.00  0.00    +0.009 C 
ENDBRANCH   4   6
ENDBRANCH   1   3
BRANCH   1  11
ATOM     10  O   UNL     1     -40.424  23.002   1.817  0.00  0.00    -0.248 OA
ATOM     11  C   UNL     1     -39.539  23.479   2.518  0.00  0.00    +0.336 C 
BRANCH  11  12
ATOM     12  O   UNL     1     -39.722  24.433   3.474  0.00  0.00    -0.447 OA
BRANCH  12  13
ATOM     13  C   UNL     1     -39.817  25.780   2.998  0.00  0.00    +0.209 C 
ATOM     14  C   UNL     1     -41.223  26.287   3.232  0.00  0.00    +0.051 C 
ENDBRANCH  12  13
ENDBRANCH  11  12
ENDBRANCH   1  11
BRANCH   1  15
ATOM     15  C   UNL     1     -37.939  21.575   2.048  0.00  0.00    +0.096 C 
BRANCH  15  16
ATOM     16  S   UNL     1     -37.019  21.280   0.502  0.00  0.00    -0.073 S 
BRANCH  16  18
ATOM     17  O   UNL     1     -38.992  19.657  -0.169  0.00  0.00    -0.283 OA
ATOM     18  C   UNL     1     -37.781  19.776  -0.024  0.00  0.00    +0.216 C 
BRANCH  18  19
ATOM     19  C   UNL     1     -36.785  18.669  -0.316  0.00  0.00    +0.140 C 
ATOM     20  C   UNL     1     -37.436  17.306  -0.149  0.00  0.00    +0.030 C 
BRANCH  19  22
ATOM     21  O   UNL     1     -33.976  18.096  -0.776  0.00  0.00    -0.275 OA
ATOM     22  N   UNL     1     -35.694  18.847   0.606  0.00  0.00    -0.299 N 
ATOM     23  C   UNL     1     -34.376  18.543   0.296  0.00  0.00    +0.223 C 
ATOM     24  C   UNL     1     -33.434  18.848   1.430  0.00  0.00    +0.095 C 
ATOM     25  H   UNL     1     -35.893  19.202   1.503  0.00  0.00    +0.150 HD
ENDBRANCH  19  22
ENDBRANCH  18  19
ENDBRANCH  16  18
ENDBRANCH  15  16
ENDBRANCH   1  15
TORSDOF 10
ENDMDL
MODEL 6
REMARK VINA RESULT:      -5.1      4.376      6.998
REMARK  Name = 54365914
REMARK  10 active torsions:
REMARK  status: ('A' for Active; 'I' for Inactive)
REMARK    1  A    between atoms: C_1  and  N_3
REMARK    2  A    between atoms: C_1  and  C_11
REMARK    3  A    between atoms: C_1  and  C_15
REMARK    4  A    between atoms: C_4  and  C_6
REMARK    5  A    between atoms: C_11  and  O_12
REMARK    6  A    between atoms: O_12  and  C_13
REMARK    7  A    between atoms: C_15  and  S_16
REMARK    8  A    between atoms: S_16  and  C_18
REMARK    9  A    between atoms: C_18  and  C_19
REMARK   10  A    between atoms: C_19  and  N_22
REMARK                            x       y       z     vdW  Elec       q    Type
REMARK                         _______ _______ _______ _____ _____    ______ ____
ROOT
ATOM      1  C   UNL     1     -33.457  26.851   4.515  0.00  0.00    +0.183 C 
ENDROOT
BRANCH   1   3
ATOM      2  O   UNL     1     -30.781  27.827   4.406  0.00  0.00    -0.275 OA
ATOM      3  N   UNL     1     -32.949  28.032   5.174  0.00  0.00    -0.296 N 
ATOM      4  C   UNL     1     -31.626  28.434   5.065  0.00  0.00    +0.222 C 
ATOM      5  H   UNL     1     -33.564  28.572   5.720  0.00  0.00    +0.150 HD
BRANCH   4   6
ATOM      6  C   UNL     1     -31.290  29.723   5.844  0.00  0.00    +0.069 C 
ATOM      7  C   UNL     1     -32.086  30.906   5.271  0.00  0.00    +0.009 C 
ATOM      8  C   UNL     1     -31.615  29.539   7.334  0.00  0.00    +0.009 C 
ATOM      9  C   UNL     1     -29.788  30.028   5.703  0.00  0.00    +0.009 C 
ENDBRANCH   4   6
ENDBRANCH   1   3
BRANCH   1  11
ATOM     10  O   UNL     1     -34.580  26.448   2.411  0.00  0.00    -0.248 OA
ATOM     11  C   UNL     1     -34.411  27.187   3.374  0.00  0.00    +0.336 C 
BRANCH  11  12
ATOM     12  O   UNL     1     -35.029  28.388   3.561  0.00  0.00    -0.447 OA
BRANCH  12  13
ATOM     13  C   UNL     1     -34.922  29.317   2.478  0.00  0.00    +0.209 C 
ATOM     14  C   UNL     1     -35.219  30.709   2.991  0.00  0.00    +0.051 C 
ENDBRANCH  12  13
ENDBRANCH  11  12
ENDBRANCH   1  11
BRANCH   1  15
ATOM     15  C   UNL     1     -34.079  25.866   5.508  0.00  0.00    +0.096 C 
BRANCH  15  16
ATOM     16  S   UNL     1     -35.886  25.703   5.333  0.00  0.00    -0.073 S 
BRANCH  16  18
ATOM     17  O   UNL     1     -35.829  23.153   6.019  0.00  0.00    -0.283 OA
ATOM     18  C   UNL     1     -36.016  23.956   5.112  0.00  0.00    +0.216 C 
BRANCH  18  19
ATOM     19  C   UNL     1     -36.419  23.557   3.705  0.00  0.00    +0.140 C 
ATOM     20  C   UNL     1     -35.210  23.088   2.913  0.00  0.00    +0.030 C 
BRANCH  19  22
ATOM     21  O   UNL     1     -39.249  24.078   3.315  0.00  0.00    -0.275 OA
ATOM     22  N   UNL     1     -37.021  24.720   3.106  0.00  0.00    -0.299 N 
ATOM     23  C   UNL     1     -38.391  24.882   2.961  0.00  0.00    +0.223 C 
ATOM     24  C   UNL     1     -38.750  26.200   2.328  0.00  0.00    +0.095 C 
ATOM     25  H   UNL     1     -36.429  25.438   2.783  0.00  0.00    +0.150 HD
ENDBRANCH  19  22
ENDBRANCH  18  19
ENDBRANCH  16  18
ENDBRANCH  15  16
ENDBRANCH   1  15
TORSDOF 10
ENDMDL
MODEL 7
REMARK VINA RESULT:      -5.0      4.609      6.944
REMARK  Name = 54365914
REMARK  10 active torsions:
REMARK  status: ('A' for Active; 'I' for Inactive)
REMARK    1  A    between atoms: C_1  and  N_3
REMARK    2  A    between atoms: C_1  and  C_11
REMARK    3  A    between atoms: C_1  and  C_15
REMARK    4  A    between atoms: C_4  and  C_6
REMARK    5  A    between atoms: C_11  and  O_12
REMARK    6  A    between atoms: O_12  and  C_13
REMARK    7  A    between atoms: C_15  and  S_16
REMARK    8  A    between atoms: S_16  and  C_18
REMARK    9  A    between atoms: C_18  and  C_19
REMARK   10  A    between atoms: C_19  and  N_22
REMARK                            x       y       z     vdW  Elec       q    Type
REMARK                         _______ _______ _______ _____ _____    ______ ____
ROOT
ATOM      1  C   UNL     1     -34.076  28.139   3.013  0.00  0.00    +0.183 C 
ENDROOT
BRANCH   1   3
ATOM      2  O   UNL     1     -31.311  28.585   3.536  0.00  0.00    -0.275 OA
ATOM      3  N   UNL     1     -33.461  28.264   4.314  0.00  0.00    -0.296 N 
ATOM      4  C   UNL     1     -32.100  28.481   4.476  0.00  0.00    +0.222 C 
ATOM      5  H   UNL     1     -34.028  28.193   5.115  0.00  0.00    +0.150 HD
BRANCH   4   6
ATOM      6  C   UNL     1     -31.647  28.588   5.947  0.00  0.00    +0.069 C 
ATOM      7  C   UNL     1     -31.845  30.025   6.455  0.00  0.00    +0.009 C 
ATOM      8  C   UNL     1     -32.444  27.604   6.817  0.00  0.00    +0.009 C 
ATOM      9  C   UNL     1     -30.152  28.233   6.048  0.00  0.00    +0.009 C 
ENDBRANCH   4   6
ENDBRANCH   1   3
BRANCH   1  11
ATOM     10  O   UNL     1     -35.951  29.197   1.911  0.00  0.00    -0.248 OA
ATOM     11  C   UNL     1     -35.021  29.295   2.704  0.00  0.00    +0.336 C 
BRANCH  11  12
ATOM     12  O   UNL     1     -34.698  30.421   3.401  0.00  0.00    -0.447 OA
BRANCH  12  13
ATOM     13  C   UNL     1     -34.242  31.528   2.618  0.00  0.00    +0.209 C 
ATOM     14  C   UNL     1     -32.800  31.821   2.971  0.00  0.00    +0.051 C 
ENDBRANCH  12  13
ENDBRANCH  11  12
ENDBRANCH   1  11
BRANCH   1  15
ATOM     15  C   UNL     1     -34.759  26.781   2.832  0.00  0.00    +0.096 C 
BRANCH  15  16
ATOM     16  S   UNL     1     -34.028  25.459   3.854  0.00  0.00    -0.073 S 
BRANCH  16  18
ATOM     17  O   UNL     1     -35.640  26.238   5.795  0.00  0.00    -0.283 OA
ATOM     18  C   UNL     1     -35.278  25.303   5.091  0.00  0.00    +0.216 C 
BRANCH  18  19
ATOM     19  C   UNL     1     -35.882  23.913   5.162  0.00  0.00    +0.140 C 
ATOM     20  C   UNL     1     -34.958  22.964   5.907  0.00  0.00    +0.030 C 
BRANCH  19  22
ATOM     21  O   UNL     1     -38.314  24.137   3.592  0.00  0.00    -0.275 OA
ATOM     22  N   UNL     1     -36.088  23.486   3.802  0.00  0.00    -0.299 N 
ATOM     23  C   UNL     1     -37.293  23.634   3.130  0.00  0.00    +0.223 C 
ATOM     24  C   UNL     1     -37.227  23.127   1.714  0.00  0.00    +0.095 C 
ATOM     25  H   UNL     1     -35.336  23.066   3.325  0.00  0.00    +0.150 HD
ENDBRANCH  19  22
ENDBRANCH  18  19
ENDBRANCH  16  18
ENDBRANCH  15  16
ENDBRANCH   1  15
TORSDOF 10
ENDMDL
MODEL 8
REMARK VINA RESULT:      -5.0      2.429      6.017
REMARK  Name = 54365914
REMARK  10 active torsions:
REMARK  status: ('A' for Active; 'I' for Inactive)
REMARK    1  A    between atoms: C_1  and  N_3
REMARK    2  A    between atoms: C_1  and  C_11
REMARK    3  A    between atoms: C_1  and  C_15
REMARK    4  A    between atoms: C_4  and  C_6
REMARK    5  A    between atoms: C_11  and  O_12
REMARK    6  A    between atoms: O_12  and  C_13
REMARK    7  A    between atoms: C_15  and  S_16
REMARK    8  A    between atoms: S_16  and  C_18
REMARK    9  A    between atoms: C_18  and  C_19
REMARK   10  A    between atoms: C_19  and  N_22
REMARK                            x       y       z     vdW  Elec       q    Type
REMARK                         _______ _______ _______ _____ _____    ______ ____
ROOT
ATOM      1  C   UNL     1     -34.982  22.466   1.411  0.00  0.00    +0.183 C 
ENDROOT
BRANCH   1   3
ATOM      2  O   UNL     1     -34.614  19.801   2.352  0.00  0.00    -0.275 OA
ATOM      3  N   UNL     1     -34.132  21.460   0.819  0.00  0.00    -0.296 N 
ATOM      4  C   UNL     1     -34.013  20.182   1.347  0.00  0.00    +0.222 C 
ATOM      5  H   UNL     1     -33.619  21.688   0.011  0.00  0.00    +0.150 HD
BRANCH   4   6
ATOM      6  C   UNL     1     -33.057  19.260   0.561  0.00  0.00    +0.069 C 
ATOM      7  C   UNL     1     -33.764  18.711  -0.689  0.00  0.00    +0.009 C 
ATOM      8  C   UNL     1     -31.792  20.032   0.158  0.00  0.00    +0.009 C 
ATOM      9  C   UNL     1     -32.646  18.073   1.452  0.00  0.00    +0.009 C 
ENDBRANCH   4   6
ENDBRANCH   1   3
BRANCH   1  11
ATOM     10  O   UNL     1     -36.699  22.844  -0.250  0.00  0.00    -0.248 OA
ATOM     11  C   UNL     1     -36.404  22.422   0.863  0.00  0.00    +0.336 C 
BRANCH  11  12
ATOM     12  O   UNL     1     -37.278  21.875   1.753  0.00  0.00    -0.447 OA
BRANCH  12  13
ATOM     13  C   UNL     1     -38.524  22.564   1.906  0.00  0.00    +0.209 C 
ATOM     14  C   UNL     1     -39.651  21.554   1.894  0.00  0.00    +0.051 C 
ENDBRANCH  12  13
ENDBRANCH  11  12
ENDBRANCH   1  11
BRANCH   1  15
ATOM     15  C   UNL     1     -34.371  23.866   1.301  0.00  0.00    +0.096 C 
BRANCH  15  16
ATOM     16  S   UNL     1     -35.250  25.122   2.288  0.00  0.00    -0.073 S 
BRANCH  16  18
ATOM     17  O   UNL     1     -32.896  25.640   3.366  0.00  0.00    -0.283 OA
ATOM     18  C   UNL     1     -34.073  25.374   3.579  0.00  0.00    +0.216 C 
BRANCH  18  19
ATOM     19  C   UNL     1     -34.674  25.268   4.969  0.00  0.00    +0.140 C 
ATOM     20  C   UNL     1     -33.986  26.228   5.925  0.00  0.00    +0.030 C 
BRANCH  19  22
ATOM     21  O   UNL     1     -36.621  23.120   4.804  0.00  0.00    -0.275 OA
ATOM     22  N   UNL     1     -34.505  23.900   5.384  0.00  0.00    -0.299 N 
ATOM     23  C   UNL     1     -35.498  22.938   5.267  0.00  0.00    +0.223 C 
ATOM     24  C   UNL     1     -35.049  21.586   5.754  0.00  0.00    +0.095 C 
ATOM     25  H   UNL     1     -33.640  23.634   5.773  0.00  0.00    +0.150 HD
ENDBRANCH  19  22
ENDBRANCH  18  19
ENDBRANCH  16  18
ENDBRANCH  15  16
ENDBRANCH   1  15
TORSDOF 10
ENDMDL
MODEL 9
REMARK VINA RESULT:      -5.0      4.227      6.303
REMARK  Name = 54365914
REMARK  10 active torsions:
REMARK  status: ('A' for Active; 'I' for Inactive)
REMARK    1  A    between atoms: C_1  and  N_3
REMARK    2  A    between atoms: C_1  and  C_11
REMARK    3  A    between atoms: C_1  and  C_15
REMARK    4  A    between atoms: C_4  and  C_6
REMARK    5  A    between atoms: C_11  and  O_12
REMARK    6  A    between atoms: O_12  and  C_13
REMARK    7  A    between atoms: C_15  and  S_16
REMARK    8  A    between atoms: S_16  and  C_18
REMARK    9  A    between atoms: C_18  and  C_19
REMARK   10  A    between atoms: C_19  and  N_22
REMARK                            x       y       z     vdW  Elec       q    Type
REMARK                         _______ _______ _______ _____ _____    ______ ____
ROOT
ATOM      1  C   UNL     1     -33.495  27.272   4.242  0.00  0.00    +0.183 C 
ENDROOT
BRANCH   1   3
ATOM      2  O   UNL     1     -30.693  27.786   4.167  0.00  0.00    -0.275 OA
ATOM      3  N   UNL     1     -32.784  28.256   5.025  0.00  0.00    -0.296 N 
ATOM      4  C   UNL     1     -31.412  28.438   4.924  0.00  0.00    +0.222 C 
ATOM      5  H   UNL     1     -33.291  28.818   5.654  0.00  0.00    +0.150 HD
BRANCH   4   6
ATOM      6  C   UNL     1     -30.851  29.541   5.845  0.00  0.00    +0.069 C 
ATOM      7  C   UNL     1     -31.656  29.595   7.153  0.00  0.00    +0.009 C 
ATOM      8  C   UNL     1     -29.369  29.272   6.148  0.00  0.00    +0.009 C 
ATOM      9  C   UNL     1     -30.969  30.904   5.141  0.00  0.00    +0.009 C 
ENDBRANCH   4   6
ENDBRANCH   1   3
BRANCH   1  11
ATOM     10  O   UNL     1     -34.884  29.010   3.292  0.00  0.00    -0.248 OA
ATOM     11  C   UNL     1     -34.364  27.907   3.161  0.00  0.00    +0.336 C 
BRANCH  11  12
ATOM     12  O   UNL     1     -34.486  27.105   2.066  0.00  0.00    -0.447 OA
BRANCH  12  13
ATOM     13  C   UNL     1     -35.823  26.736   1.712  0.00  0.00    +0.209 C 
ATOM     14  C   UNL     1     -35.850  25.267   1.353  0.00  0.00    +0.051 C 
ENDBRANCH  12  13
ENDBRANCH  11  12
ENDBRANCH   1  11
BRANCH   1  15
ATOM     15  C   UNL     1     -34.294  26.309   5.123  0.00  0.00    +0.096 C 
BRANCH  15  16
ATOM     16  S   UNL     1     -34.142  24.564   4.615  0.00  0.00    -0.073 S 
BRANCH  16  18
ATOM     17  O   UNL     1     -36.760  24.783   4.883  0.00  0.00    -0.283 OA
ATOM     18  C   UNL     1     -35.800  24.022   4.887  0.00  0.00    +0.216 C 
BRANCH  18  19
ATOM     19  C   UNL     1     -35.917  22.521   5.083  0.00  0.00    +0.140 C 
ATOM     20  C   UNL     1     -35.235  22.095   6.372  0.00  0.00    +0.030 C 
BRANCH  19  22
ATOM     21  O   UNL     1     -37.146  21.947   2.516  0.00  0.00    -0.275 OA
ATOM     22  N   UNL     1     -35.300  21.910   3.934  0.00  0.00    -0.299 N 
ATOM     23  C   UNL     1     -35.970  21.673   2.743  0.00  0.00    +0.223 C 
ATOM     24  C   UNL     1     -35.084  21.047   1.699  0.00  0.00    +0.095 C 
ATOM     25  H   UNL     1     -34.353  21.646   3.998  0.00  0.00    +0.150 HD
ENDBRANCH  19  22
ENDBRANCH  18  19
ENDBRANCH  16  18
ENDBRANCH  15  16
ENDBRANCH   1  15
TORSDOF 10
ENDMDL
