MODEL 1
REMARK VINA RESULT:      -5.3      0.000      0.000
REMARK  Name = 53939867
REMARK  14 active torsions:
REMARK  status: ('A' for Active; 'I' for Inactive)
REMARK    1  A    between atoms: CA_1  and  N_3
REMARK    2  A    between atoms: CA_1  and  C_19
REMARK    3  A    between atoms: CA_1  and  CB_26
REMARK    4  A    between atoms: C_4  and  C_6
REMARK    5  A    between atoms: C_6  and  C_7
REMARK    6  A    between atoms: C_7  and  CA_8
REMARK    7  A    between atoms: CA_8  and  N_9
REMARK    8  A    between atoms: CA_8  and  C_14
REMARK    9  A    between atoms: C_14  and  O_15
REMARK   10  A    between atoms: N_18  and  CA_21
REMARK   11  A    between atoms: CA_21  and  C_23
REMARK   12  A    between atoms: C_23  and  O_24
REMARK   13  A    between atoms: CB_26  and  SG_27
REMARK   14  A    between atoms: SG_27  and  C_30
REMARK                            x       y       z     vdW  Elec       q    Type
REMARK                         _______ _______ _______ _____ _____    ______ ____
ROOT
ATOM      1  CA  UNL     1     -36.349  24.797   4.414  0.00  0.00    +0.160 C 
ENDROOT
BRANCH   1   3
ATOM      2  O   UNL     1     -37.574  26.316   2.289  0.00  0.00    -0.275 OA
ATOM      3  N   UNL     1     -37.761  24.913   4.131  0.00  0.00    -0.298 N 
ATOM      4  C   UNL     1     -38.257  25.672   3.080  0.00  0.00    +0.223 C 
ATOM      5  H   UNL     1     -38.399  24.433   4.707  0.00  0.00    +0.150 HD
BRANCH   4   6
ATOM      6  C   UNL     1     -39.774  25.622   3.022  0.00  0.00    +0.083 C 
BRANCH   6   7
ATOM      7  C   UNL     1     -40.308  24.190   2.948  0.00  0.00    -0.001 C 
BRANCH   7   8
ATOM      8  CA  UNL     1     -39.960  23.492   1.629  0.00  0.00    +0.036 C 
BRANCH   8   9
ATOM      9  N   UNL     1     -41.189  23.220   0.879  0.00  0.00    +0.389 N 
ATOM     10  H1  UNL     1     -40.987  22.566   0.122  0.00  0.00    -0.088 HD
ATOM     11  H2  UNL     1     -41.548  24.091   0.489  0.00  0.00    -0.088 HD
ATOM     12  H3  UNL     1     -41.885  22.814   1.503  0.00  0.00    -0.088 HD
ENDBRANCH   8   9
BRANCH   8  14
ATOM     13  OXT UNL     1     -38.086  21.953   1.871  0.00  0.00    -0.253 OA
ATOM     14  C   UNL     1     -39.294  22.150   1.874  0.00  0.00    +0.293 C 
BRANCH  14  15
ATOM     15  O   UNL     1     -40.198  21.155   2.074  0.00  0.00    -0.482 OA
ATOM     16  H   UNL     1     -40.474  20.621   1.355  0.00  0.00    +0.295 HD
ENDBRANCH  14  15
ENDBRANCH   8  14
ENDBRANCH   7   8
ENDBRANCH   6   7
ENDBRANCH   4   6
ENDBRANCH   1   3
BRANCH   1  19
ATOM     17  O   UNL     1     -36.101  22.929   5.943  0.00  0.00    -0.273 OA
ATOM     18  N   UNL     1     -35.660  22.591   3.690  0.00  0.00    -0.294 N 
ATOM     19  C   ACE A   1     -36.038  23.349   4.790  0.00  0.00    +0.242 C 
ATOM     20  H   UNL     1     -35.641  23.020   2.805  0.00  0.00    +0.150 HD
BRANCH  18  21
ATOM     21  CA  UNL     1     -35.293  21.199   3.794  0.00  0.00    +0.200 C 
BRANCH  21  23
ATOM     22  OXT UNL     1     -34.658  20.532   1.570  0.00  0.00    -0.248 OA
ATOM     23  C   UNL     1     -35.455  20.450   2.496  0.00  0.00    +0.334 C 
BRANCH  23  24
ATOM     24  O   UNL     1     -36.564  19.678   2.453  0.00  0.00    -0.479 OA
ATOM     25  H   UNL     1     -37.158  19.667   3.179  0.00  0.00    +0.295 HD
ENDBRANCH  23  24
ENDBRANCH  21  23
ENDBRANCH  18  21
ENDBRANCH   1  19
BRANCH   1  26
ATOM     26  CB  UNL     1     -35.881  25.810   5.462  0.00  0.00    +0.092 C 
BRANCH  26  27
ATOM     27  SG  UNL     1     -34.085  26.118   5.435  0.00  0.00    -0.099 S 
BRANCH  27  30
ATOM     28 CL   UNL     1     -34.696  27.944   3.191  0.00  0.00    -0.075 Cl
ATOM     29 CL   UNL     1     -32.829  26.042   1.298  0.00  0.00    -0.080 Cl
ATOM     30  C   UNL     1     -33.895  26.515   3.757  0.00  0.00    +0.094 C 
ATOM     31  C   UNL     1     -33.130  25.758   2.963  0.00  0.00    +0.086 C 
ENDBRANCH  27  30
ENDBRANCH  26  27
ENDBRANCH   1  26
TORSDOF 14
ENDMDL
MODEL 2
REMARK VINA RESULT:      -5.2      3.061      5.365
REMARK  Name = 53939867
REMARK  14 active torsions:
REMARK  status: ('A' for Active; 'I' for Inactive)
REMARK    1  A    between atoms: CA_1  and  N_3
REMARK    2  A    between atoms: CA_1  and  C_19
REMARK    3  A    between atoms: CA_1  and  CB_26
REMARK    4  A    between atoms: C_4  and  C_6
REMARK    5  A    between atoms: C_6  and  C_7
REMARK    6  A    between atoms: C_7  and  CA_8
REMARK    7  A    between atoms: CA_8  and  N_9
REMARK    8  A    between atoms: CA_8  and  C_14
REMARK    9  A    between atoms: C_14  and  O_15
REMARK   10  A    between atoms: N_18  and  CA_21
REMARK   11  A    between atoms: CA_21  and  C_23
REMARK   12  A    between atoms: C_23  and  O_24
REMARK   13  A    between atoms: CB_26  and  SG_27
REMARK   14  A    between atoms: SG_27  and  C_30
REMARK                            x       y       z     vdW  Elec       q    Type
REMARK                         _______ _______ _______ _____ _____    ______ ____
ROOT
ATOM      1  CA  UNL     1     -36.410  21.473   2.581  0.00  0.00    +0.160 C 
ENDROOT
BRANCH   1   3
ATOM      2  O   UNL     1     -35.033  20.702   4.996  0.00  0.00    -0.275 OA
ATOM      3  N   UNL     1     -36.168  22.295   3.744  0.00  0.00    -0.298 N 
ATOM      4  C   UNL     1     -35.492  21.833   4.864  0.00  0.00    +0.223 C 
ATOM      5  H   UNL     1     -36.497  23.223   3.741  0.00  0.00    +0.150 HD
BRANCH   4   6
ATOM      6  C   UNL     1     -35.392  22.904   5.937  0.00  0.00    +0.083 C 
BRANCH   6   7
ATOM      7  C   UNL     1     -35.534  24.316   5.366  0.00  0.00    -0.001 C 
BRANCH   7   8
ATOM      8  CA  UNL     1     -34.194  25.055   5.262  0.00  0.00    +0.036 C 
BRANCH   8   9
ATOM      9  N   UNL     1     -34.335  26.403   5.815  0.00  0.00    +0.389 N 
ATOM     10  H1  UNL     1     -34.706  26.345   6.764  0.00  0.00    -0.088 HD
ATOM     11  H2  UNL     1     -34.973  26.945   5.233  0.00  0.00    -0.088 HD
ATOM     12  H3  UNL     1     -33.423  26.859   5.836  0.00  0.00    -0.088 HD
ENDBRANCH   8   9
BRANCH   8  14
ATOM     13  OXT UNL     1     -32.757  25.807   3.444  0.00  0.00    -0.253 OA
ATOM     14  C   UNL     1     -33.765  25.220   3.816  0.00  0.00    +0.293 C 
BRANCH  14  15
ATOM     15  O   UNL     1     -34.650  24.661   2.949  0.00  0.00    -0.482 OA
ATOM     16  H   UNL     1     -35.535  24.967   2.920  0.00  0.00    +0.295 HD
ENDBRANCH  14  15
ENDBRANCH   8  14
ENDBRANCH   7   8
ENDBRANCH   6   7
ENDBRANCH   4   6
ENDBRANCH   1   3
BRANCH   1  19
ATOM     17  O   UNL     1     -34.580  22.303   1.219  0.00  0.00    -0.273 OA
ATOM     18  N   UNL     1     -34.634  20.047   1.760  0.00  0.00    -0.294 N 
ATOM     19  C   ACE A   1     -35.112  21.350   1.784  0.00  0.00    +0.242 C 
ATOM     20  H   UNL     1     -35.133  19.351   2.244  0.00  0.00    +0.150 HD
BRANCH  18  21
ATOM     21  CA  UNL     1     -33.434  19.672   1.050  0.00  0.00    +0.200 C 
BRANCH  21  23
ATOM     22  OXT UNL     1     -32.043  17.827   1.725  0.00  0.00    -0.248 OA
ATOM     23  C   UNL     1     -33.085  18.215   1.212  0.00  0.00    +0.334 C 
BRANCH  23  24
ATOM     24  O   UNL     1     -34.035  17.376   0.739  0.00  0.00    -0.479 OA
ATOM     25  H   UNL     1     -33.823  16.758   0.066  0.00  0.00    +0.295 HD
ENDBRANCH  23  24
ENDBRANCH  21  23
ENDBRANCH  18  21
ENDBRANCH   1  19
BRANCH   1  26
ATOM     26  CB  UNL     1     -37.589  21.979   1.746  0.00  0.00    +0.092 C 
BRANCH  26  27
ATOM     27  SG  UNL     1     -38.496  23.359   2.516  0.00  0.00    -0.099 S 
BRANCH  27  30
ATOM     28 CL   UNL     1     -37.135  24.297   0.065  0.00  0.00    -0.075 Cl
ATOM     29 CL   UNL     1     -37.274  27.323   1.294  0.00  0.00    -0.080 Cl
ATOM     30  C   UNL     1     -37.821  24.676   1.610  0.00  0.00    +0.094 C 
ATOM     31  C   UNL     1     -37.873  25.924   2.087  0.00  0.00    +0.086 C 
ENDBRANCH  27  30
ENDBRANCH  26  27
ENDBRANCH   1  26
TORSDOF 14
ENDMDL
MODEL 3
REMARK VINA RESULT:      -5.2      2.360      5.193
REMARK  Name = 53939867
REMARK  14 active torsions:
REMARK  status: ('A' for Active; 'I' for Inactive)
REMARK    1  A    between atoms: CA_1  and  N_3
REMARK    2  A    between atoms: CA_1  and  C_19
REMARK    3  A    between atoms: CA_1  and  CB_26
REMARK    4  A    between atoms: C_4  and  C_6
REMARK    5  A    between atoms: C_6  and  C_7
REMARK    6  A    between atoms: C_7  and  CA_8
REMARK    7  A    between atoms: CA_8  and  N_9
REMARK    8  A    between atoms: CA_8  and  C_14
REMARK    9  A    between atoms: C_14  and  O_15
REMARK   10  A    between atoms: N_18  and  CA_21
REMARK   11  A    between atoms: CA_21  and  C_23
REMARK   12  A    between atoms: C_23  and  O_24
REMARK   13  A    between atoms: CB_26  and  SG_27
REMARK   14  A    between atoms: SG_27  and  C_30
REMARK                            x       y       z     vdW  Elec       q    Type
REMARK                         _______ _______ _______ _____ _____    ______ ____
ROOT
ATOM      1  CA  UNL     1     -37.461  24.849   3.894  0.00  0.00    +0.160 C 
ENDROOT
BRANCH   1   3
ATOM      2  O   UNL     1     -36.014  23.344   5.886  0.00  0.00    -0.275 OA
ATOM      3  N   UNL     1     -36.756  23.603   3.700  0.00  0.00    -0.298 N 
ATOM      4  C   UNL     1     -36.086  22.950   4.726  0.00  0.00    +0.223 C 
ATOM      5  H   UNL     1     -36.751  23.198   2.802  0.00  0.00    +0.150 HD
BRANCH   4   6
ATOM      6  C   UNL     1     -35.428  21.671   4.237  0.00  0.00    +0.083 C 
BRANCH   6   7
ATOM      7  C   UNL     1     -35.459  21.544   2.713  0.00  0.00    -0.001 C 
BRANCH   7   8
ATOM      8  CA  UNL     1     -36.178  20.277   2.235  0.00  0.00    +0.036 C 
BRANCH   8   9
ATOM      9  N   UNL     1     -35.316  19.547   1.303  0.00  0.00    +0.389 N 
ATOM     10  H1  UNL     1     -35.155  20.118   0.472  0.00  0.00    -0.088 HD
ATOM     11  H2  UNL     1     -35.769  18.675   1.033  0.00  0.00    -0.088 HD
ATOM     12  H3  UNL     1     -34.425  19.343   1.752  0.00  0.00    -0.088 HD
ENDBRANCH   8   9
BRANCH   8  14
ATOM     13  OXT UNL     1     -37.618  20.450   0.277  0.00  0.00    -0.253 OA
ATOM     14  C   UNL     1     -37.450  20.616   1.479  0.00  0.00    +0.293 C 
BRANCH  14  15
ATOM     15  O   UNL     1     -38.398  21.161   2.284  0.00  0.00    -0.482 OA
ATOM     16  H   UNL     1     -39.173  21.533   1.911  0.00  0.00    +0.295 HD
ENDBRANCH  14  15
ENDBRANCH   8  14
ENDBRANCH   7   8
ENDBRANCH   6   7
ENDBRANCH   4   6
ENDBRANCH   1   3
BRANCH   1  19
ATOM     17  O   UNL     1     -39.340  23.634   2.955  0.00  0.00    -0.273 OA
ATOM     18  N   UNL     1     -39.566  25.910   3.343  0.00  0.00    -0.294 N 
ATOM     19  C   ACE A   1     -38.881  24.702   3.352  0.00  0.00    +0.242 C 
ATOM     20  H   UNL     1     -39.111  26.714   3.683  0.00  0.00    +0.150 HD
BRANCH  18  21
ATOM     21  CA  UNL     1     -40.918  26.034   2.852  0.00  0.00    +0.200 C 
BRANCH  21  23
ATOM     22  OXT UNL     1     -43.012  26.628   3.881  0.00  0.00    -0.248 OA
ATOM     23  C   UNL     1     -41.808  26.826   3.776  0.00  0.00    +0.334 C 
BRANCH  23  24
ATOM     24  O   UNL     1     -41.149  27.777   4.477  0.00  0.00    -0.479 OA
ATOM     25  H   UNL     1     -40.599  28.392   4.032  0.00  0.00    +0.295 HD
ENDBRANCH  23  24
ENDBRANCH  21  23
ENDBRANCH  18  21
ENDBRANCH   1  19
BRANCH   1  26
ATOM     26  CB  UNL     1     -36.705  26.042   3.303  0.00  0.00    +0.092 C 
BRANCH  26  27
ATOM     27  SG  UNL     1     -35.000  25.653   2.794  0.00  0.00    -0.099 S 
BRANCH  27  30
ATOM     28 CL   UNL     1     -33.476  28.063   3.575  0.00  0.00    -0.075 Cl
ATOM     29 CL   UNL     1     -33.232  26.786   6.574  0.00  0.00    -0.080 Cl
ATOM     30  C   UNL     1     -34.136  26.524   4.021  0.00  0.00    +0.094 C 
ATOM     31  C   UNL     1     -34.030  26.028   5.258  0.00  0.00    +0.086 C 
ENDBRANCH  27  30
ENDBRANCH  26  27
ENDBRANCH   1  26
TORSDOF 14
ENDMDL
MODEL 4
REMARK VINA RESULT:      -5.2      2.868      5.131
REMARK  Name = 53939867
REMARK  14 active torsions:
REMARK  status: ('A' for Active; 'I' for Inactive)
REMARK    1  A    between atoms: CA_1  and  N_3
REMARK    2  A    between atoms: CA_1  and  C_19
REMARK    3  A    between atoms: CA_1  and  CB_26
REMARK    4  A    between atoms: C_4  and  C_6
REMARK    5  A    between atoms: C_6  and  C_7
REMARK    6  A    between atoms: C_7  and  CA_8
REMARK    7  A    between atoms: CA_8  and  N_9
REMARK    8  A    between atoms: CA_8  and  C_14
REMARK    9  A    between atoms: C_14  and  O_15
REMARK   10  A    between atoms: N_18  and  CA_21
REMARK   11  A    between atoms: CA_21  and  C_23
REMARK   12  A    between atoms: C_23  and  O_24
REMARK   13  A    between atoms: CB_26  and  SG_27
REMARK   14  A    between atoms: SG_27  and  C_30
REMARK                            x       y       z     vdW  Elec       q    Type
REMARK                         _______ _______ _______ _____ _____    ______ ____
ROOT
ATOM      1  CA  UNL     1     -35.163  27.600   2.990  0.00  0.00    +0.160 C 
ENDROOT
BRANCH   1   3
ATOM      2  O   UNL     1     -36.042  26.598   5.549  0.00  0.00    -0.275 OA
ATOM      3  N   UNL     1     -34.549  26.551   3.771  0.00  0.00    -0.298 N 
ATOM      4  C   UNL     1     -35.048  26.135   4.997  0.00  0.00    +0.223 C 
ATOM      5  H   UNL     1     -33.742  26.111   3.417  0.00  0.00    +0.150 HD
BRANCH   4   6
ATOM      6  C   UNL     1     -34.201  25.026   5.598  0.00  0.00    +0.083 C 
BRANCH   6   7
ATOM      7  C   UNL     1     -34.408  23.686   4.890  0.00  0.00    -0.001 C 
BRANCH   7   8
ATOM      8  CA  UNL     1     -35.875  23.242   4.870  0.00  0.00    +0.036 C 
BRANCH   8   9
ATOM      9  N   UNL     1     -35.980  21.874   5.380  0.00  0.00    +0.389 N 
ATOM     10  H1  UNL     1     -35.502  21.808   6.279  0.00  0.00    -0.088 HD
ATOM     11  H2  UNL     1     -35.548  21.230   4.718  0.00  0.00    -0.088 HD
ATOM     12  H3  UNL     1     -36.963  21.630   5.499  0.00  0.00    -0.088 HD
ENDBRANCH   8   9
BRANCH   8  14
ATOM     13  OXT UNL     1     -35.888  23.738   2.484  0.00  0.00    -0.253 OA
ATOM     14  C   UNL     1     -36.427  23.224   3.456  0.00  0.00    +0.293 C 
BRANCH  14  15
ATOM     15  O   UNL     1     -37.624  22.586   3.378  0.00  0.00    -0.482 OA
ATOM     16  H   UNL     1     -37.750  21.901   2.752  0.00  0.00    +0.295 HD
ENDBRANCH  14  15
ENDBRANCH   8  14
ENDBRANCH   7   8
ENDBRANCH   6   7
ENDBRANCH   4   6
ENDBRANCH   1   3
BRANCH   1  19
ATOM     17  O   UNL     1     -36.035  26.843   0.856  0.00  0.00    -0.273 OA
ATOM     18  N   UNL     1     -37.365  26.623   2.745  0.00  0.00    -0.294 N 
ATOM     19  C   ACE A   1     -36.208  26.981   2.065  0.00  0.00    +0.242 C 
ATOM     20  H   UNL     1     -37.407  26.774   3.716  0.00  0.00    +0.150 HD
BRANCH  18  21
ATOM     21  CA  UNL     1     -38.508  26.040   2.083  0.00  0.00    +0.200 C 
BRANCH  21  23
ATOM     22  OXT UNL     1     -40.675  26.612   2.959  0.00  0.00    -0.248 OA
ATOM     23  C   UNL     1     -39.696  25.878   2.996  0.00  0.00    +0.334 C 
BRANCH  23  24
ATOM     24  O   UNL     1     -39.577  24.843   3.859  0.00  0.00    -0.479 OA
ATOM     25  H   UNL     1     -40.089  24.826   4.645  0.00  0.00    +0.295 HD
ENDBRANCH  23  24
ENDBRANCH  21  23
ENDBRANCH  18  21
ENDBRANCH   1  19
BRANCH   1  26
ATOM     26  CB  UNL     1     -34.130  28.456   2.253  0.00  0.00    +0.092 C 
BRANCH  26  27
ATOM     27  SG  UNL     1     -32.413  28.151   2.779  0.00  0.00    -0.099 S 
BRANCH  27  30
ATOM     28 CL   UNL     1     -32.943  30.835   3.900  0.00  0.00    -0.075 Cl
ATOM     29 CL   UNL     1     -31.769  29.743   6.748  0.00  0.00    -0.080 Cl
ATOM     30  C   UNL     1     -32.341  29.227   4.138  0.00  0.00    +0.094 C 
ATOM     31  C   UNL     1     -31.873  28.803   5.316  0.00  0.00    +0.086 C 
ENDBRANCH  27  30
ENDBRANCH  26  27
ENDBRANCH   1  26
TORSDOF 14
ENDMDL
MODEL 5
REMARK VINA RESULT:      -5.2      3.107      5.098
REMARK  Name = 53939867
REMARK  14 active torsions:
REMARK  status: ('A' for Active; 'I' for Inactive)
REMARK    1  A    between atoms: CA_1  and  N_3
REMARK    2  A    between atoms: CA_1  and  C_19
REMARK    3  A    between atoms: CA_1  and  CB_26
REMARK    4  A    between atoms: C_4  and  C_6
REMARK    5  A    between atoms: C_6  and  C_7
REMARK    6  A    between atoms: C_7  and  CA_8
REMARK    7  A    between atoms: CA_8  and  N_9
REMARK    8  A    between atoms: CA_8  and  C_14
REMARK    9  A    between atoms: C_14  and  O_15
REMARK   10  A    between atoms: N_18  and  CA_21
REMARK   11  A    between atoms: CA_21  and  C_23
REMARK   12  A    between atoms: C_23  and  O_24
REMARK   13  A    between atoms: CB_26  and  SG_27
REMARK   14  A    between atoms: SG_27  and  C_30
REMARK                            x       y       z     vdW  Elec       q    Type
REMARK                         _______ _______ _______ _____ _____    ______ ____
ROOT
ATOM      1  CA  UNL     1     -36.816  21.937   2.934  0.00  0.00    +0.160 C 
ENDROOT
BRANCH   1   3
ATOM      2  O   UNL     1     -39.484  21.405   1.973  0.00  0.00    -0.275 OA
ATOM      3  N   UNL     1     -37.869  22.901   2.713  0.00  0.00    -0.298 N 
ATOM      4  C   UNL     1     -39.127  22.547   2.246  0.00  0.00    +0.223 C 
ATOM      5  H   UNL     1     -37.686  23.850   2.902  0.00  0.00    +0.150 HD
BRANCH   4   6
ATOM      6  C   UNL     1     -40.029  23.760   2.099  0.00  0.00    +0.083 C 
BRANCH   6   7
ATOM      7  C   UNL     1     -39.560  24.943   2.948  0.00  0.00    -0.001 C 
BRANCH   7   8
ATOM      8  CA  UNL     1     -39.237  26.187   2.111  0.00  0.00    +0.036 C 
BRANCH   8   9
ATOM      9  N   UNL     1     -39.685  25.979   0.733  0.00  0.00    +0.389 N 
ATOM     10  H1  UNL     1     -39.673  26.869   0.234  0.00  0.00    -0.088 HD
ATOM     11  H2  UNL     1     -40.633  25.604   0.736  0.00  0.00    -0.088 HD
ATOM     12  H3  UNL     1     -39.061  25.321   0.268  0.00  0.00    -0.088 HD
ENDBRANCH   8   9
BRANCH   8  14
ATOM     13  OXT UNL     1     -36.878  25.599   2.272  0.00  0.00    -0.253 OA
ATOM     14  C   UNL     1     -37.741  26.438   2.049  0.00  0.00    +0.293 C 
BRANCH  14  15
ATOM     15  O   UNL     1     -37.448  27.728   1.741  0.00  0.00    -0.482 OA
ATOM     16  H   UNL     1     -37.376  27.991   0.845  0.00  0.00    +0.295 HD
ENDBRANCH  14  15
ENDBRANCH   8  14
ENDBRANCH   7   8
ENDBRANCH   6   7
ENDBRANCH   4   6
ENDBRANCH   1   3
BRANCH   1  19
ATOM     17  O   UNL     1     -35.184  21.643   4.707  0.00  0.00    -0.273 OA
ATOM     18  N   UNL     1     -36.253  23.693   4.504  0.00  0.00    -0.294 N 
ATOM     19  C   ACE A   1     -35.982  22.382   4.134  0.00  0.00    +0.242 C 
ATOM     20  H   UNL     1     -36.911  24.204   3.981  0.00  0.00    +0.150 HD
BRANCH  18  21
ATOM     21  CA  UNL     1     -35.609  24.334   5.625  0.00  0.00    +0.200 C 
BRANCH  21  23
ATOM     22  OXT UNL     1     -34.553  26.497   5.606  0.00  0.00    -0.248 OA
ATOM     23  C   UNL     1     -35.579  25.836   5.506  0.00  0.00    +0.334 C 
BRANCH  23  24
ATOM     24  O   UNL     1     -36.795  26.384   5.278  0.00  0.00    -0.479 OA
ATOM     25  H   UNL     1     -36.884  27.314   5.205  0.00  0.00    +0.295 HD
ENDBRANCH  23  24
ENDBRANCH  21  23
ENDBRANCH  18  21
ENDBRANCH   1  19
BRANCH   1  26
ATOM     26  CB  UNL     1     -35.983  21.686   1.675  0.00  0.00    +0.092 C 
BRANCH  26  27
ATOM     27  SG  UNL     1     -35.766  19.921   1.276  0.00  0.00    -0.099 S 
BRANCH  27  30
ATOM     28 CL   UNL     1     -33.150  18.568   1.522  0.00  0.00    -0.075 Cl
ATOM     29 CL   UNL     1     -31.857  21.020  -0.210  0.00  0.00    -0.080 Cl
ATOM     30  C   UNL     1     -34.065  19.918   0.937  0.00  0.00    +0.094 C 
ATOM     31  C   UNL     1     -33.513  20.905   0.223  0.00  0.00    +0.086 C 
ENDBRANCH  27  30
ENDBRANCH  26  27
ENDBRANCH   1  26
TORSDOF 14
ENDMDL
MODEL 6
REMARK VINA RESULT:      -5.2      3.432      6.432
REMARK  Name = 53939867
REMARK  14 active torsions:
REMARK  status: ('A' for Active; 'I' for Inactive)
REMARK    1  A    between atoms: CA_1  and  N_3
REMARK    2  A    between atoms: CA_1  and  C_19
REMARK    3  A    between atoms: CA_1  and  CB_26
REMARK    4  A    between atoms: C_4  and  C_6
REMARK    5  A    between atoms: C_6  and  C_7
REMARK    6  A    between atoms: C_7  and  CA_8
REMARK    7  A    between atoms: CA_8  and  N_9
REMARK    8  A    between atoms: CA_8  and  C_14
REMARK    9  A    between atoms: C_14  and  O_15
REMARK   10  A    between atoms: N_18  and  CA_21
REMARK   11  A    between atoms: CA_21  and  C_23
REMARK   12  A    between atoms: C_23  and  O_24
REMARK   13  A    between atoms: CB_26  and  SG_27
REMARK   14  A    between atoms: SG_27  and  C_30
REMARK                            x       y       z     vdW  Elec       q    Type
REMARK                         _______ _______ _______ _____ _____    ______ ____
ROOT
ATOM      1  CA  UNL     1     -37.651  22.296   2.243  0.00  0.00    +0.160 C 
ENDROOT
BRANCH   1   3
ATOM      2  O   UNL     1     -34.886  23.034   2.614  0.00  0.00    -0.275 OA
ATOM      3  N   UNL     1     -36.960  22.480   3.499  0.00  0.00    -0.298 N 
ATOM      4  C   UNL     1     -35.622  22.838   3.576  0.00  0.00    +0.223 C 
ATOM      5  H   UNL     1     -37.462  22.346   4.336  0.00  0.00    +0.150 HD
BRANCH   4   6
ATOM      6  C   UNL     1     -35.157  22.951   5.018  0.00  0.00    +0.083 C 
BRANCH   6   7
ATOM      7  C   UNL     1     -35.504  24.306   5.638  0.00  0.00    -0.001 C 
BRANCH   7   8
ATOM      8  CA  UNL     1     -34.742  25.469   4.994  0.00  0.00    +0.036 C 
BRANCH   8   9
ATOM      9  N   UNL     1     -34.164  26.316   6.040  0.00  0.00    +0.389 N 
ATOM     10  H1  UNL     1     -34.701  27.180   6.113  0.00  0.00    -0.088 HD
ATOM     11  H2  UNL     1     -33.197  26.535   5.804  0.00  0.00    -0.088 HD
ATOM     12  H3  UNL     1     -34.193  25.822   6.931  0.00  0.00    -0.088 HD
ENDBRANCH   8   9
BRANCH   8  14
ATOM     13  OXT UNL     1     -35.308  27.251   3.431  0.00  0.00    -0.253 OA
ATOM     14  C   UNL     1     -35.670  26.354   4.181  0.00  0.00    +0.293 C 
BRANCH  14  15
ATOM     15  O   UNL     1     -36.979  26.062   4.397  0.00  0.00    -0.482 OA
ATOM     16  H   UNL     1     -37.350  25.279   4.041  0.00  0.00    +0.295 HD
ENDBRANCH  14  15
ENDBRANCH   8  14
ENDBRANCH   7   8
ENDBRANCH   6   7
ENDBRANCH   4   6
ENDBRANCH   1   3
BRANCH   1  19
ATOM     17  O   UNL     1     -40.045  22.343   1.851  0.00  0.00    -0.273 OA
ATOM     18  N   UNL     1     -39.086  24.048   3.099  0.00  0.00    -0.294 N 
ATOM     19  C   ACE A   1     -39.061  22.869   2.367  0.00  0.00    +0.242 C 
ATOM     20  H   UNL     1     -38.243  24.390   3.472  0.00  0.00    +0.150 HD
BRANCH  18  21
ATOM     21  CA  UNL     1     -40.301  24.793   3.333  0.00  0.00    +0.200 C 
BRANCH  21  23
ATOM     22  OXT UNL     1     -39.305  26.750   2.347  0.00  0.00    -0.248 OA
ATOM     23  C   UNL     1     -40.134  26.275   3.113  0.00  0.00    +0.334 C 
BRANCH  23  24
ATOM     24  O   UNL     1     -40.987  27.029   3.842  0.00  0.00    -0.479 OA
ATOM     25  H   UNL     1     -41.714  27.450   3.426  0.00  0.00    +0.295 HD
ENDBRANCH  23  24
ENDBRANCH  21  23
ENDBRANCH  18  21
ENDBRANCH   1  19
BRANCH   1  26
ATOM     26  CB  UNL     1     -37.625  20.840   1.773  0.00  0.00    +0.092 C 
BRANCH  26  27
ATOM     27  SG  UNL     1     -37.284  20.647  -0.006  0.00  0.00    -0.099 S 
BRANCH  27  30
ATOM     28 CL   UNL     1     -34.724  20.120  -1.387  0.00  0.00    -0.075 Cl
ATOM     29 CL   UNL     1     -33.505  19.175   1.495  0.00  0.00    -0.080 Cl
ATOM     30  C   UNL     1     -35.641  20.098   0.083  0.00  0.00    +0.094 C 
ATOM     31  C   UNL     1     -35.116  19.714   1.251  0.00  0.00    +0.086 C 
ENDBRANCH  27  30
ENDBRANCH  26  27
ENDBRANCH   1  26
TORSDOF 14
ENDMDL
MODEL 7
REMARK VINA RESULT:      -5.1      3.921      6.190
REMARK  Name = 53939867
REMARK  14 active torsions:
REMARK  status: ('A' for Active; 'I' for Inactive)
REMARK    1  A    between atoms: CA_1  and  N_3
REMARK    2  A    between atoms: CA_1  and  C_19
REMARK    3  A    between atoms: CA_1  and  CB_26
REMARK    4  A    between atoms: C_4  and  C_6
REMARK    5  A    between atoms: C_6  and  C_7
REMARK    6  A    between atoms: C_7  and  CA_8
REMARK    7  A    between atoms: CA_8  and  N_9
REMARK    8  A    between atoms: CA_8  and  C_14
REMARK    9  A    between atoms: C_14  and  O_15
REMARK   10  A    between atoms: N_18  and  CA_21
REMARK   11  A    between atoms: CA_21  and  C_23
REMARK   12  A    between atoms: C_23  and  O_24
REMARK   13  A    between atoms: CB_26  and  SG_27
REMARK   14  A    between atoms: SG_27  and  C_30
REMARK                            x       y       z     vdW  Elec       q    Type
REMARK                         _______ _______ _______ _____ _____    ______ ____
ROOT
ATOM      1  CA  UNL     1     -36.212  20.997   2.654  0.00  0.00    +0.160 C 
ENDROOT
BRANCH   1   3
ATOM      2  O   UNL     1     -35.054  20.694   5.279  0.00  0.00    -0.275 OA
ATOM      3  N   UNL     1     -36.044  22.026   3.655  0.00  0.00    -0.298 N 
ATOM      4  C   UNL     1     -35.473  21.782   4.895  0.00  0.00    +0.223 C 
ATOM      5  H   UNL     1     -36.348  22.939   3.447  0.00  0.00    +0.150 HD
BRANCH   4   6
ATOM      6  C   UNL     1     -35.432  23.039   5.747  0.00  0.00    +0.083 C 
BRANCH   6   7
ATOM      7  C   UNL     1     -35.742  24.301   4.941  0.00  0.00    -0.001 C 
BRANCH   7   8
ATOM      8  CA  UNL     1     -35.431  25.591   5.709  0.00  0.00    +0.036 C 
BRANCH   8   9
ATOM      9  N   UNL     1     -36.357  26.646   5.290  0.00  0.00    +0.389 N 
ATOM     10  H1  UNL     1     -37.224  26.568   5.823  0.00  0.00    -0.088 HD
ATOM     11  H2  UNL     1     -36.559  26.546   4.296  0.00  0.00    -0.088 HD
ATOM     12  H3  UNL     1     -35.934  27.557   5.462  0.00  0.00    -0.088 HD
ENDBRANCH   8   9
BRANCH   8  14
ATOM     13  OXT UNL     1     -33.505  27.069   5.923  0.00  0.00    -0.253 OA
ATOM     14  C   UNL     1     -34.032  26.093   5.402  0.00  0.00    +0.293 C 
BRANCH  14  15
ATOM     15  O   UNL     1     -33.416  25.350   4.447  0.00  0.00    -0.482 OA
ATOM     16  H   UNL     1     -33.281  24.432   4.582  0.00  0.00    +0.295 HD
ENDBRANCH  14  15
ENDBRANCH   8  14
ENDBRANCH   7   8
ENDBRANCH   6   7
ENDBRANCH   4   6
ENDBRANCH   1   3
BRANCH   1  19
ATOM     17  O   UNL     1     -34.496  21.894   1.190  0.00  0.00    -0.273 OA
ATOM     18  N   UNL     1     -34.397  19.653   1.782  0.00  0.00    -0.294 N 
ATOM     19  C   ACE A   1     -34.947  20.927   1.801  0.00  0.00    +0.242 C 
ATOM     20  H   UNL     1     -34.833  18.942   2.304  0.00  0.00    +0.150 HD
BRANCH  18  21
ATOM     21  CA  UNL     1     -33.211  19.328   1.024  0.00  0.00    +0.200 C 
BRANCH  21  23
ATOM     22  OXT UNL     1     -31.759  17.481   1.547  0.00  0.00    -0.248 OA
ATOM     23  C   UNL     1     -32.837  17.871   1.115  0.00  0.00    +0.334 C 
BRANCH  23  24
ATOM     24  O   UNL     1     -33.805  17.036   0.673  0.00  0.00    -0.479 OA
ATOM     25  H   UNL     1     -33.710  16.602  -0.153  0.00  0.00    +0.295 HD
ENDBRANCH  23  24
ENDBRANCH  21  23
ENDBRANCH  18  21
ENDBRANCH   1  19
BRANCH   1  26
ATOM     26  CB  UNL     1     -37.489  21.188   1.832  0.00  0.00    +0.092 C 
BRANCH  26  27
ATOM     27  SG  UNL     1     -38.448  22.667   2.296  0.00  0.00    -0.099 S 
BRANCH  27  30
ATOM     28 CL   UNL     1     -40.158  21.135   0.435  0.00  0.00    -0.075 Cl
ATOM     29 CL   UNL     1     -41.192  23.991  -0.772  0.00  0.00    -0.080 Cl
ATOM     30  C   UNL     1     -39.596  22.675   0.996  0.00  0.00    +0.094 C 
ATOM     31  C   UNL     1     -40.041  23.830   0.491  0.00  0.00    +0.086 C 
ENDBRANCH  27  30
ENDBRANCH  26  27
ENDBRANCH   1  26
TORSDOF 14
ENDMDL
MODEL 8
REMARK VINA RESULT:      -5.1      2.212      4.505
REMARK  Name = 53939867
REMARK  14 active torsions:
REMARK  status: ('A' for Active; 'I' for Inactive)
REMARK    1  A    between atoms: CA_1  and  N_3
REMARK    2  A    between atoms: CA_1  and  C_19
REMARK    3  A    between atoms: CA_1  and  CB_26
REMARK    4  A    between atoms: C_4  and  C_6
REMARK    5  A    between atoms: C_6  and  C_7
REMARK    6  A    between atoms: C_7  and  CA_8
REMARK    7  A    between atoms: CA_8  and  N_9
REMARK    8  A    between atoms: CA_8  and  C_14
REMARK    9  A    between atoms: C_14  and  O_15
REMARK   10  A    between atoms: N_18  and  CA_21
REMARK   11  A    between atoms: CA_21  and  C_23
REMARK   12  A    between atoms: C_23  and  O_24
REMARK   13  A    between atoms: CB_26  and  SG_27
REMARK   14  A    between atoms: SG_27  and  C_30
REMARK                            x       y       z     vdW  Elec       q    Type
REMARK                         _______ _______ _______ _____ _____    ______ ____
ROOT
ATOM      1  CA  UNL     1     -37.297  26.227   2.932  0.00  0.00    +0.160 C 
ENDROOT
BRANCH   1   3
ATOM      2  O   UNL     1     -35.144  27.106   4.640  0.00  0.00    -0.275 OA
ATOM      3  N   UNL     1     -36.686  25.487   4.012  0.00  0.00    -0.298 N 
ATOM      4  C   UNL     1     -35.651  25.997   4.782  0.00  0.00    +0.223 C 
ATOM      5  H   UNL     1     -37.020  24.582   4.212  0.00  0.00    +0.150 HD
BRANCH   4   6
ATOM      6  C   UNL     1     -35.198  25.003   5.838  0.00  0.00    +0.083 C 
BRANCH   6   7
ATOM      7  C   UNL     1     -34.549  23.759   5.227  0.00  0.00    -0.001 C 
BRANCH   7   8
ATOM      8  CA  UNL     1     -35.460  22.527   5.274  0.00  0.00    +0.036 C 
BRANCH   8   9
ATOM      9  N   UNL     1     -34.779  21.441   5.982  0.00  0.00    +0.389 N 
ATOM     10  H1  UNL     1     -34.259  21.824   6.772  0.00  0.00    -0.088 HD
ATOM     11  H2  UNL     1     -34.135  20.972   5.346  0.00  0.00    -0.088 HD
ATOM     12  H3  UNL     1     -35.469  20.772   6.322  0.00  0.00    -0.088 HD
ENDBRANCH   8   9
BRANCH   8  14
ATOM     13  OXT UNL     1     -36.113  22.710   2.934  0.00  0.00    -0.253 OA
ATOM     14  C   UNL     1     -35.766  22.014   3.879  0.00  0.00    +0.293 C 
BRANCH  14  15
ATOM     15  O   UNL     1     -35.642  20.664   3.789  0.00  0.00    -0.482 OA
ATOM     16  H   UNL     1     -35.083  20.204   4.383  0.00  0.00    +0.295 HD
ENDBRANCH  14  15
ENDBRANCH   8  14
ENDBRANCH   7   8
ENDBRANCH   6   7
ENDBRANCH   4   6
ENDBRANCH   1   3
BRANCH   1  19
ATOM     17  O   UNL     1     -39.702  26.351   2.636  0.00  0.00    -0.273 OA
ATOM     18  N   UNL     1     -38.668  24.279   2.496  0.00  0.00    -0.294 N 
ATOM     19  C   ACE A   1     -38.689  25.657   2.668  0.00  0.00    +0.242 C 
ATOM     20  H   UNL     1     -37.804  23.811   2.540  0.00  0.00    +0.150 HD
BRANCH  18  21
ATOM     21  CA  UNL     1     -39.864  23.506   2.258  0.00  0.00    +0.200 C 
BRANCH  21  23
ATOM     22  OXT UNL     1     -40.375  21.157   2.141  0.00  0.00    -0.248 OA
ATOM     23  C   UNL     1     -39.577  22.062   1.937  0.00  0.00    +0.334 C 
BRANCH  23  24
ATOM     24  O   UNL     1     -38.351  21.862   1.400  0.00  0.00    -0.479 OA
ATOM     25  H   UNL     1     -38.214  21.163   0.790  0.00  0.00    +0.295 HD
ENDBRANCH  23  24
ENDBRANCH  21  23
ENDBRANCH  18  21
ENDBRANCH   1  19
BRANCH   1  26
ATOM     26  CB  UNL     1     -36.412  26.271   1.684  0.00  0.00    +0.092 C 
BRANCH  26  27
ATOM     27  SG  UNL     1     -36.544  27.825   0.743  0.00  0.00    -0.099 S 
BRANCH  27  30
ATOM     28 CL   UNL     1     -35.697  30.205   2.279  0.00  0.00    -0.075 Cl
ATOM     29 CL   UNL     1     -32.657  29.004   2.227  0.00  0.00    -0.080 Cl
ATOM     30  C   UNL     1     -35.264  28.719   1.499  0.00  0.00    +0.094 C 
ATOM     31  C   UNL     1     -34.014  28.245   1.499  0.00  0.00    +0.086 C 
ENDBRANCH  27  30
ENDBRANCH  26  27
ENDBRANCH   1  26
TORSDOF 14
ENDMDL
MODEL 9
REMARK VINA RESULT:      -5.1      4.851      6.705
REMARK  Name = 53939867
REMARK  14 active torsions:
REMARK  status: ('A' for Active; 'I' for Inactive)
REMARK    1  A    between atoms: CA_1  and  N_3
REMARK    2  A    between atoms: CA_1  and  C_19
REMARK    3  A    between atoms: CA_1  and  CB_26
REMARK    4  A    between atoms: C_4  and  C_6
REMARK    5  A    between atoms: C_6  and  C_7
REMARK    6  A    between atoms: C_7  and  CA_8
REMARK    7  A    between atoms: CA_8  and  N_9
REMARK    8  A    between atoms: CA_8  and  C_14
REMARK    9  A    between atoms: C_14  and  O_15
REMARK   10  A    between atoms: N_18  and  CA_21
REMARK   11  A    between atoms: CA_21  and  C_23
REMARK   12  A    between atoms: C_23  and  O_24
REMARK   13  A    between atoms: CB_26  and  SG_27
REMARK   14  A    between atoms: SG_27  and  C_30
REMARK                            x       y       z     vdW  Elec       q    Type
REMARK                         _______ _______ _______ _____ _____    ______ ____
ROOT
ATOM      1  CA  UNL     1     -32.405  27.984   4.579  0.00  0.00    +0.160 C 
ENDROOT
BRANCH   1   3
ATOM      2  O   UNL     1     -33.252  25.226   4.566  0.00  0.00    -0.275 OA
ATOM      3  N   UNL     1     -33.653  27.456   5.078  0.00  0.00    -0.298 N 
ATOM      4  C   UNL     1     -33.972  26.106   5.028  0.00  0.00    +0.223 C 
ATOM      5  H   UNL     1     -34.305  28.080   5.471  0.00  0.00    +0.150 HD
BRANCH   4   6
ATOM      6  C   UNL     1     -35.348  25.836   5.613  0.00  0.00    +0.083 C 
BRANCH   6   7
ATOM      7  C   UNL     1     -35.826  24.408   5.343  0.00  0.00    -0.001 C 
BRANCH   7   8
ATOM      8  CA  UNL     1     -36.535  24.262   3.992  0.00  0.00    +0.036 C 
BRANCH   8   9
ATOM      9  N   UNL     1     -37.927  24.700   4.120  0.00  0.00    +0.389 N 
ATOM     10  H1  UNL     1     -38.050  25.587   3.632  0.00  0.00    -0.088 HD
ATOM     11  H2  UNL     1     -38.157  24.819   5.106  0.00  0.00    -0.088 HD
ATOM     12  H3  UNL     1     -38.543  23.999   3.709  0.00  0.00    -0.088 HD
ENDBRANCH   8   9
BRANCH   8  14
ATOM     13  OXT UNL     1     -35.610  22.058   3.515  0.00  0.00    -0.253 OA
ATOM     14  C   UNL     1     -36.575  22.812   3.543  0.00  0.00    +0.293 C 
BRANCH  14  15
ATOM     15  O   UNL     1     -37.814  22.432   3.137  0.00  0.00    -0.482 OA
ATOM     16  H   UNL     1     -38.542  22.503   3.724  0.00  0.00    +0.295 HD
ENDBRANCH  14  15
ENDBRANCH   8  14
ENDBRANCH   7   8
ENDBRANCH   6   7
ENDBRANCH   4   6
ENDBRANCH   1   3
BRANCH   1  19
ATOM     17  O   UNL     1     -32.081  28.784   6.847  0.00  0.00    -0.273 OA
ATOM     18  N   UNL     1     -30.245  28.669   5.433  0.00  0.00    -0.294 N 
ATOM     19  C   ACE A   1     -31.587  28.513   5.755  0.00  0.00    +0.242 C 
ATOM     20  H   UNL     1     -29.945  28.424   4.529  0.00  0.00    +0.150 HD
BRANCH  18  21
ATOM     21  CA  UNL     1     -29.273  29.179   6.372  0.00  0.00    +0.200 C 
BRANCH  21  23
ATOM     22  OXT UNL     1     -28.483  26.934   6.733  0.00  0.00    -0.248 OA
ATOM     23  C   UNL     1     -28.564  28.088   7.133  0.00  0.00    +0.334 C 
BRANCH  23  24
ATOM     24  O   UNL     1     -28.024  28.508   8.300  0.00  0.00    -0.479 OA
ATOM     25  H   UNL     1     -27.127  28.779   8.333  0.00  0.00    +0.295 HD
ENDBRANCH  23  24
ENDBRANCH  21  23
ENDBRANCH  18  21
ENDBRANCH   1  19
BRANCH   1  26
ATOM     26  CB  UNL     1     -32.613  29.019   3.470  0.00  0.00    +0.092 C 
BRANCH  26  27
ATOM     27  SG  UNL     1     -32.674  30.738   4.071  0.00  0.00    -0.099 S 
BRANCH  27  30
ATOM     28 CL   UNL     1     -33.601  32.795   2.160  0.00  0.00    -0.075 Cl
ATOM     29 CL   UNL     1     -36.421  31.155   1.953  0.00  0.00    -0.080 Cl
ATOM     30  C   UNL     1     -33.937  31.346   3.049  0.00  0.00    +0.094 C 
ATOM     31  C   UNL     1     -35.097  30.689   2.940  0.00  0.00    +0.086 C 
ENDBRANCH  27  30
ENDBRANCH  26  27
ENDBRANCH   1  26
TORSDOF 14
ENDMDL
