MODEL 1
REMARK VINA RESULT:      -5.7      0.000      0.000
REMARK  Name = 5311241
REMARK  14 active torsions:
REMARK  status: ('A' for Active; 'I' for Inactive)
REMARK    1  A    between atoms: C_1  and  C_25
REMARK    2  A    between atoms: C_2  and  C_10
REMARK    3  A    between atoms: C_3  and  O_6
REMARK    4  A    between atoms: C_4  and  O_8
REMARK    5  A    between atoms: C_11  and  C_14
REMARK    6  A    between atoms: C_14  and  C_17
REMARK    7  A    between atoms: C_17  and  O_18
REMARK    8  A    between atoms: O_18  and  C_19
REMARK    9  A    between atoms: C_25  and  C_26
REMARK   10  A    between atoms: C_27  and  C_28
REMARK   11  A    between atoms: C_28  and  C_29
REMARK   12  A    between atoms: C_29  and  C_30
REMARK   13  A    between atoms: C_30  and  C_32
REMARK   14  A    between atoms: C_32  and  O_33
REMARK                            x       y       z     vdW  Elec       q    Type
REMARK                         _______ _______ _______ _____ _____    ______ ____
ROOT
ATOM      1  C   UNL     1     -37.010  22.299   2.055  0.00  0.00    +0.038 C 
ATOM      2  C   UNL     1     -38.488  22.450   2.453  0.00  0.00    +0.051 C 
ATOM      3  C   UNL     1     -36.946  20.842   1.588  0.00  0.00    +0.114 C 
ATOM      4  C   UNL     1     -39.243  21.645   1.381  0.00  0.00    +0.117 C 
ATOM      5  C   UNL     1     -38.222  20.676   0.763  0.00  0.00    +0.059 C 
ENDROOT
BRANCH   3   6
ATOM      6  O   UNL     1     -36.937  19.920   2.673  0.00  0.00    -0.384 OA
ATOM      7  H   UNL     1     -36.543  19.083   2.381  0.00  0.00    +0.210 HD
ENDBRANCH   3   6
BRANCH   4   8
ATOM      8  O   UNL     1     -40.302  20.907   1.979  0.00  0.00    -0.384 OA
ATOM      9  H   UNL     1     -40.720  21.443   2.670  0.00  0.00    +0.210 HD
ENDBRANCH   4   8
BRANCH   2  10
ATOM     10  C   UNL     1     -38.947  23.873   2.518  0.00  0.00    -0.024 C 
ATOM     11  C   UNL     1     -39.874  24.397   1.703  0.00  0.00    +0.028 C 
BRANCH  11  14
ATOM     12  O   UNL     1     -41.713  25.889   1.372  0.00  0.00    -0.325 OA
ATOM     13  O   UNL     1     -40.196  26.291   3.118  0.00  0.00    -0.325 OA
ATOM     14  C   UNL     1     -40.334  25.818   1.769  0.00  0.00    +0.249 C 
ATOM     15  C   UNL     1     -42.430  26.130   2.583  0.00  0.00    +0.177 C 
ATOM     16  C   UNL     1     -41.450  26.904   3.420  0.00  0.00    +0.177 C 
BRANCH  14  17
ATOM     17  C   UNL     1     -39.512  26.702   0.838  0.00  0.00    +0.266 C 
BRANCH  17  18
ATOM     18  O   UNL     1     -38.457  27.283   1.584  0.00  0.00    -0.470 OA
BRANCH  18  19
ATOM     19  C   UNL     1     -37.184  27.106   1.102  0.00  0.00    +0.139 C 
ATOM     20  C   UNL     1     -36.177  28.011   1.440  0.00  0.00    +0.037 C 
ATOM     21  C   UNL     1     -36.896  26.021   0.273  0.00  0.00    +0.037 C 
ATOM     22  C   UNL     1     -34.884  27.832   0.950  0.00  0.00    +0.003 C 
ATOM     23  C   UNL     1     -35.602  25.842  -0.217  0.00  0.00    +0.003 C 
ATOM     24  C   UNL     1     -34.597  26.747   0.121  0.00  0.00    +0.000 C 
ENDBRANCH  18  19
ENDBRANCH  17  18
ENDBRANCH  14  17
ENDBRANCH  11  14
ENDBRANCH   2  10
BRANCH   1  25
ATOM     25  C   UNL     1     -36.042  22.618   3.186  0.00  0.00    +0.028 C 
BRANCH  25  26
ATOM     26  C   UNL     1     -34.997  23.665   2.910  0.00  0.00    -0.031 C 
ATOM     27  C   UNL     1     -34.990  24.936   3.336  0.00  0.00    -0.031 C 
BRANCH  27  28
ATOM     28  C   UNL     1     -36.071  25.532   4.192  0.00  0.00    +0.026 C 
BRANCH  28  29
ATOM     29  C   UNL     1     -35.616  25.859   5.620  0.00  0.00    +0.016 C 
BRANCH  29  30
ATOM     30  C   UNL     1     -34.123  25.623   5.868  0.00  0.00    +0.110 C 
BRANCH  30  32
ATOM     31  O   UNL     1     -33.150  27.724   5.113  0.00  0.00    -0.250 OA
ATOM     32  C   UNL     1     -33.318  26.897   5.999  0.00  0.00    +0.314 C 
BRANCH  32  33
ATOM     33  O   UNL     1     -32.750  27.008   7.229  0.00  0.00    -0.480 OA
ATOM     34  H   UNL     1     -32.205  26.320   7.557  0.00  0.00    +0.295 HD
ENDBRANCH  32  33
ENDBRANCH  30  32
ENDBRANCH  29  30
ENDBRANCH  28  29
ENDBRANCH  27  28
ENDBRANCH  25  26
ENDBRANCH   1  25
TORSDOF 14
ENDMDL
MODEL 2
REMARK VINA RESULT:      -5.6      1.168      1.453
REMARK  Name = 5311241
REMARK  14 active torsions:
REMARK  status: ('A' for Active; 'I' for Inactive)
REMARK    1  A    between atoms: C_1  and  C_25
REMARK    2  A    between atoms: C_2  and  C_10
REMARK    3  A    between atoms: C_3  and  O_6
REMARK    4  A    between atoms: C_4  and  O_8
REMARK    5  A    between atoms: C_11  and  C_14
REMARK    6  A    between atoms: C_14  and  C_17
REMARK    7  A    between atoms: C_17  and  O_18
REMARK    8  A    between atoms: O_18  and  C_19
REMARK    9  A    between atoms: C_25  and  C_26
REMARK   10  A    between atoms: C_27  and  C_28
REMARK   11  A    between atoms: C_28  and  C_29
REMARK   12  A    between atoms: C_29  and  C_30
REMARK   13  A    between atoms: C_30  and  C_32
REMARK   14  A    between atoms: C_32  and  O_33
REMARK                            x       y       z     vdW  Elec       q    Type
REMARK                         _______ _______ _______ _____ _____    ______ ____
ROOT
ATOM      1  C   UNL     1     -36.697  21.854   1.574  0.00  0.00    +0.038 C 
ATOM      2  C   UNL     1     -38.033  22.064   2.305  0.00  0.00    +0.051 C 
ATOM      3  C   UNL     1     -36.893  20.481   0.925  0.00  0.00    +0.114 C 
ATOM      4  C   UNL     1     -39.079  21.489   1.333  0.00  0.00    +0.117 C 
ATOM      5  C   UNL     1     -38.323  20.542   0.388  0.00  0.00    +0.059 C 
ENDROOT
BRANCH   3   6
ATOM      6  O   UNL     1     -36.761  19.412   1.855  0.00  0.00    -0.384 OA
ATOM      7  H   UNL     1     -37.000  19.725   2.741  0.00  0.00    +0.210 HD
ENDBRANCH   3   6
BRANCH   4   8
ATOM      8  O   UNL     1     -40.066  20.760   2.052  0.00  0.00    -0.384 OA
ATOM      9  H   UNL     1     -40.230  19.914   1.609  0.00  0.00    +0.210 HD
ENDBRANCH   4   8
BRANCH   2  10
ATOM     10  C   UNL     1     -38.308  23.495   2.649  0.00  0.00    -0.024 C 
ATOM     11  C   UNL     1     -39.354  24.188   2.179  0.00  0.00    +0.028 C 
BRANCH  11  14
ATOM     12  O   UNL     1     -40.119  26.300   1.358  0.00  0.00    -0.325 OA
ATOM     13  O   UNL     1     -40.622  25.663   3.560  0.00  0.00    -0.325 OA
ATOM     14  C   UNL     1     -39.630  25.616   2.523  0.00  0.00    +0.249 C 
ATOM     15  C   UNL     1     -41.511  26.498   1.607  0.00  0.00    +0.177 C 
ATOM     16  C   UNL     1     -41.584  26.615   3.104  0.00  0.00    +0.177 C 
BRANCH  14  17
ATOM     17  C   UNL     1     -38.365  26.317   3.005  0.00  0.00    +0.266 C 
BRANCH  17  18
ATOM     18  O   UNL     1     -37.818  27.052   1.924  0.00  0.00    -0.470 OA
BRANCH  18  19
ATOM     19  C   UNL     1     -36.480  26.881   1.670  0.00  0.00    +0.139 C 
ATOM     20  C   UNL     1     -35.620  27.980   1.687  0.00  0.00    +0.037 C 
ATOM     21  C   UNL     1     -35.979  25.609   1.393  0.00  0.00    +0.037 C 
ATOM     22  C   UNL     1     -34.261  27.807   1.429  0.00  0.00    +0.003 C 
ATOM     23  C   UNL     1     -34.619  25.436   1.134  0.00  0.00    +0.003 C 
ATOM     24  C   UNL     1     -33.761  26.534   1.151  0.00  0.00    +0.000 C 
ENDBRANCH  18  19
ENDBRANCH  17  18
ENDBRANCH  14  17
ENDBRANCH  11  14
ENDBRANCH   2  10
BRANCH   1  25
ATOM     25  C   UNL     1     -35.485  21.924   2.494  0.00  0.00    +0.028 C 
BRANCH  25  26
ATOM     26  C   UNL     1     -35.702  21.546   3.934  0.00  0.00    -0.031 C 
ATOM     27  C   UNL     1     -35.422  22.284   5.018  0.00  0.00    -0.031 C 
BRANCH  27  28
ATOM     28  C   UNL     1     -34.825  23.661   4.954  0.00  0.00    +0.026 C 
BRANCH  28  29
ATOM     29  C   UNL     1     -35.812  24.778   5.317  0.00  0.00    +0.016 C 
BRANCH  29  30
ATOM     30  C   UNL     1     -35.285  26.189   5.037  0.00  0.00    +0.110 C 
BRANCH  30  32
ATOM     31  O   UNL     1     -33.520  26.613   6.660  0.00  0.00    -0.250 OA
ATOM     32  C   UNL     1     -33.863  26.412   5.503  0.00  0.00    +0.314 C 
BRANCH  32  33
ATOM     33  O   UNL     1     -32.987  26.408   4.464  0.00  0.00    -0.480 OA
ATOM     34  H   UNL     1     -32.576  25.608   4.201  0.00  0.00    +0.295 HD
ENDBRANCH  32  33
ENDBRANCH  30  32
ENDBRANCH  29  30
ENDBRANCH  28  29
ENDBRANCH  27  28
ENDBRANCH  25  26
ENDBRANCH   1  25
TORSDOF 14
ENDMDL
MODEL 3
REMARK VINA RESULT:      -5.6      1.684      4.467
REMARK  Name = 5311241
REMARK  14 active torsions:
REMARK  status: ('A' for Active; 'I' for Inactive)
REMARK    1  A    between atoms: C_1  and  C_25
REMARK    2  A    between atoms: C_2  and  C_10
REMARK    3  A    between atoms: C_3  and  O_6
REMARK    4  A    between atoms: C_4  and  O_8
REMARK    5  A    between atoms: C_11  and  C_14
REMARK    6  A    between atoms: C_14  and  C_17
REMARK    7  A    between atoms: C_17  and  O_18
REMARK    8  A    between atoms: O_18  and  C_19
REMARK    9  A    between atoms: C_25  and  C_26
REMARK   10  A    between atoms: C_27  and  C_28
REMARK   11  A    between atoms: C_28  and  C_29
REMARK   12  A    between atoms: C_29  and  C_30
REMARK   13  A    between atoms: C_30  and  C_32
REMARK   14  A    between atoms: C_32  and  O_33
REMARK                            x       y       z     vdW  Elec       q    Type
REMARK                         _______ _______ _______ _____ _____    ______ ____
ROOT
ATOM      1  C   UNL     1     -36.658  22.190   1.925  0.00  0.00    +0.038 C 
ATOM      2  C   UNL     1     -38.082  22.458   2.438  0.00  0.00    +0.051 C 
ATOM      3  C   UNL     1     -36.727  20.712   1.527  0.00  0.00    +0.114 C 
ATOM      4  C   UNL     1     -38.977  21.658   1.474  0.00  0.00    +0.117 C 
ATOM      5  C   UNL     1     -38.078  20.597   0.821  0.00  0.00    +0.059 C 
ENDROOT
BRANCH   3   6
ATOM      6  O   UNL     1     -36.682  19.841   2.651  0.00  0.00    -0.384 OA
ATOM      7  H   UNL     1     -36.977  20.319   3.441  0.00  0.00    +0.210 HD
ENDBRANCH   3   6
BRANCH   4   8
ATOM      8  O   UNL     1     -40.025  21.020   2.194  0.00  0.00    -0.384 OA
ATOM      9  H   UNL     1     -40.875  21.418   1.950  0.00  0.00    +0.210 HD
ENDBRANCH   4   8
BRANCH   2  10
ATOM     10  C   UNL     1     -38.443  23.910   2.470  0.00  0.00    -0.024 C 
ATOM     11  C   UNL     1     -39.530  24.423   1.876  0.00  0.00    +0.028 C 
BRANCH  11  14
ATOM     12  O   UNL     1     -38.691  26.662   1.864  0.00  0.00    -0.325 OA
ATOM     13  O   UNL     1     -40.711  26.176   0.770  0.00  0.00    -0.325 OA
ATOM     14  C   UNL     1     -39.891  25.873   1.910  0.00  0.00    +0.249 C 
ATOM     15  C   UNL     1     -38.668  27.217   0.548  0.00  0.00    +0.177 C 
ATOM     16  C   UNL     1     -40.126  27.347   0.200  0.00  0.00    +0.177 C 
BRANCH  14  17
ATOM     17  C   UNL     1     -40.653  26.218   3.184  0.00  0.00    +0.266 C 
BRANCH  17  18
ATOM     18  O   UNL     1     -42.041  26.119   2.920  0.00  0.00    -0.470 OA
BRANCH  18  19
ATOM     19  C   UNL     1     -42.868  26.973   3.606  0.00  0.00    +0.139 C 
ATOM     20  C   UNL     1     -42.366  28.172   4.115  0.00  0.00    +0.037 C 
ATOM     21  C   UNL     1     -44.210  26.643   3.794  0.00  0.00    +0.037 C 
ATOM     22  C   UNL     1     -43.206  29.040   4.812  0.00  0.00    +0.003 C 
ATOM     23  C   UNL     1     -45.050  27.512   4.492  0.00  0.00    +0.003 C 
ATOM     24  C   UNL     1     -44.548  28.709   5.001  0.00  0.00    +0.000 C 
ENDBRANCH  18  19
ENDBRANCH  17  18
ENDBRANCH  14  17
ENDBRANCH  11  14
ENDBRANCH   2  10
BRANCH   1  25
ATOM     25  C   UNL     1     -35.576  22.493   2.953  0.00  0.00    +0.028 C 
BRANCH  25  26
ATOM     26  C   UNL     1     -35.899  22.184   4.389  0.00  0.00    -0.031 C 
ATOM     27  C   UNL     1     -35.562  22.904   5.469  0.00  0.00    -0.031 C 
BRANCH  27  28
ATOM     28  C   UNL     1     -34.780  24.184   5.404  0.00  0.00    +0.026 C 
BRANCH  28  29
ATOM     29  C   UNL     1     -35.647  25.443   5.537  0.00  0.00    +0.016 C 
BRANCH  29  30
ATOM     30  C   UNL     1     -36.138  26.005   4.199  0.00  0.00    +0.110 C 
BRANCH  30  32
ATOM     31  O   UNL     1     -34.207  27.485   4.108  0.00  0.00    -0.250 OA
ATOM     32  C   UNL     1     -35.302  27.153   3.676  0.00  0.00    +0.314 C 
BRANCH  32  33
ATOM     33  O   UNL     1     -35.935  27.820   2.675  0.00  0.00    -0.480 OA
ATOM     34  H   UNL     1     -35.980  28.755   2.691  0.00  0.00    +0.295 HD
ENDBRANCH  32  33
ENDBRANCH  30  32
ENDBRANCH  29  30
ENDBRANCH  28  29
ENDBRANCH  27  28
ENDBRANCH  25  26
ENDBRANCH   1  25
TORSDOF 14
ENDMDL
MODEL 4
REMARK VINA RESULT:      -5.5      1.624      2.366
REMARK  Name = 5311241
REMARK  14 active torsions:
REMARK  status: ('A' for Active; 'I' for Inactive)
REMARK    1  A    between atoms: C_1  and  C_25
REMARK    2  A    between atoms: C_2  and  C_10
REMARK    3  A    between atoms: C_3  and  O_6
REMARK    4  A    between atoms: C_4  and  O_8
REMARK    5  A    between atoms: C_11  and  C_14
REMARK    6  A    between atoms: C_14  and  C_17
REMARK    7  A    between atoms: C_17  and  O_18
REMARK    8  A    between atoms: O_18  and  C_19
REMARK    9  A    between atoms: C_25  and  C_26
REMARK   10  A    between atoms: C_27  and  C_28
REMARK   11  A    between atoms: C_28  and  C_29
REMARK   12  A    between atoms: C_29  and  C_30
REMARK   13  A    between atoms: C_30  and  C_32
REMARK   14  A    between atoms: C_32  and  O_33
REMARK                            x       y       z     vdW  Elec       q    Type
REMARK                         _______ _______ _______ _____ _____    ______ ____
ROOT
ATOM      1  C   UNL     1     -35.929  23.216   3.692  0.00  0.00    +0.038 C 
ATOM      2  C   UNL     1     -37.386  22.971   3.266  0.00  0.00    +0.051 C 
ATOM      3  C   UNL     1     -35.325  21.811   3.613  0.00  0.00    +0.114 C 
ATOM      4  C   UNL     1     -37.270  21.927   2.141  0.00  0.00    +0.117 C 
ATOM      5  C   UNL     1     -35.902  21.248   2.314  0.00  0.00    +0.059 C 
ENDROOT
BRANCH   3   6
ATOM      6  O   UNL     1     -35.701  20.991   4.714  0.00  0.00    -0.384 OA
ATOM      7  H   UNL     1     -34.905  20.685   5.175  0.00  0.00    +0.210 HD
ENDBRANCH   3   6
BRANCH   4   8
ATOM      8  O   UNL     1     -38.304  20.957   2.264  0.00  0.00    -0.384 OA
ATOM      9  H   UNL     1     -39.165  21.389   2.163  0.00  0.00    +0.210 HD
ENDBRANCH   4   8
BRANCH   2  10
ATOM     10  C   UNL     1     -38.094  24.210   2.814  0.00  0.00    -0.024 C 
ATOM     11  C   UNL     1     -38.180  24.597   1.534  0.00  0.00    +0.028 C 
BRANCH  11  14
ATOM     12  O   UNL     1     -39.818  25.496   0.042  0.00  0.00    -0.325 OA
ATOM     13  O   UNL     1     -39.598  26.397   2.198  0.00  0.00    -0.325 OA
ATOM     14  C   UNL     1     -38.888  25.834   1.084  0.00  0.00    +0.249 C 
ATOM     15  C   UNL     1     -41.105  25.590   0.655  0.00  0.00    +0.177 C 
ATOM     16  C   UNL     1     -40.914  26.650   1.704  0.00  0.00    +0.177 C 
BRANCH  14  17
ATOM     17  C   UNL     1     -37.903  26.863   0.542  0.00  0.00    +0.266 C 
BRANCH  17  18
ATOM     18  O   UNL     1     -37.434  27.650   1.623  0.00  0.00    -0.470 OA
BRANCH  18  19
ATOM     19  C   UNL     1     -36.085  27.623   1.873  0.00  0.00    +0.139 C 
ATOM     20  C   UNL     1     -35.460  28.728   2.453  0.00  0.00    +0.037 C 
ATOM     21  C   UNL     1     -35.338  26.491   1.547  0.00  0.00    +0.037 C 
ATOM     22  C   UNL     1     -34.089  28.700   2.708  0.00  0.00    +0.003 C 
ATOM     23  C   UNL     1     -33.966  26.464   1.801  0.00  0.00    +0.003 C 
ATOM     24  C   UNL     1     -33.342  27.568   2.381  0.00  0.00    +0.000 C 
ENDBRANCH  18  19
ENDBRANCH  17  18
ENDBRANCH  14  17
ENDBRANCH  11  14
ENDBRANCH   2  10
BRANCH   1  25
ATOM     25  C   UNL     1     -35.800  23.857   5.067  0.00  0.00    +0.028 C 
BRANCH  25  26
ATOM     26  C   UNL     1     -36.030  25.341   5.149  0.00  0.00    -0.031 C 
ATOM     27  C   UNL     1     -35.128  26.287   5.449  0.00  0.00    -0.031 C 
BRANCH  27  28
ATOM     28  C   UNL     1     -33.688  25.993   5.760  0.00  0.00    +0.026 C 
BRANCH  28  29
ATOM     29  C   UNL     1     -33.000  27.089   6.585  0.00  0.00    +0.016 C 
BRANCH  29  30
ATOM     30  C   UNL     1     -32.065  27.987   5.770  0.00  0.00    +0.110 C 
BRANCH  30  32
ATOM     31  O   UNL     1     -31.345  29.665   7.381  0.00  0.00    -0.250 OA
ATOM     32  C   UNL     1     -31.914  29.382   6.336  0.00  0.00    +0.314 C 
BRANCH  32  33
ATOM     33  O   UNL     1     -32.531  30.310   5.557  0.00  0.00    -0.480 OA
ATOM     34  H   UNL     1     -32.170  31.171   5.479  0.00  0.00    +0.295 HD
ENDBRANCH  32  33
ENDBRANCH  30  32
ENDBRANCH  29  30
ENDBRANCH  28  29
ENDBRANCH  27  28
ENDBRANCH  25  26
ENDBRANCH   1  25
TORSDOF 14
ENDMDL
MODEL 5
REMARK VINA RESULT:      -5.5      3.253      6.180
REMARK  Name = 5311241
REMARK  14 active torsions:
REMARK  status: ('A' for Active; 'I' for Inactive)
REMARK    1  A    between atoms: C_1  and  C_25
REMARK    2  A    between atoms: C_2  and  C_10
REMARK    3  A    between atoms: C_3  and  O_6
REMARK    4  A    between atoms: C_4  and  O_8
REMARK    5  A    between atoms: C_11  and  C_14
REMARK    6  A    between atoms: C_14  and  C_17
REMARK    7  A    between atoms: C_17  and  O_18
REMARK    8  A    between atoms: O_18  and  C_19
REMARK    9  A    between atoms: C_25  and  C_26
REMARK   10  A    between atoms: C_27  and  C_28
REMARK   11  A    between atoms: C_28  and  C_29
REMARK   12  A    between atoms: C_29  and  C_30
REMARK   13  A    between atoms: C_30  and  C_32
REMARK   14  A    between atoms: C_32  and  O_33
REMARK                            x       y       z     vdW  Elec       q    Type
REMARK                         _______ _______ _______ _____ _____    ______ ____
ROOT
ATOM      1  C   UNL     1     -37.961  24.032   2.134  0.00  0.00    +0.038 C 
ATOM      2  C   UNL     1     -36.771  25.005   2.153  0.00  0.00    +0.051 C 
ATOM      3  C   UNL     1     -39.118  24.921   2.600  0.00  0.00    +0.114 C 
ATOM      4  C   UNL     1     -37.368  26.327   1.637  0.00  0.00    +0.117 C 
ATOM      5  C   UNL     1     -38.888  26.229   1.842  0.00  0.00    +0.059 C 
ENDROOT
BRANCH   3   6
ATOM      6  O   UNL     1     -39.097  25.155   4.003  0.00  0.00    -0.384 OA
ATOM      7  H   UNL     1     -38.204  24.990   4.344  0.00  0.00    +0.210 HD
ENDBRANCH   3   6
BRANCH   4   8
ATOM      8  O   UNL     1     -36.854  27.421   2.387  0.00  0.00    -0.384 OA
ATOM      9  H   UNL     1     -36.364  27.087   3.153  0.00  0.00    +0.210 HD
ENDBRANCH   4   8
BRANCH   2  10
ATOM     10  C   UNL     1     -35.612  24.548   1.324  0.00  0.00    -0.024 C 
ATOM     11  C   UNL     1     -35.721  24.120   0.059  0.00  0.00    +0.028 C 
BRANCH  11  14
ATOM     12  O   UNL     1     -35.046  22.886  -1.876  0.00  0.00    -0.325 OA
ATOM     13  O   UNL     1     -33.860  24.817  -1.262  0.00  0.00    -0.325 OA
ATOM     14  C   UNL     1     -34.562  23.665  -0.769  0.00  0.00    +0.249 C 
ATOM     15  C   UNL     1     -34.881  23.729  -3.016  0.00  0.00    +0.177 C 
ATOM     16  C   UNL     1     -33.688  24.571  -2.658  0.00  0.00    +0.177 C 
BRANCH  14  17
ATOM     17  C   UNL     1     -33.607  22.806   0.051  0.00  0.00    +0.266 C 
BRANCH  17  18
ATOM     18  O   UNL     1     -34.173  21.515   0.195  0.00  0.00    -0.470 OA
BRANCH  18  19
ATOM     19  C   UNL     1     -33.304  20.477   0.423  0.00  0.00    +0.139 C 
ATOM     20  C   UNL     1     -33.715  19.376   1.177  0.00  0.00    +0.037 C 
ATOM     21  C   UNL     1     -32.012  20.521  -0.099  0.00  0.00    +0.037 C 
ATOM     22  C   UNL     1     -32.833  18.321   1.408  0.00  0.00    +0.003 C 
ATOM     23  C   UNL     1     -31.129  19.465   0.133  0.00  0.00    +0.003 C 
ATOM     24  C   UNL     1     -31.539  18.366   0.886  0.00  0.00    +0.000 C 
ENDBRANCH  18  19
ENDBRANCH  17  18
ENDBRANCH  14  17
ENDBRANCH  11  14
ENDBRANCH   2  10
BRANCH   1  25
ATOM     25  C   UNL     1     -37.752  22.801   3.006  0.00  0.00    +0.028 C 
BRANCH  25  26
ATOM     26  C   UNL     1     -36.568  21.932   2.681  0.00  0.00    -0.031 C 
ATOM     27  C   UNL     1     -35.518  21.663   3.471  0.00  0.00    -0.031 C 
BRANCH  27  28
ATOM     28  C   UNL     1     -35.360  22.212   4.860  0.00  0.00    +0.026 C 
BRANCH  28  29
ATOM     29  C   UNL     1     -34.777  23.631   4.899  0.00  0.00    +0.016 C 
BRANCH  29  30
ATOM     30  C   UNL     1     -35.514  24.581   5.846  0.00  0.00    +0.110 C 
BRANCH  30  32
ATOM     31  O   UNL     1     -34.338  26.675   5.445  0.00  0.00    -0.250 OA
ATOM     32  C   UNL     1     -35.383  26.041   5.469  0.00  0.00    +0.314 C 
BRANCH  32  33
ATOM     33  O   UNL     1     -36.591  26.598   5.192  0.00  0.00    -0.480 OA
ATOM     34  H   UNL     1     -37.183  26.805   5.888  0.00  0.00    +0.295 HD
ENDBRANCH  32  33
ENDBRANCH  30  32
ENDBRANCH  29  30
ENDBRANCH  28  29
ENDBRANCH  27  28
ENDBRANCH  25  26
ENDBRANCH   1  25
TORSDOF 14
ENDMDL
MODEL 6
REMARK VINA RESULT:      -5.4      3.307      6.860
REMARK  Name = 5311241
REMARK  14 active torsions:
REMARK  status: ('A' for Active; 'I' for Inactive)
REMARK    1  A    between atoms: C_1  and  C_25
REMARK    2  A    between atoms: C_2  and  C_10
REMARK    3  A    between atoms: C_3  and  O_6
REMARK    4  A    between atoms: C_4  and  O_8
REMARK    5  A    between atoms: C_11  and  C_14
REMARK    6  A    between atoms: C_14  and  C_17
REMARK    7  A    between atoms: C_17  and  O_18
REMARK    8  A    between atoms: O_18  and  C_19
REMARK    9  A    between atoms: C_25  and  C_26
REMARK   10  A    between atoms: C_27  and  C_28
REMARK   11  A    between atoms: C_28  and  C_29
REMARK   12  A    between atoms: C_29  and  C_30
REMARK   13  A    between atoms: C_30  and  C_32
REMARK   14  A    between atoms: C_32  and  O_33
REMARK                            x       y       z     vdW  Elec       q    Type
REMARK                         _______ _______ _______ _____ _____    ______ ____
ROOT
ATOM      1  C   UNL     1     -36.084  20.289   0.556  0.00  0.00    +0.038 C 
ATOM      2  C   UNL     1     -37.105  20.942   1.502  0.00  0.00    +0.051 C 
ATOM      3  C   UNL     1     -36.939  19.256  -0.184  0.00  0.00    +0.114 C 
ATOM      4  C   UNL     1     -38.387  21.035   0.654  0.00  0.00    +0.117 C 
ATOM      5  C   UNL     1     -38.233  20.013  -0.483  0.00  0.00    +0.059 C 
ENDROOT
BRANCH   3   6
ATOM      6  O   UNL     1     -37.213  18.106   0.609  0.00  0.00    -0.384 OA
ATOM      7  H   UNL     1     -37.086  17.307   0.073  0.00  0.00    +0.210 HD
ENDBRANCH   3   6
BRANCH   4   8
ATOM      8  O   UNL     1     -39.522  20.703   1.445  0.00  0.00    -0.384 OA
ATOM      9  H   UNL     1     -39.698  21.419   2.075  0.00  0.00    +0.210 HD
ENDBRANCH   4   8
BRANCH   2  10
ATOM     10  C   UNL     1     -36.673  22.279   2.019  0.00  0.00    -0.024 C 
ATOM     11  C   UNL     1     -36.957  22.732   3.248  0.00  0.00    +0.028 C 
BRANCH  11  14
ATOM     12  O   UNL     1     -36.307  23.979   5.183  0.00  0.00    -0.325 OA
ATOM     13  O   UNL     1     -35.299  24.443   3.114  0.00  0.00    -0.325 OA
ATOM     14  C   UNL     1     -36.523  24.066   3.765  0.00  0.00    +0.249 C 
ATOM     15  C   UNL     1     -34.889  24.020   5.340  0.00  0.00    +0.177 C 
ATOM     16  C   UNL     1     -34.433  24.852   4.173  0.00  0.00    +0.177 C 
BRANCH  14  17
ATOM     17  C   UNL     1     -37.584  25.127   3.497  0.00  0.00    +0.266 C 
BRANCH  17  18
ATOM     18  O   UNL     1     -38.853  24.585   3.813  0.00  0.00    -0.470 OA
BRANCH  18  19
ATOM     19  C   UNL     1     -39.892  24.900   2.972  0.00  0.00    +0.139 C 
ATOM     20  C   UNL     1     -40.189  24.071   1.889  0.00  0.00    +0.037 C 
ATOM     21  C   UNL     1     -40.649  26.049   3.199  0.00  0.00    +0.037 C 
ATOM     22  C   UNL     1     -41.244  24.391   1.035  0.00  0.00    +0.003 C 
ATOM     23  C   UNL     1     -41.704  26.369   2.343  0.00  0.00    +0.003 C 
ATOM     24  C   UNL     1     -42.001  25.541   1.262  0.00  0.00    +0.000 C 
ENDBRANCH  18  19
ENDBRANCH  17  18
ENDBRANCH  14  17
ENDBRANCH  11  14
ENDBRANCH   2  10
BRANCH   1  25
ATOM     25  C   UNL     1     -34.888  19.685   1.278  0.00  0.00    +0.028 C 
BRANCH  25  26
ATOM     26  C   UNL     1     -33.527  20.166   0.858  0.00  0.00    -0.031 C 
ATOM     27  C   UNL     1     -32.403  19.440   0.763  0.00  0.00    -0.031 C 
BRANCH  27  28
ATOM     28  C   UNL     1     -32.333  17.972   1.074  0.00  0.00    +0.026 C 
BRANCH  28  29
ATOM     29  C   UNL     1     -32.153  17.088  -0.167  0.00  0.00    +0.016 C 
BRANCH  29  30
ATOM     30  C   UNL     1     -32.970  15.792  -0.131  0.00  0.00    +0.110 C 
BRANCH  30  32
ATOM     31  O   UNL     1     -34.720  16.051  -1.803  0.00  0.00    -0.250 OA
ATOM     32  C   UNL     1     -34.389  15.952  -0.630  0.00  0.00    +0.314 C 
BRANCH  32  33
ATOM     33  O   UNL     1     -35.278  16.017   0.396  0.00  0.00    -0.480 OA
ATOM     34  H   UNL     1     -36.082  16.487   0.290  0.00  0.00    +0.295 HD
ENDBRANCH  32  33
ENDBRANCH  30  32
ENDBRANCH  29  30
ENDBRANCH  28  29
ENDBRANCH  27  28
ENDBRANCH  25  26
ENDBRANCH   1  25
TORSDOF 14
ENDMDL
MODEL 7
REMARK VINA RESULT:      -5.3      2.302      4.541
REMARK  Name = 5311241
REMARK  14 active torsions:
REMARK  status: ('A' for Active; 'I' for Inactive)
REMARK    1  A    between atoms: C_1  and  C_25
REMARK    2  A    between atoms: C_2  and  C_10
REMARK    3  A    between atoms: C_3  and  O_6
REMARK    4  A    between atoms: C_4  and  O_8
REMARK    5  A    between atoms: C_11  and  C_14
REMARK    6  A    between atoms: C_14  and  C_17
REMARK    7  A    between atoms: C_17  and  O_18
REMARK    8  A    between atoms: O_18  and  C_19
REMARK    9  A    between atoms: C_25  and  C_26
REMARK   10  A    between atoms: C_27  and  C_28
REMARK   11  A    between atoms: C_28  and  C_29
REMARK   12  A    between atoms: C_29  and  C_30
REMARK   13  A    between atoms: C_30  and  C_32
REMARK   14  A    between atoms: C_32  and  O_33
REMARK                            x       y       z     vdW  Elec       q    Type
REMARK                         _______ _______ _______ _____ _____    ______ ____
ROOT
ATOM      1  C   UNL     1     -36.699  23.099   2.781  0.00  0.00    +0.038 C 
ATOM      2  C   UNL     1     -37.515  21.857   2.387  0.00  0.00    +0.051 C 
ATOM      3  C   UNL     1     -35.592  22.498   3.653  0.00  0.00    +0.114 C 
ATOM      4  C   UNL     1     -36.448  20.774   2.150  0.00  0.00    +0.117 C 
ATOM      5  C   UNL     1     -35.183  21.238   2.890  0.00  0.00    +0.059 C 
ENDROOT
BRANCH   3   6
ATOM      6  O   UNL     1     -36.047  22.158   4.957  0.00  0.00    -0.384 OA
ATOM      7  H   UNL     1     -36.580  21.349   4.912  0.00  0.00    +0.210 HD
ENDBRANCH   3   6
BRANCH   4   8
ATOM      8  O   UNL     1     -36.886  19.530   2.683  0.00  0.00    -0.384 OA
ATOM      9  H   UNL     1     -37.843  19.443   2.558  0.00  0.00    +0.210 HD
ENDBRANCH   4   8
BRANCH   2  10
ATOM     10  C   UNL     1     -38.382  22.068   1.184  0.00  0.00    -0.024 C 
ATOM     11  C   UNL     1     -39.555  21.451   0.992  0.00  0.00    +0.028 C 
BRANCH  11  14
ATOM     12  O   UNL     1     -39.749  21.158  -1.374  0.00  0.00    -0.325 OA
ATOM     13  O   UNL     1     -41.658  20.956  -0.022  0.00  0.00    -0.325 OA
ATOM     14  C   UNL     1     -40.421  21.663  -0.208  0.00  0.00    +0.249 C 
ATOM     15  C   UNL     1     -40.447  19.959  -1.709  0.00  0.00    +0.177 C 
ATOM     16  C   UNL     1     -41.849  20.228  -1.236  0.00  0.00    +0.177 C 
BRANCH  14  17
ATOM     17  C   UNL     1     -40.714  23.144  -0.417  0.00  0.00    +0.266 C 
BRANCH  17  18
ATOM     18  O   UNL     1     -41.917  23.465   0.259  0.00  0.00    -0.470 OA
BRANCH  18  19
ATOM     19  C   UNL     1     -41.890  24.554   1.094  0.00  0.00    +0.139 C 
ATOM     20  C   UNL     1     -43.031  25.342   1.250  0.00  0.00    +0.037 C 
ATOM     21  C   UNL     1     -40.722  24.873   1.786  0.00  0.00    +0.037 C 
ATOM     22  C   UNL     1     -43.004  26.448   2.099  0.00  0.00    +0.003 C 
ATOM     23  C   UNL     1     -40.695  25.980   2.635  0.00  0.00    +0.003 C 
ATOM     24  C   UNL     1     -41.835  26.768   2.791  0.00  0.00    +0.000 C 
ENDBRANCH  18  19
ENDBRANCH  17  18
ENDBRANCH  14  17
ENDBRANCH  11  14
ENDBRANCH   2  10
BRANCH   1  25
ATOM     25  C   UNL     1     -37.522  24.165   3.493  0.00  0.00    +0.028 C 
BRANCH  25  26
ATOM     26  C   UNL     1     -37.068  25.590   3.335  0.00  0.00    -0.031 C 
ATOM     27  C   UNL     1     -36.341  26.310   4.201  0.00  0.00    -0.031 C 
BRANCH  27  28
ATOM     28  C   UNL     1     -35.846  25.778   5.516  0.00  0.00    +0.026 C 
BRANCH  28  29
ATOM     29  C   UNL     1     -34.335  25.514   5.544  0.00  0.00    +0.016 C 
BRANCH  29  30
ATOM     30  C   UNL     1     -33.547  26.502   6.409  0.00  0.00    +0.110 C 
BRANCH  30  32
ATOM     31  O   UNL     1     -31.481  27.666   5.852  0.00  0.00    -0.250 OA
ATOM     32  C   UNL     1     -32.658  27.434   5.614  0.00  0.00    +0.314 C 
BRANCH  32  33
ATOM     33  O   UNL     1     -33.339  28.035   4.602  0.00  0.00    -0.480 OA
ATOM     34  H   UNL     1     -33.632  28.920   4.697  0.00  0.00    +0.295 HD
ENDBRANCH  32  33
ENDBRANCH  30  32
ENDBRANCH  29  30
ENDBRANCH  28  29
ENDBRANCH  27  28
ENDBRANCH  25  26
ENDBRANCH   1  25
TORSDOF 14
ENDMDL
MODEL 8
REMARK VINA RESULT:      -5.3      2.439      6.890
REMARK  Name = 5311241
REMARK  14 active torsions:
REMARK  status: ('A' for Active; 'I' for Inactive)
REMARK    1  A    between atoms: C_1  and  C_25
REMARK    2  A    between atoms: C_2  and  C_10
REMARK    3  A    between atoms: C_3  and  O_6
REMARK    4  A    between atoms: C_4  and  O_8
REMARK    5  A    between atoms: C_11  and  C_14
REMARK    6  A    between atoms: C_14  and  C_17
REMARK    7  A    between atoms: C_17  and  O_18
REMARK    8  A    between atoms: O_18  and  C_19
REMARK    9  A    between atoms: C_25  and  C_26
REMARK   10  A    between atoms: C_27  and  C_28
REMARK   11  A    between atoms: C_28  and  C_29
REMARK   12  A    between atoms: C_29  and  C_30
REMARK   13  A    between atoms: C_30  and  C_32
REMARK   14  A    between atoms: C_32  and  O_33
REMARK                            x       y       z     vdW  Elec       q    Type
REMARK                         _______ _______ _______ _____ _____    ______ ____
ROOT
ATOM      1  C   UNL     1     -35.690  23.758   3.234  0.00  0.00    +0.038 C 
ATOM      2  C   UNL     1     -36.018  22.400   3.874  0.00  0.00    +0.051 C 
ATOM      3  C   UNL     1     -35.730  24.705   4.437  0.00  0.00    +0.114 C 
ATOM      4  C   UNL     1     -35.273  22.437   5.221  0.00  0.00    +0.117 C 
ATOM      5  C   UNL     1     -35.008  23.919   5.532  0.00  0.00    +0.059 C 
ENDROOT
BRANCH   3   6
ATOM      6  O   UNL     1     -37.058  25.013   4.846  0.00  0.00    -0.384 OA
ATOM      7  H   UNL     1     -37.368  25.799   4.370  0.00  0.00    +0.210 HD
ENDBRANCH   3   6
BRANCH   4   8
ATOM      8  O   UNL     1     -36.082  21.871   6.244  0.00  0.00    -0.384 OA
ATOM      9  H   UNL     1     -36.909  22.372   6.317  0.00  0.00    +0.210 HD
ENDBRANCH   4   8
BRANCH   2  10
ATOM     10  C   UNL     1     -35.609  21.229   3.036  0.00  0.00    -0.024 C 
ATOM     11  C   UNL     1     -34.981  21.337   1.857  0.00  0.00    +0.028 C 
BRANCH  11  14
ATOM     12  O   UNL     1     -33.664  20.609  -0.002  0.00  0.00    -0.325 OA
ATOM     13  O   UNL     1     -33.920  19.200   1.859  0.00  0.00    -0.325 OA
ATOM     14  C   UNL     1     -34.572  20.167   1.021  0.00  0.00    +0.249 C 
ATOM     15  C   UNL     1     -32.386  20.121   0.408  0.00  0.00    +0.177 C 
ATOM     16  C   UNL     1     -32.719  18.863   1.162  0.00  0.00    +0.177 C 
BRANCH  14  17
ATOM     17  C   UNL     1     -35.780  19.522   0.353  0.00  0.00    +0.266 C 
BRANCH  17  18
ATOM     18  O   UNL     1     -36.192  20.343  -0.725  0.00  0.00    -0.470 OA
BRANCH  18  19
ATOM     19  C   UNL     1     -37.422  20.942  -0.617  0.00  0.00    +0.139 C 
ATOM     20  C   UNL     1     -37.850  21.840  -1.596  0.00  0.00    +0.037 C 
ATOM     21  C   UNL     1     -38.245  20.653   0.471  0.00  0.00    +0.037 C 
ATOM     22  C   UNL     1     -39.100  22.448  -1.487  0.00  0.00    +0.003 C 
ATOM     23  C   UNL     1     -39.496  21.263   0.581  0.00  0.00    +0.003 C 
ATOM     24  C   UNL     1     -39.922  22.160  -0.397  0.00  0.00    +0.000 C 
ENDBRANCH  18  19
ENDBRANCH  17  18
ENDBRANCH  14  17
ENDBRANCH  11  14
ENDBRANCH   2  10
BRANCH   1  25
ATOM     25  C   UNL     1     -36.650  24.151   2.119  0.00  0.00    +0.028 C 
BRANCH  25  26
ATOM     26  C   UNL     1     -36.347  25.425   1.379  0.00  0.00    -0.031 C 
ATOM     27  C   UNL     1     -37.129  26.050   0.486  0.00  0.00    -0.031 C 
BRANCH  27  28
ATOM     28  C   UNL     1     -38.484  25.550   0.074  0.00  0.00    +0.026 C 
BRANCH  28  29
ATOM     29  C   UNL     1     -39.645  26.359   0.666  0.00  0.00    +0.016 C 
BRANCH  29  30
ATOM     30  C   UNL     1     -40.495  25.581   1.675  0.00  0.00    +0.110 C 
BRANCH  30  32
ATOM     31  O   UNL     1     -39.883  24.399   3.714  0.00  0.00    -0.250 OA
ATOM     32  C   UNL     1     -39.833  25.409   3.025  0.00  0.00    +0.314 C 
BRANCH  32  33
ATOM     33  O   UNL     1     -39.194  26.541   3.419  0.00  0.00    -0.480 OA
ATOM     34  H   UNL     1     -38.765  26.571   4.252  0.00  0.00    +0.295 HD
ENDBRANCH  32  33
ENDBRANCH  30  32
ENDBRANCH  29  30
ENDBRANCH  28  29
ENDBRANCH  27  28
ENDBRANCH  25  26
ENDBRANCH   1  25
TORSDOF 14
ENDMDL
MODEL 9
REMARK VINA RESULT:      -5.3      2.853      6.641
REMARK  Name = 5311241
REMARK  14 active torsions:
REMARK  status: ('A' for Active; 'I' for Inactive)
REMARK    1  A    between atoms: C_1  and  C_25
REMARK    2  A    between atoms: C_2  and  C_10
REMARK    3  A    between atoms: C_3  and  O_6
REMARK    4  A    between atoms: C_4  and  O_8
REMARK    5  A    between atoms: C_11  and  C_14
REMARK    6  A    between atoms: C_14  and  C_17
REMARK    7  A    between atoms: C_17  and  O_18
REMARK    8  A    between atoms: O_18  and  C_19
REMARK    9  A    between atoms: C_25  and  C_26
REMARK   10  A    between atoms: C_27  and  C_28
REMARK   11  A    between atoms: C_28  and  C_29
REMARK   12  A    between atoms: C_29  and  C_30
REMARK   13  A    between atoms: C_30  and  C_32
REMARK   14  A    between atoms: C_32  and  O_33
REMARK                            x       y       z     vdW  Elec       q    Type
REMARK                         _______ _______ _______ _____ _____    ______ ____
ROOT
ATOM      1  C   UNL     1     -35.556  25.656   3.410  0.00  0.00    +0.038 C 
ATOM      2  C   UNL     1     -36.175  24.269   3.647  0.00  0.00    +0.051 C 
ATOM      3  C   UNL     1     -35.273  26.136   4.836  0.00  0.00    +0.114 C 
ATOM      4  C   UNL     1     -35.356  23.695   4.817  0.00  0.00    +0.117 C 
ATOM      5  C   UNL     1     -34.702  24.894   5.522  0.00  0.00    +0.059 C 
ENDROOT
BRANCH   3   6
ATOM      6  O   UNL     1     -36.448  26.574   5.509  0.00  0.00    -0.384 OA
ATOM      7  H   UNL     1     -37.020  27.045   4.884  0.00  0.00    +0.210 HD
ENDBRANCH   3   6
BRANCH   4   8
ATOM      8  O   UNL     1     -36.212  23.014   5.727  0.00  0.00    -0.384 OA
ATOM      9  H   UNL     1     -36.923  22.576   5.235  0.00  0.00    +0.210 HD
ENDBRANCH   4   8
BRANCH   2  10
ATOM     10  C   UNL     1     -36.136  23.381   2.442  0.00  0.00    -0.024 C 
ATOM     11  C   UNL     1     -36.903  22.293   2.291  0.00  0.00    +0.028 C 
BRANCH  11  14
ATOM     12  O   UNL     1     -38.127  20.734   0.953  0.00  0.00    -0.325 OA
ATOM     13  O   UNL     1     -36.624  22.214  -0.077  0.00  0.00    -0.325 OA
ATOM     14  C   UNL     1     -36.865  21.408   1.087  0.00  0.00    +0.249 C 
ATOM     15  C   UNL     1     -38.764  21.367  -0.157  0.00  0.00    +0.177 C 
ATOM     16  C   UNL     1     -37.611  21.798  -1.021  0.00  0.00    +0.177 C 
BRANCH  14  17
ATOM     17  C   UNL     1     -35.764  20.361   1.211  0.00  0.00    +0.266 C 
BRANCH  17  18
ATOM     18  O   UNL     1     -34.584  20.877   0.621  0.00  0.00    -0.470 OA
BRANCH  18  19
ATOM     19  C   UNL     1     -33.467  20.079   0.664  0.00  0.00    +0.139 C 
ATOM     20  C   UNL     1     -32.308  20.465  -0.009  0.00  0.00    +0.037 C 
ATOM     21  C   UNL     1     -33.491  18.883   1.381  0.00  0.00    +0.037 C 
ATOM     22  C   UNL     1     -31.173  19.656   0.034  0.00  0.00    +0.003 C 
ATOM     23  C   UNL     1     -32.356  18.073   1.424  0.00  0.00    +0.003 C 
ATOM     24  C   UNL     1     -31.198  18.459   0.751  0.00  0.00    +0.000 C 
ENDBRANCH  18  19
ENDBRANCH  17  18
ENDBRANCH  14  17
ENDBRANCH  11  14
ENDBRANCH   2  10
BRANCH   1  25
ATOM     25  C   UNL     1     -36.458  26.595   2.620  0.00  0.00    +0.028 C 
BRANCH  25  26
ATOM     26  C   UNL     1     -36.285  26.606   1.126  0.00  0.00    -0.031 C 
ATOM     27  C   UNL     1     -37.252  26.571   0.197  0.00  0.00    -0.031 C 
BRANCH  27  28
ATOM     28  C   UNL     1     -38.717  26.513   0.524  0.00  0.00    +0.026 C 
BRANCH  28  29
ATOM     29  C   UNL     1     -39.274  25.086   0.604  0.00  0.00    +0.016 C 
BRANCH  29  30
ATOM     30  C   UNL     1     -40.379  24.908   1.650  0.00  0.00    +0.110 C 
BRANCH  30  32
ATOM     31  O   UNL     1     -39.378  24.475   3.827  0.00  0.00    -0.250 OA
ATOM     32  C   UNL     1     -39.944  25.242   3.060  0.00  0.00    +0.314 C 
BRANCH  32  33
ATOM     33  O   UNL     1     -40.297  26.507   3.408  0.00  0.00    -0.480 OA
ATOM     34  H   UNL     1     -41.168  26.813   3.245  0.00  0.00    +0.295 HD
ENDBRANCH  32  33
ENDBRANCH  30  32
ENDBRANCH  29  30
ENDBRANCH  28  29
ENDBRANCH  27  28
ENDBRANCH  25  26
ENDBRANCH   1  25
TORSDOF 14
ENDMDL
