MODEL 1
REMARK VINA RESULT:      -6.7      0.000      0.000
REMARK  Name = 5487778
REMARK  9 active torsions:
REMARK  status: ('A' for Active; 'I' for Inactive)
REMARK    1  A    between atoms: N_2  and  CA_5
REMARK    2  A    between atoms: C_3  and  CA_17
REMARK    3  A    between atoms: CA_5  and  C_9
REMARK    4  A    between atoms: N_8  and  CA_11
REMARK    5  A    between atoms: CA_11  and  C_14
REMARK    6  A    between atoms: C_14  and  O_15
REMARK    7  A    between atoms: CA_17  and  N_18
REMARK    8  A    between atoms: CA_17  and  C_22
REMARK    9  A    between atoms: C_22  and  C_24
REMARK                            x       y       z     vdW  Elec       q    Type
REMARK                         _______ _______ _______ _____ _____    ______ ____
ROOT
ATOM      1  O   UNL     1     -37.142  21.797   2.456  0.00  0.00    -0.277 OA
ATOM      2  N   UNL     1     -35.420  21.335   3.940  0.00  0.00    -0.300 N 
ATOM      3  C   ACE A   1     -36.148  21.145   2.774  0.00  0.00    +0.202 C 
ATOM      4  H   UNL     1     -34.637  20.764   4.111  0.00  0.00    +0.150 HD
ENDROOT
BRANCH   2   5
ATOM      5  CA  UNL     1     -35.776  22.343   4.911  0.00  0.00    +0.149 C 
ATOM      6  CB  UNL     1     -35.284  21.970   6.300  0.00  0.00    +0.031 C 
BRANCH   5   9
ATOM      7  O   UNL     1     -34.037  24.025   4.762  0.00  0.00    -0.273 OA
ATOM      8  N   UNL     1     -36.067  24.418   3.709  0.00  0.00    -0.295 N 
ATOM      9  C   UNL     1     -35.173  23.666   4.457  0.00  0.00    +0.241 C 
ATOM     10  H   UNL     1     -36.956  24.041   3.516  0.00  0.00    +0.150 HD
BRANCH   8  11
ATOM     11  CA  UNL     1     -35.746  25.730   3.198  0.00  0.00    +0.171 C 
ATOM     12  CB  UNL     1     -36.847  26.230   2.275  0.00  0.00    +0.033 C 
BRANCH  11  14
ATOM     13  OXT UNL     1     -34.520  27.456   4.364  0.00  0.00    -0.248 OA
ATOM     14  C   UNL     1     -35.504  26.727   4.320  0.00  0.00    +0.332 C 
BRANCH  14  15
ATOM     15  O   UNL     1     -36.459  26.740   5.281  0.00  0.00    -0.479 OA
ATOM     16  H   UNL     1     -37.031  26.005   5.384  0.00  0.00    +0.295 HD
ENDBRANCH  14  15
ENDBRANCH  11  14
ENDBRANCH   8  11
ENDBRANCH   5   9
ENDBRANCH   2   5
BRANCH   3  17
ATOM     17  CA  UNL     1     -35.566  20.043   1.894  0.00  0.00    +0.017 C 
BRANCH  17  18
ATOM     18  N   UNL     1     -36.698  19.374   1.252  0.00  0.00    +0.388 N 
ATOM     19  H1  UNL     1     -36.474  19.189   0.275  0.00  0.00    -0.089 HD
ATOM     20  H2  UNL     1     -37.521  19.973   1.304  0.00  0.00    -0.089 HD
ATOM     21  H3  UNL     1     -36.887  18.493   1.730  0.00  0.00    -0.089 HD
ENDBRANCH  17  18
BRANCH  17  22
ATOM     22  C   UNL     1     -34.635  20.636   0.825  0.00  0.00    +0.013 C 
BRANCH  22  24
ATOM     23  F   UNL     1     -30.037  20.357  -0.748  0.00  0.00    -0.204 F 
ATOM     24  C   UNL     1     -33.314  19.910   0.732  0.00  0.00    -0.022 C 
ATOM     25  C   UNL     1     -32.273  20.485   0.021  0.00  0.00    +0.025 C 
ATOM     26  C   UNL     1     -33.168  18.684   1.360  0.00  0.00    -0.004 C 
ATOM     27  C   UNL     1     -31.053  19.815  -0.065  0.00  0.00    +0.140 C 
ATOM     28  C   UNL     1     -31.948  18.014   1.274  0.00  0.00    +0.002 C 
ATOM     29  C   UNL     1     -30.890  18.579   0.563  0.00  0.00    +0.030 C 
ENDBRANCH  22  24
ENDBRANCH  17  22
ENDBRANCH   3  17
TORSDOF 9
ENDMDL
MODEL 2
REMARK VINA RESULT:      -6.3      4.111      6.507
REMARK  Name = 5487778
REMARK  9 active torsions:
REMARK  status: ('A' for Active; 'I' for Inactive)
REMARK    1  A    between atoms: N_2  and  CA_5
REMARK    2  A    between atoms: C_3  and  CA_17
REMARK    3  A    between atoms: CA_5  and  C_9
REMARK    4  A    between atoms: N_8  and  CA_11
REMARK    5  A    between atoms: CA_11  and  C_14
REMARK    6  A    between atoms: C_14  and  O_15
REMARK    7  A    between atoms: CA_17  and  N_18
REMARK    8  A    between atoms: CA_17  and  C_22
REMARK    9  A    between atoms: C_22  and  C_24
REMARK                            x       y       z     vdW  Elec       q    Type
REMARK                         _______ _______ _______ _____ _____    ______ ____
ROOT
ATOM      1  O   UNL     1     -34.664  26.552   2.152  0.00  0.00    -0.277 OA
ATOM      2  N   UNL     1     -34.754  28.228   3.753  0.00  0.00    -0.300 N 
ATOM      3  C   ACE A   1     -34.921  26.930   3.295  0.00  0.00    +0.202 C 
ATOM      4  H   UNL     1     -34.987  28.437   4.686  0.00  0.00    +0.150 HD
ENDROOT
BRANCH   2   5
ATOM      5  CA  UNL     1     -34.251  29.282   2.904  0.00  0.00    +0.149 C 
ATOM      6  CB  UNL     1     -35.194  30.476   2.888  0.00  0.00    +0.031 C 
BRANCH   5   9
ATOM      7  O   UNL     1     -32.019  30.204   2.706  0.00  0.00    -0.273 OA
ATOM      8  N   UNL     1     -32.700  29.352   4.754  0.00  0.00    -0.295 N 
ATOM      9  C   UNL     1     -32.874  29.683   3.418  0.00  0.00    +0.241 C 
ATOM     10  H   UNL     1     -33.448  28.937   5.240  0.00  0.00    +0.150 HD
BRANCH   8  11
ATOM     11  CA  UNL     1     -31.463  29.591   5.461  0.00  0.00    +0.171 C 
ATOM     12  CB  UNL     1     -31.740  30.145   6.851  0.00  0.00    +0.033 C 
BRANCH  11  14
ATOM     13  OXT UNL     1     -29.927  27.925   4.622  0.00  0.00    -0.248 OA
ATOM     14  C   UNL     1     -30.614  28.334   5.551  0.00  0.00    +0.332 C 
BRANCH  14  15
ATOM     15  O   UNL     1     -30.682  27.689   6.740  0.00  0.00    -0.479 OA
ATOM     16  H   UNL     1     -29.920  27.271   7.091  0.00  0.00    +0.295 HD
ENDBRANCH  14  15
ENDBRANCH  11  14
ENDBRANCH   8  11
ENDBRANCH   5   9
ENDBRANCH   2   5
BRANCH   3  17
ATOM     17  CA  UNL     1     -35.439  25.988   4.378  0.00  0.00    +0.017 C 
BRANCH  17  18
ATOM     18  N   UNL     1     -36.313  26.781   5.243  0.00  0.00    +0.388 N 
ATOM     19  H1  UNL     1     -37.122  26.222   5.513  0.00  0.00    -0.089 HD
ATOM     20  H2  UNL     1     -36.625  27.611   4.742  0.00  0.00    -0.089 HD
ATOM     21  H3  UNL     1     -35.800  27.060   6.080  0.00  0.00    -0.089 HD
ENDBRANCH  17  18
BRANCH  17  22
ATOM     22  C   UNL     1     -36.232  24.828   3.756  0.00  0.00    +0.013 C 
BRANCH  22  24
ATOM     23  F   UNL     1     -34.993  20.184   2.985  0.00  0.00    -0.204 F 
ATOM     24  C   UNL     1     -35.791  23.477   4.268  0.00  0.00    -0.022 C 
ATOM     25  C   UNL     1     -35.594  22.442   3.368  0.00  0.00    +0.025 C 
ATOM     26  C   UNL     1     -35.592  23.299   5.627  0.00  0.00    -0.004 C 
ATOM     27  C   UNL     1     -35.188  21.195   3.841  0.00  0.00    +0.140 C 
ATOM     28  C   UNL     1     -35.186  22.052   6.100  0.00  0.00    +0.002 C 
ATOM     29  C   UNL     1     -34.983  21.000   5.208  0.00  0.00    +0.030 C 
ENDBRANCH  22  24
ENDBRANCH  17  22
ENDBRANCH   3  17
TORSDOF 9
ENDMDL
MODEL 3
REMARK VINA RESULT:      -6.3      3.805      7.941
REMARK  Name = 5487778
REMARK  9 active torsions:
REMARK  status: ('A' for Active; 'I' for Inactive)
REMARK    1  A    between atoms: N_2  and  CA_5
REMARK    2  A    between atoms: C_3  and  CA_17
REMARK    3  A    between atoms: CA_5  and  C_9
REMARK    4  A    between atoms: N_8  and  CA_11
REMARK    5  A    between atoms: CA_11  and  C_14
REMARK    6  A    between atoms: C_14  and  O_15
REMARK    7  A    between atoms: CA_17  and  N_18
REMARK    8  A    between atoms: CA_17  and  C_22
REMARK    9  A    between atoms: C_22  and  C_24
REMARK                            x       y       z     vdW  Elec       q    Type
REMARK                         _______ _______ _______ _____ _____    ______ ____
ROOT
ATOM      1  O   UNL     1     -34.469  21.489   0.510  0.00  0.00    -0.277 OA
ATOM      2  N   UNL     1     -34.395  19.386   1.485  0.00  0.00    -0.300 N 
ATOM      3  C   ACE A   1     -34.874  20.679   1.343  0.00  0.00    +0.202 C 
ATOM      4  H   UNL     1     -34.781  18.809   2.182  0.00  0.00    +0.150 HD
ENDROOT
BRANCH   2   5
ATOM      5  CA  UNL     1     -33.346  18.860   0.642  0.00  0.00    +0.149 C 
ATOM      6  CB  UNL     1     -32.323  18.082   1.455  0.00  0.00    +0.031 C 
BRANCH   5   9
ATOM      7  O   UNL     1     -33.690  18.018  -1.604  0.00  0.00    -0.273 OA
ATOM      8  N   UNL     1     -34.975  17.154   0.124  0.00  0.00    -0.295 N 
ATOM      9  C   UNL     1     -33.992  17.972  -0.413  0.00  0.00    +0.241 C 
ATOM     10  H   UNL     1     -35.142  17.190   1.093  0.00  0.00    +0.150 HD
BRANCH   8  11
ATOM     11  CA  UNL     1     -35.763  16.249  -0.682  0.00  0.00    +0.171 C 
ATOM     12  CB  UNL     1     -35.132  14.865  -0.705  0.00  0.00    +0.033 C 
BRANCH  11  14
ATOM     13  OXT UNL     1     -37.929  15.209  -0.423  0.00  0.00    -0.248 OA
ATOM     14  C   UNL     1     -37.200  16.168  -0.194  0.00  0.00    +0.332 C 
BRANCH  14  15
ATOM     15  O   UNL     1     -37.622  17.247   0.507  0.00  0.00    -0.479 OA
ATOM     16  H   UNL     1     -38.035  17.962   0.064  0.00  0.00    +0.295 HD
ENDBRANCH  14  15
ENDBRANCH  11  14
ENDBRANCH   8  11
ENDBRANCH   5   9
ENDBRANCH   2   5
BRANCH   3  17
ATOM     17  CA  UNL     1     -35.997  20.999   2.326  0.00  0.00    +0.017 C 
BRANCH  17  18
ATOM     18  N   UNL     1     -36.882  19.834   2.350  0.00  0.00    +0.388 N 
ATOM     19  H1  UNL     1     -37.627  19.987   3.028  0.00  0.00    -0.089 HD
ATOM     20  H2  UNL     1     -36.347  19.007   2.613  0.00  0.00    -0.089 HD
ATOM     21  H3  UNL     1     -37.288  19.697   1.424  0.00  0.00    -0.089 HD
ENDBRANCH  17  18
BRANCH  17  22
ATOM     22  C   UNL     1     -35.433  21.256   3.731  0.00  0.00    +0.013 C 
BRANCH  22  24
ATOM     23  F   UNL     1     -37.828  25.485   3.462  0.00  0.00    -0.204 F 
ATOM     24  C   UNL     1     -35.680  22.666   4.213  0.00  0.00    -0.022 C 
ATOM     25  C   UNL     1     -36.658  23.431   3.599  0.00  0.00    +0.025 C 
ATOM     26  C   UNL     1     -34.924  23.166   5.261  0.00  0.00    -0.004 C 
ATOM     27  C   UNL     1     -36.886  24.732   4.045  0.00  0.00    +0.140 C 
ATOM     28  C   UNL     1     -35.153  24.468   5.706  0.00  0.00    +0.002 C 
ATOM     29  C   UNL     1     -36.133  25.251   5.099  0.00  0.00    +0.030 C 
ENDBRANCH  22  24
ENDBRANCH  17  22
ENDBRANCH   3  17
TORSDOF 9
ENDMDL
MODEL 4
REMARK VINA RESULT:      -6.3      5.112      7.464
REMARK  Name = 5487778
REMARK  9 active torsions:
REMARK  status: ('A' for Active; 'I' for Inactive)
REMARK    1  A    between atoms: N_2  and  CA_5
REMARK    2  A    between atoms: C_3  and  CA_17
REMARK    3  A    between atoms: CA_5  and  C_9
REMARK    4  A    between atoms: N_8  and  CA_11
REMARK    5  A    between atoms: CA_11  and  C_14
REMARK    6  A    between atoms: C_14  and  O_15
REMARK    7  A    between atoms: CA_17  and  N_18
REMARK    8  A    between atoms: CA_17  and  C_22
REMARK    9  A    between atoms: C_22  and  C_24
REMARK                            x       y       z     vdW  Elec       q    Type
REMARK                         _______ _______ _______ _____ _____    ______ ____
ROOT
ATOM      1  O   UNL     1     -32.198  26.505   3.519  0.00  0.00    -0.277 OA
ATOM      2  N   UNL     1     -33.115  28.256   4.733  0.00  0.00    -0.300 N 
ATOM      3  C   ACE A   1     -33.158  27.032   4.081  0.00  0.00    +0.202 C 
ATOM      4  H   UNL     1     -33.935  28.600   5.154  0.00  0.00    +0.150 HD
ENDROOT
BRANCH   2   5
ATOM      5  CA  UNL     1     -31.905  29.041   4.812  0.00  0.00    +0.149 C 
ATOM      6  CB  UNL     1     -32.201  30.526   4.666  0.00  0.00    +0.031 C 
BRANCH   5   9
ATOM      7  O   UNL     1     -31.840  28.794   7.222  0.00  0.00    -0.273 OA
ATOM      8  N   UNL     1     -29.888  28.467   6.010  0.00  0.00    -0.295 N 
ATOM      9  C   UNL     1     -31.240  28.747   6.150  0.00  0.00    +0.241 C 
ATOM     10  H   UNL     1     -29.500  28.451   5.105  0.00  0.00    +0.150 HD
BRANCH   8  11
ATOM     11  CA  UNL     1     -29.027  28.196   7.137  0.00  0.00    +0.171 C 
ATOM     12  CB  UNL     1     -27.971  27.166   6.769  0.00  0.00    +0.033 C 
BRANCH  11  14
ATOM     13  OXT UNL     1     -27.784  30.259   6.937  0.00  0.00    -0.248 OA
ATOM     14  C   UNL     1     -28.371  29.463   7.662  0.00  0.00    +0.332 C 
BRANCH  14  15
ATOM     15  O   UNL     1     -28.475  29.642   9.000  0.00  0.00    -0.479 OA
ATOM     16  H   UNL     1     -28.323  28.924   9.582  0.00  0.00    +0.295 HD
ENDBRANCH  14  15
ENDBRANCH  11  14
ENDBRANCH   8  11
ENDBRANCH   5   9
ENDBRANCH   2   5
BRANCH   3  17
ATOM     17  CA  UNL     1     -34.534  26.378   4.153  0.00  0.00    +0.017 C 
BRANCH  17  18
ATOM     18  N   UNL     1     -35.514  27.420   3.844  0.00  0.00    +0.388 N 
ATOM     19  H1  UNL     1     -35.437  27.678   2.860  0.00  0.00    -0.089 HD
ATOM     20  H2  UNL     1     -35.335  28.238   4.425  0.00  0.00    -0.089 HD
ATOM     21  H3  UNL     1     -36.453  27.068   4.030  0.00  0.00    -0.089 HD
ENDBRANCH  17  18
BRANCH  17  22
ATOM     22  C   UNL     1     -34.646  25.235   3.132  0.00  0.00    +0.013 C 
BRANCH  22  24
ATOM     23  F   UNL     1     -35.101  22.432   7.085  0.00  0.00    -0.204 F 
ATOM     24  C   UNL     1     -34.929  23.899   3.777  0.00  0.00    -0.022 C 
ATOM     25  C   UNL     1     -34.882  23.789   5.158  0.00  0.00    +0.025 C 
ATOM     26  C   UNL     1     -35.230  22.810   2.977  0.00  0.00    -0.004 C 
ATOM     27  C   UNL     1     -35.143  22.555   5.753  0.00  0.00    +0.140 C 
ATOM     28  C   UNL     1     -35.491  21.576   3.572  0.00  0.00    +0.002 C 
ATOM     29  C   UNL     1     -35.448  21.448   4.960  0.00  0.00    +0.030 C 
ENDBRANCH  22  24
ENDBRANCH  17  22
ENDBRANCH   3  17
TORSDOF 9
ENDMDL
MODEL 5
REMARK VINA RESULT:      -6.2      1.295      1.725
REMARK  Name = 5487778
REMARK  9 active torsions:
REMARK  status: ('A' for Active; 'I' for Inactive)
REMARK    1  A    between atoms: N_2  and  CA_5
REMARK    2  A    between atoms: C_3  and  CA_17
REMARK    3  A    between atoms: CA_5  and  C_9
REMARK    4  A    between atoms: N_8  and  CA_11
REMARK    5  A    between atoms: CA_11  and  C_14
REMARK    6  A    between atoms: C_14  and  O_15
REMARK    7  A    between atoms: CA_17  and  N_18
REMARK    8  A    between atoms: CA_17  and  C_22
REMARK    9  A    between atoms: C_22  and  C_24
REMARK                            x       y       z     vdW  Elec       q    Type
REMARK                         _______ _______ _______ _____ _____    ______ ____
ROOT
ATOM      1  O   UNL     1     -37.382  21.971   2.627  0.00  0.00    -0.277 OA
ATOM      2  N   UNL     1     -35.533  21.628   3.986  0.00  0.00    -0.300 N 
ATOM      3  C   ACE A   1     -36.328  21.385   2.875  0.00  0.00    +0.202 C 
ATOM      4  H   UNL     1     -34.705  21.109   4.101  0.00  0.00    +0.150 HD
ENDROOT
BRANCH   2   5
ATOM      5  CA  UNL     1     -35.883  22.617   4.978  0.00  0.00    +0.149 C 
ATOM      6  CB  UNL     1     -35.563  22.128   6.382  0.00  0.00    +0.031 C 
BRANCH   5   9
ATOM      7  O   UNL     1     -34.515  24.545   5.509  0.00  0.00    -0.273 OA
ATOM      8  N   UNL     1     -35.226  24.247   3.321  0.00  0.00    -0.295 N 
ATOM      9  C   UNL     1     -35.119  23.895   4.659  0.00  0.00    +0.241 C 
ATOM     10  H   UNL     1     -35.733  23.658   2.716  0.00  0.00    +0.150 HD
BRANCH   8  11
ATOM     11  CA  UNL     1     -34.624  25.442   2.778  0.00  0.00    +0.171 C 
ATOM     12  CB  UNL     1     -34.337  25.271   1.294  0.00  0.00    +0.033 C 
BRANCH  11  14
ATOM     13  OXT UNL     1     -36.396  26.999   2.249  0.00  0.00    -0.248 OA
ATOM     14  C   UNL     1     -35.494  26.666   3.011  0.00  0.00    +0.332 C 
BRANCH  14  15
ATOM     15  O   UNL     1     -35.190  27.374   4.125  0.00  0.00    -0.479 OA
ATOM     16  H   UNL     1     -35.166  28.310   4.094  0.00  0.00    +0.295 HD
ENDBRANCH  14  15
ENDBRANCH  11  14
ENDBRANCH   8  11
ENDBRANCH   5   9
ENDBRANCH   2   5
BRANCH   3  17
ATOM     17  CA  UNL     1     -35.741  20.318   1.956  0.00  0.00    +0.017 C 
BRANCH  17  18
ATOM     18  N   UNL     1     -36.861  19.500   1.490  0.00  0.00    +0.388 N 
ATOM     19  H1  UNL     1     -37.739  19.977   1.694  0.00  0.00    -0.089 HD
ATOM     20  H2  UNL     1     -36.845  18.599   1.967  0.00  0.00    -0.089 HD
ATOM     21  H3  UNL     1     -36.779  19.354   0.484  0.00  0.00    -0.089 HD
ENDBRANCH  17  18
BRANCH  17  22
ATOM     22  C   UNL     1     -35.031  20.964   0.757  0.00  0.00    +0.013 C 
BRANCH  22  24
ATOM     23  F   UNL     1     -31.629  17.558   1.482  0.00  0.00    -0.204 F 
ATOM     24  C   UNL     1     -33.637  20.423   0.541  0.00  0.00    -0.022 C 
ATOM     25  C   UNL     1     -33.278  19.219   1.125  0.00  0.00    +0.025 C 
ATOM     26  C   UNL     1     -32.745  21.141  -0.238  0.00  0.00    -0.004 C 
ATOM     27  C   UNL     1     -31.991  18.720   0.925  0.00  0.00    +0.140 C 
ATOM     28  C   UNL     1     -31.458  20.642  -0.438  0.00  0.00    +0.002 C 
ATOM     29  C   UNL     1     -31.081  19.432   0.143  0.00  0.00    +0.030 C 
ENDBRANCH  22  24
ENDBRANCH  17  22
ENDBRANCH   3  17
TORSDOF 9
ENDMDL
MODEL 6
REMARK VINA RESULT:      -6.2      2.476      3.868
REMARK  Name = 5487778
REMARK  9 active torsions:
REMARK  status: ('A' for Active; 'I' for Inactive)
REMARK    1  A    between atoms: N_2  and  CA_5
REMARK    2  A    between atoms: C_3  and  CA_17
REMARK    3  A    between atoms: CA_5  and  C_9
REMARK    4  A    between atoms: N_8  and  CA_11
REMARK    5  A    between atoms: CA_11  and  C_14
REMARK    6  A    between atoms: C_14  and  O_15
REMARK    7  A    between atoms: CA_17  and  N_18
REMARK    8  A    between atoms: CA_17  and  C_22
REMARK    9  A    between atoms: C_22  and  C_24
REMARK                            x       y       z     vdW  Elec       q    Type
REMARK                         _______ _______ _______ _____ _____    ______ ____
ROOT
ATOM      1  O   UNL     1     -36.772  24.682   4.860  0.00  0.00    -0.277 OA
ATOM      2  N   UNL     1     -34.482  24.804   5.206  0.00  0.00    -0.300 N 
ATOM      3  C   ACE A   1     -35.670  24.141   4.936  0.00  0.00    +0.202 C 
ATOM      4  H   UNL     1     -33.647  24.286   5.248  0.00  0.00    +0.150 HD
ENDROOT
BRANCH   2   5
ATOM      5  CA  UNL     1     -34.433  26.230   5.429  0.00  0.00    +0.149 C 
ATOM      6  CB  UNL     1     -33.381  26.591   6.466  0.00  0.00    +0.031 C 
BRANCH   5   9
ATOM      7  O   UNL     1     -33.106  26.705   3.458  0.00  0.00    -0.273 OA
ATOM      8  N   UNL     1     -35.141  27.788   3.725  0.00  0.00    -0.295 N 
ATOM      9  C   UNL     1     -34.137  26.905   4.096  0.00  0.00    +0.241 C 
ATOM     10  H   UNL     1     -35.931  27.877   4.305  0.00  0.00    +0.150 HD
BRANCH   8  11
ATOM     11  CA  UNL     1     -35.074  28.582   2.520  0.00  0.00    +0.171 C 
ATOM     12  CB  UNL     1     -36.201  28.209   1.570  0.00  0.00    +0.033 C 
BRANCH  11  14
ATOM     13  OXT UNL     1     -34.364  30.603   3.641  0.00  0.00    -0.248 OA
ATOM     14  C   UNL     1     -35.109  30.071   2.825  0.00  0.00    +0.332 C 
BRANCH  14  15
ATOM     15  O   UNL     1     -36.038  30.769   2.130  0.00  0.00    -0.479 OA
ATOM     16  H   UNL     1     -36.947  30.555   2.217  0.00  0.00    +0.295 HD
ENDBRANCH  14  15
ENDBRANCH  11  14
ENDBRANCH   8  11
ENDBRANCH   5   9
ENDBRANCH   2   5
BRANCH   3  17
ATOM     17  CA  UNL     1     -35.468  22.646   4.711  0.00  0.00    +0.017 C 
BRANCH  17  18
ATOM     18  N   UNL     1     -35.996  21.965   5.894  0.00  0.00    +0.388 N 
ATOM     19  H1  UNL     1     -35.240  21.806   6.560  0.00  0.00    -0.089 HD
ATOM     20  H2  UNL     1     -36.400  21.071   5.619  0.00  0.00    -0.089 HD
ATOM     21  H3  UNL     1     -36.714  22.546   6.327  0.00  0.00    -0.089 HD
ENDBRANCH  17  18
BRANCH  17  22
ATOM     22  C   UNL     1     -36.224  22.178   3.458  0.00  0.00    +0.013 C 
BRANCH  22  24
ATOM     23  F   UNL     1     -33.794  18.496   1.400  0.00  0.00    -0.204 F 
ATOM     24  C   UNL     1     -35.306  21.637   2.387  0.00  0.00    -0.022 C 
ATOM     25  C   UNL     1     -34.973  20.292   2.395  0.00  0.00    +0.025 C 
ATOM     26  C   UNL     1     -34.816  22.496   1.417  0.00  0.00    -0.004 C 
ATOM     27  C   UNL     1     -34.125  19.793   1.407  0.00  0.00    +0.140 C 
ATOM     28  C   UNL     1     -33.969  21.997   0.428  0.00  0.00    +0.002 C 
ATOM     29  C   UNL     1     -33.623  20.646   0.422  0.00  0.00    +0.030 C 
ENDBRANCH  22  24
ENDBRANCH  17  22
ENDBRANCH   3  17
TORSDOF 9
ENDMDL
MODEL 7
REMARK VINA RESULT:      -6.2      1.702      2.466
REMARK  Name = 5487778
REMARK  9 active torsions:
REMARK  status: ('A' for Active; 'I' for Inactive)
REMARK    1  A    between atoms: N_2  and  CA_5
REMARK    2  A    between atoms: C_3  and  CA_17
REMARK    3  A    between atoms: CA_5  and  C_9
REMARK    4  A    between atoms: N_8  and  CA_11
REMARK    5  A    between atoms: CA_11  and  C_14
REMARK    6  A    between atoms: C_14  and  O_15
REMARK    7  A    between atoms: CA_17  and  N_18
REMARK    8  A    between atoms: CA_17  and  C_22
REMARK    9  A    between atoms: C_22  and  C_24
REMARK                            x       y       z     vdW  Elec       q    Type
REMARK                         _______ _______ _______ _____ _____    ______ ____
ROOT
ATOM      1  O   UNL     1     -34.967  22.560   1.363  0.00  0.00    -0.277 OA
ATOM      2  N   UNL     1     -37.171  22.130   1.943  0.00  0.00    -0.300 N 
ATOM      3  C   ACE A   1     -35.861  21.770   1.664  0.00  0.00    +0.202 C 
ATOM      4  H   UNL     1     -37.819  21.427   2.175  0.00  0.00    +0.150 HD
ENDROOT
BRANCH   2   5
ATOM      5  CA  UNL     1     -37.615  23.504   1.902  0.00  0.00    +0.149 C 
ATOM      6  CB  UNL     1     -39.014  23.615   1.318  0.00  0.00    +0.031 C 
BRANCH   5   9
ATOM      7  O   UNL     1     -38.516  24.648   3.839  0.00  0.00    -0.273 OA
ATOM      8  N   UNL     1     -36.341  23.843   3.926  0.00  0.00    -0.295 N 
ATOM      9  C   UNL     1     -37.572  24.055   3.321  0.00  0.00    +0.241 C 
ATOM     10  H   UNL     1     -35.648  23.353   3.427  0.00  0.00    +0.150 HD
BRANCH   8  11
ATOM     11  CA  UNL     1     -36.037  24.309   5.258  0.00  0.00    +0.171 C 
ATOM     12  CB  UNL     1     -35.020  23.396   5.926  0.00  0.00    +0.033 C 
BRANCH  11  14
ATOM     13  OXT UNL     1     -34.344  26.035   5.264  0.00  0.00    -0.248 OA
ATOM     14  C   UNL     1     -35.535  25.744   5.251  0.00  0.00    +0.332 C 
BRANCH  14  15
ATOM     15  O   UNL     1     -36.510  26.684   5.241  0.00  0.00    -0.479 OA
ATOM     16  H   UNL     1     -37.409  26.428   5.303  0.00  0.00    +0.295 HD
ENDBRANCH  14  15
ENDBRANCH  11  14
ENDBRANCH   8  11
ENDBRANCH   5   9
ENDBRANCH   2   5
BRANCH   3  17
ATOM     17  CA  UNL     1     -35.625  20.269   1.797  0.00  0.00    +0.017 C 
BRANCH  17  18
ATOM     18  N   UNL     1     -36.914  19.668   2.142  0.00  0.00    +0.388 N 
ATOM     19  H1  UNL     1     -37.542  19.727   1.341  0.00  0.00    -0.089 HD
ATOM     20  H2  UNL     1     -37.321  20.167   2.932  0.00  0.00    -0.089 HD
ATOM     21  H3  UNL     1     -36.775  18.688   2.392  0.00  0.00    -0.089 HD
ENDBRANCH  17  18
BRANCH  17  22
ATOM     22  C   UNL     1     -35.111  19.680   0.475  0.00  0.00    +0.013 C 
BRANCH  22  24
ATOM     23  F   UNL     1     -30.468  20.815  -0.448  0.00  0.00    -0.204 F 
ATOM     24  C   UNL     1     -33.637  19.348   0.515  0.00  0.00    -0.022 C 
ATOM     25  C   UNL     1     -32.724  20.256   0.004  0.00  0.00    +0.025 C 
ATOM     26  C   UNL     1     -33.229  18.144   1.063  0.00  0.00    -0.004 C 
ATOM     27  C   UNL     1     -31.364  19.949   0.042  0.00  0.00    +0.140 C 
ATOM     28  C   UNL     1     -31.869  17.837   1.101  0.00  0.00    +0.002 C 
ATOM     29  C   UNL     1     -30.936  18.739   0.590  0.00  0.00    +0.030 C 
ENDBRANCH  22  24
ENDBRANCH  17  22
ENDBRANCH   3  17
TORSDOF 9
ENDMDL
MODEL 8
REMARK VINA RESULT:      -6.2      5.160      7.523
REMARK  Name = 5487778
REMARK  9 active torsions:
REMARK  status: ('A' for Active; 'I' for Inactive)
REMARK    1  A    between atoms: N_2  and  CA_5
REMARK    2  A    between atoms: C_3  and  CA_17
REMARK    3  A    between atoms: CA_5  and  C_9
REMARK    4  A    between atoms: N_8  and  CA_11
REMARK    5  A    between atoms: CA_11  and  C_14
REMARK    6  A    between atoms: C_14  and  O_15
REMARK    7  A    between atoms: CA_17  and  N_18
REMARK    8  A    between atoms: CA_17  and  C_22
REMARK    9  A    between atoms: C_22  and  C_24
REMARK                            x       y       z     vdW  Elec       q    Type
REMARK                         _______ _______ _______ _____ _____    ______ ____
ROOT
ATOM      1  O   UNL     1     -34.268  28.503   3.335  0.00  0.00    -0.277 OA
ATOM      2  N   UNL     1     -32.661  27.948   4.913  0.00  0.00    -0.300 N 
ATOM      3  C   ACE A   1     -33.835  27.745   4.203  0.00  0.00    +0.202 C 
ATOM      4  H   UNL     1     -32.394  27.286   5.590  0.00  0.00    +0.150 HD
ENDROOT
BRANCH   2   5
ATOM      5  CA  UNL     1     -31.819  29.100   4.691  0.00  0.00    +0.149 C 
ATOM      6  CB  UNL     1     -32.138  30.215   5.674  0.00  0.00    +0.031 C 
BRANCH   5   9
ATOM      7  O   UNL     1     -29.888  27.730   4.172  0.00  0.00    -0.273 OA
ATOM      8  N   UNL     1     -29.686  29.384   5.787  0.00  0.00    -0.295 N 
ATOM      9  C   UNL     1     -30.368  28.655   4.824  0.00  0.00    +0.241 C 
ATOM     10  H   UNL     1     -30.160  30.108   6.256  0.00  0.00    +0.150 HD
BRANCH   8  11
ATOM     11  CA  UNL     1     -28.307  29.124   6.130  0.00  0.00    +0.171 C 
ATOM     12  CB  UNL     1     -27.591  30.417   6.488  0.00  0.00    +0.033 C 
BRANCH  11  14
ATOM     13  OXT UNL     1     -27.461  28.297   8.238  0.00  0.00    -0.248 OA
ATOM     14  C   UNL     1     -28.189  28.122   7.267  0.00  0.00    +0.332 C 
BRANCH  14  15
ATOM     15  O   UNL     1     -28.945  27.008   7.120  0.00  0.00    -0.479 OA
ATOM     16  H   UNL     1     -29.497  26.911   6.368  0.00  0.00    +0.295 HD
ENDBRANCH  14  15
ENDBRANCH  11  14
ENDBRANCH   8  11
ENDBRANCH   5   9
ENDBRANCH   2   5
BRANCH   3  17
ATOM     17  CA  UNL     1     -34.539  26.449   4.592  0.00  0.00    +0.017 C 
BRANCH  17  18
ATOM     18  N   UNL     1     -35.954  26.775   4.772  0.00  0.00    +0.388 N 
ATOM     19  H1  UNL     1     -36.469  26.532   3.926  0.00  0.00    -0.089 HD
ATOM     20  H2  UNL     1     -36.052  27.772   4.956  0.00  0.00    -0.089 HD
ATOM     21  H3  UNL     1     -36.327  26.244   5.560  0.00  0.00    -0.089 HD
ENDBRANCH  17  18
BRANCH  17  22
ATOM     22  C   UNL     1     -34.382  25.393   3.487  0.00  0.00    +0.013 C 
BRANCH  22  24
ATOM     23  F   UNL     1     -35.017  22.087   7.004  0.00  0.00    -0.204 F 
ATOM     24  C   UNL     1     -34.778  24.007   3.941  0.00  0.00    -0.022 C 
ATOM     25  C   UNL     1     -34.711  23.689   5.288  0.00  0.00    +0.025 C 
ATOM     26  C   UNL     1     -35.203  23.082   3.002  0.00  0.00    -0.004 C 
ATOM     27  C   UNL     1     -35.077  22.410   5.706  0.00  0.00    +0.140 C 
ATOM     28  C   UNL     1     -35.569  21.804   3.420  0.00  0.00    +0.002 C 
ATOM     29  C   UNL     1     -35.507  21.467   4.772  0.00  0.00    +0.030 C 
ENDBRANCH  22  24
ENDBRANCH  17  22
ENDBRANCH   3  17
TORSDOF 9
ENDMDL
MODEL 9
REMARK VINA RESULT:      -6.2      4.350      6.711
REMARK  Name = 5487778
REMARK  9 active torsions:
REMARK  status: ('A' for Active; 'I' for Inactive)
REMARK    1  A    between atoms: N_2  and  CA_5
REMARK    2  A    between atoms: C_3  and  CA_17
REMARK    3  A    between atoms: CA_5  and  C_9
REMARK    4  A    between atoms: N_8  and  CA_11
REMARK    5  A    between atoms: CA_11  and  C_14
REMARK    6  A    between atoms: C_14  and  O_15
REMARK    7  A    between atoms: CA_17  and  N_18
REMARK    8  A    between atoms: CA_17  and  C_22
REMARK    9  A    between atoms: C_22  and  C_24
REMARK                            x       y       z     vdW  Elec       q    Type
REMARK                         _______ _______ _______ _____ _____    ______ ____
ROOT
ATOM      1  O   UNL     1     -35.646  27.098   1.979  0.00  0.00    -0.277 OA
ATOM      2  N   UNL     1     -34.554  28.172   3.720  0.00  0.00    -0.300 N 
ATOM      3  C   ACE A   1     -35.292  27.142   3.157  0.00  0.00    +0.202 C 
ATOM      4  H   UNL     1     -34.316  28.120   4.674  0.00  0.00    +0.150 HD
ENDROOT
BRANCH   2   5
ATOM      5  CA  UNL     1     -34.123  29.317   2.953  0.00  0.00    +0.149 C 
ATOM      6  CB  UNL     1     -35.145  30.441   3.019  0.00  0.00    +0.031 C 
BRANCH   5   9
ATOM      7  O   UNL     1     -31.987  30.458   2.856  0.00  0.00    -0.273 OA
ATOM      8  N   UNL     1     -32.543  29.285   4.779  0.00  0.00    -0.295 N 
ATOM      9  C   UNL     1     -32.777  29.771   3.501  0.00  0.00    +0.241 C 
ATOM     10  H   UNL     1     -33.241  28.744   5.214  0.00  0.00    +0.150 HD
BRANCH   8  11
ATOM     11  CA  UNL     1     -31.318  29.542   5.499  0.00  0.00    +0.171 C 
ATOM     12  CB  UNL     1     -31.617  29.996   6.920  0.00  0.00    +0.033 C 
BRANCH  11  14
ATOM     13  OXT UNL     1     -29.757  27.968   4.537  0.00  0.00    -0.248 OA
ATOM     14  C   UNL     1     -30.407  28.326   5.513  0.00  0.00    +0.332 C 
BRANCH  14  15
ATOM     15  O   UNL     1     -30.375  27.656   6.689  0.00  0.00    -0.479 OA
ATOM     16  H   UNL     1     -30.841  26.848   6.781  0.00  0.00    +0.295 HD
ENDBRANCH  14  15
ENDBRANCH  11  14
ENDBRANCH   8  11
ENDBRANCH   5   9
ENDBRANCH   2   5
BRANCH   3  17
ATOM     17  CA  UNL     1     -35.607  26.032   4.155  0.00  0.00    +0.017 C 
BRANCH  17  18
ATOM     18  N   UNL     1     -36.484  26.614   5.171  0.00  0.00    +0.388 N 
ATOM     19  H1  UNL     1     -37.457  26.438   4.921  0.00  0.00    -0.089 HD
ATOM     20  H2  UNL     1     -36.322  27.619   5.225  0.00  0.00    -0.089 HD
ATOM     21  H3  UNL     1     -36.284  26.188   6.076  0.00  0.00    -0.089 HD
ENDBRANCH  17  18
BRANCH  17  22
ATOM     22  C   UNL     1     -36.318  24.861   3.459  0.00  0.00    +0.013 C 
BRANCH  22  24
ATOM     23  F   UNL     1     -35.085  21.945   7.157  0.00  0.00    -0.204 F 
ATOM     24  C   UNL     1     -35.887  23.515   3.992  0.00  0.00    -0.022 C 
ATOM     25  C   UNL     1     -35.683  23.357   5.353  0.00  0.00    +0.025 C 
ATOM     26  C   UNL     1     -35.706  22.463   3.109  0.00  0.00    -0.004 C 
ATOM     27  C   UNL     1     -35.286  22.114   5.844  0.00  0.00    +0.140 C 
ATOM     28  C   UNL     1     -35.309  21.220   3.600  0.00  0.00    +0.002 C 
ATOM     29  C   UNL     1     -35.099  21.044   4.967  0.00  0.00    +0.030 C 
ENDBRANCH  22  24
ENDBRANCH  17  22
ENDBRANCH   3  17
TORSDOF 9
ENDMDL
