MODEL 1
REMARK VINA RESULT:      -5.2      0.000      0.000
REMARK  Name = 193555
REMARK  8 active torsions:
REMARK  status: ('A' for Active; 'I' for Inactive)
REMARK    1  A    between atoms: N_2  and  CA_5
REMARK    2  A    between atoms: C_3  and  CA_13
REMARK    3  A    between atoms: CA_5  and  CB_6
REMARK    4  A    between atoms: CA_5  and  C_10
REMARK    5  A    between atoms: C_10  and  O_11
REMARK    6  A    between atoms: CA_13  and  N_15
REMARK    7  A    between atoms: C_16  and  CA_18
REMARK    8  A    between atoms: CA_18  and  N_19
REMARK                            x       y       z     vdW  Elec       q    Type
REMARK                         _______ _______ _______ _____ _____    ______ ____
ROOT
ATOM      1  O   GLY A   2     -35.951  21.685   2.115  0.00  0.00    -0.273 OA
ATOM      2  N   VAL A   3     -36.684  22.834   3.995  0.00  0.00    -0.295 N 
ATOM      3  C   GLY A   2     -36.838  22.262   2.741  0.00  0.00    +0.243 C 
ATOM      4  H   VAL A   3     -37.463  23.272   4.408  0.00  0.00    +0.150 HD
ENDROOT
BRANCH   2   5
ATOM      5  CA  VAL A   3     -35.438  22.818   4.727  0.00  0.00    +0.171 C 
BRANCH   5   6
ATOM      6  CB  VAL A   3     -35.049  24.251   5.150  0.00  0.00    +0.029 C 
ATOM      7  CG1 VAL A   3     -33.946  24.858   4.279  0.00  0.00    +0.002 C 
ATOM      8  CG2 VAL A   3     -36.260  25.187   5.200  0.00  0.00    +0.002 C 
ENDBRANCH   5   6
BRANCH   5  10
ATOM      9  OXT VAL A   3     -35.868  22.102   7.008  0.00  0.00    -0.248 OA
ATOM     10  C   VAL A   3     -35.494  21.815   5.876  0.00  0.00    +0.332 C 
BRANCH  10  11
ATOM     11  O   VAL A   3     -35.047  20.574   5.563  0.00  0.00    -0.479 OA
ATOM     12  H   VAL A   3     -34.217  20.467   5.143  0.00  0.00    +0.295 HD
ENDBRANCH  10  11
ENDBRANCH   5  10
ENDBRANCH   2   5
BRANCH   3  13
ATOM     13  CA  GLY A   2     -38.239  22.455   2.200  0.00  0.00    +0.176 C 
BRANCH  13  15
ATOM     14  O   GLY A   1     -40.784  23.679   1.571  0.00  0.00    -0.277 OA
ATOM     15  N   GLY A   2     -38.798  23.672   2.773  0.00  0.00    -0.298 N 
ATOM     16  C   GLY A   1     -40.030  24.177   2.403  0.00  0.00    +0.201 C 
ATOM     17  H   GLY A   2     -38.275  24.155   3.452  0.00  0.00    +0.150 HD
BRANCH  16  18
ATOM     18  CA  GLY A   1     -40.343  25.467   3.133  0.00  0.00    +0.001 C 
BRANCH  18  19
ATOM     19  N   GLY A   1     -39.097  26.173   3.390  0.00  0.00    +0.386 N 
ATOM     20  H1  GLY A   1     -38.312  25.532   3.279  0.00  0.00    -0.089 HD
ATOM     21  H2  GLY A   1     -39.103  26.539   4.343  0.00  0.00    -0.089 HD
ATOM     22  H3  GLY A   1     -39.002  26.946   2.731  0.00  0.00    -0.089 HD
ENDBRANCH  18  19
ENDBRANCH  16  18
ENDBRANCH  13  15
ENDBRANCH   3  13
TORSDOF 8
ENDMDL
MODEL 2
REMARK VINA RESULT:      -5.1      2.931      4.791
REMARK  Name = 193555
REMARK  8 active torsions:
REMARK  status: ('A' for Active; 'I' for Inactive)
REMARK    1  A    between atoms: N_2  and  CA_5
REMARK    2  A    between atoms: C_3  and  CA_13
REMARK    3  A    between atoms: CA_5  and  CB_6
REMARK    4  A    between atoms: CA_5  and  C_10
REMARK    5  A    between atoms: C_10  and  O_11
REMARK    6  A    between atoms: CA_13  and  N_15
REMARK    7  A    between atoms: C_16  and  CA_18
REMARK    8  A    between atoms: CA_18  and  N_19
REMARK                            x       y       z     vdW  Elec       q    Type
REMARK                         _______ _______ _______ _____ _____    ______ ____
ROOT
ATOM      1  O   GLY A   2     -37.853  24.685   4.125  0.00  0.00    -0.273 OA
ATOM      2  N   VAL A   3     -35.677  23.890   3.967  0.00  0.00    -0.295 N 
ATOM      3  C   GLY A   2     -36.648  24.881   3.982  0.00  0.00    +0.243 C 
ATOM      4  H   VAL A   3     -34.738  24.158   3.845  0.00  0.00    +0.150 HD
ENDROOT
BRANCH   2   5
ATOM      5  CA  VAL A   3     -35.975  22.484   4.122  0.00  0.00    +0.171 C 
BRANCH   5   6
ATOM      6  CB  VAL A   3     -35.511  21.701   2.875  0.00  0.00    +0.029 C 
ATOM      7  CG1 VAL A   3     -36.633  20.887   2.222  0.00  0.00    +0.002 C 
ATOM      8  CG2 VAL A   3     -34.841  22.607   1.838  0.00  0.00    +0.002 C 
ENDBRANCH   5   6
BRANCH   5  10
ATOM      9  OXT VAL A   3     -35.179  22.665   6.410  0.00  0.00    -0.248 OA
ATOM     10  C   VAL A   3     -35.423  21.954   5.442  0.00  0.00    +0.332 C 
BRANCH  10  11
ATOM     11  O   VAL A   3     -35.169  20.622   5.451  0.00  0.00    -0.479 OA
ATOM     12  H   VAL A   3     -35.559  20.066   4.807  0.00  0.00    +0.295 HD
ENDBRANCH  10  11
ENDBRANCH   5  10
ENDBRANCH   2   5
BRANCH   3  13
ATOM     13  CA  GLY A   2     -36.054  26.257   3.767  0.00  0.00    +0.176 C 
BRANCH  13  15
ATOM     14  O   GLY A   1     -33.251  25.664   4.167  0.00  0.00    -0.277 OA
ATOM     15  N   GLY A   2     -35.236  26.600   4.922  0.00  0.00    -0.298 N 
ATOM     16  C   GLY A   1     -33.898  26.270   5.018  0.00  0.00    +0.201 C 
ATOM     17  H   GLY A   2     -35.656  27.088   5.666  0.00  0.00    +0.150 HD
BRANCH  16  18
ATOM     18  CA  GLY A   1     -33.308  26.721   6.338  0.00  0.00    +0.001 C 
BRANCH  18  19
ATOM     19  N   GLY A   1     -32.537  27.935   6.116  0.00  0.00    +0.386 N 
ATOM     20  H1  GLY A   1     -31.564  27.773   6.373  0.00  0.00    -0.089 HD
ATOM     21  H2  GLY A   1     -32.918  28.690   6.688  0.00  0.00    -0.089 HD
ATOM     22  H3  GLY A   1     -32.590  28.196   5.132  0.00  0.00    -0.089 HD
ENDBRANCH  18  19
ENDBRANCH  16  18
ENDBRANCH  13  15
ENDBRANCH   3  13
TORSDOF 8
ENDMDL
MODEL 3
REMARK VINA RESULT:      -5.0      4.257      6.473
REMARK  Name = 193555
REMARK  8 active torsions:
REMARK  status: ('A' for Active; 'I' for Inactive)
REMARK    1  A    between atoms: N_2  and  CA_5
REMARK    2  A    between atoms: C_3  and  CA_13
REMARK    3  A    between atoms: CA_5  and  CB_6
REMARK    4  A    between atoms: CA_5  and  C_10
REMARK    5  A    between atoms: C_10  and  O_11
REMARK    6  A    between atoms: CA_13  and  N_15
REMARK    7  A    between atoms: C_16  and  CA_18
REMARK    8  A    between atoms: CA_18  and  N_19
REMARK                            x       y       z     vdW  Elec       q    Type
REMARK                         _______ _______ _______ _____ _____    ______ ____
ROOT
ATOM      1  O   GLY A   2     -33.349  25.480   3.879  0.00  0.00    -0.273 OA
ATOM      2  N   VAL A   3     -35.264  25.171   5.156  0.00  0.00    -0.295 N 
ATOM      3  C   GLY A   2     -34.001  25.684   4.900  0.00  0.00    +0.243 C 
ATOM      4  H   VAL A   3     -35.698  25.398   6.009  0.00  0.00    +0.150 HD
ENDROOT
BRANCH   2   5
ATOM      5  CA  VAL A   3     -35.976  24.318   4.230  0.00  0.00    +0.171 C 
BRANCH   5   6
ATOM      6  CB  VAL A   3     -35.979  22.861   4.743  0.00  0.00    +0.029 C 
ATOM      7  CG1 VAL A   3     -35.466  21.857   3.708  0.00  0.00    +0.002 C 
ATOM      8  CG2 VAL A   3     -35.209  22.709   6.057  0.00  0.00    +0.002 C 
ENDBRANCH   5   6
BRANCH   5  10
ATOM      9  OXT VAL A   3     -38.317  24.191   3.597  0.00  0.00    -0.248 OA
ATOM     10  C   VAL A   3     -37.360  24.883   3.925  0.00  0.00    +0.332 C 
BRANCH  10  11
ATOM     11  O   VAL A   3     -37.445  26.234   3.996  0.00  0.00    -0.479 OA
ATOM     12  H   VAL A   3     -37.192  26.759   3.263  0.00  0.00    +0.295 HD
ENDBRANCH  10  11
ENDBRANCH   5  10
ENDBRANCH   2   5
BRANCH   3  13
ATOM     13  CA  GLY A   2     -33.487  26.518   6.056  0.00  0.00    +0.176 C 
BRANCH  13  15
ATOM     14  O   GLY A   1     -30.827  27.626   6.323  0.00  0.00    -0.277 OA
ATOM     15  N   GLY A   2     -33.005  27.791   5.537  0.00  0.00    -0.298 N 
ATOM     16  C   GLY A   1     -31.708  28.232   5.719  0.00  0.00    +0.201 C 
ATOM     17  H   GLY A   2     -33.631  28.360   5.035  0.00  0.00    +0.150 HD
BRANCH  16  18
ATOM     18  CA  GLY A   1     -31.496  29.600   5.103  0.00  0.00    +0.001 C 
BRANCH  18  19
ATOM     19  N   GLY A   1     -32.668  30.421   5.370  0.00  0.00    +0.386 N 
ATOM     20  H1  GLY A   1     -33.409  29.839   5.761  0.00  0.00    -0.089 HD
ATOM     21  H2  GLY A   1     -32.992  30.845   4.500  0.00  0.00    -0.089 HD
ATOM     22  H3  GLY A   1     -32.424  31.155   6.035  0.00  0.00    -0.089 HD
ENDBRANCH  18  19
ENDBRANCH  16  18
ENDBRANCH  13  15
ENDBRANCH   3  13
TORSDOF 8
ENDMDL
MODEL 4
REMARK VINA RESULT:      -4.9      2.773      4.617
REMARK  Name = 193555
REMARK  8 active torsions:
REMARK  status: ('A' for Active; 'I' for Inactive)
REMARK    1  A    between atoms: N_2  and  CA_5
REMARK    2  A    between atoms: C_3  and  CA_13
REMARK    3  A    between atoms: CA_5  and  CB_6
REMARK    4  A    between atoms: CA_5  and  C_10
REMARK    5  A    between atoms: C_10  and  O_11
REMARK    6  A    between atoms: CA_13  and  N_15
REMARK    7  A    between atoms: C_16  and  CA_18
REMARK    8  A    between atoms: CA_18  and  N_19
REMARK                            x       y       z     vdW  Elec       q    Type
REMARK                         _______ _______ _______ _____ _____    ______ ____
ROOT
ATOM      1  O   GLY A   2     -37.825  24.685   4.170  0.00  0.00    -0.273 OA
ATOM      2  N   VAL A   3     -35.739  23.667   4.094  0.00  0.00    -0.295 N 
ATOM      3  C   GLY A   2     -36.645  24.631   4.510  0.00  0.00    +0.243 C 
ATOM      4  H   VAL A   3     -34.815  23.717   4.429  0.00  0.00    +0.150 HD
ENDROOT
BRANCH   2   5
ATOM      5  CA  VAL A   3     -36.084  22.590   3.193  0.00  0.00    +0.171 C 
BRANCH   5   6
ATOM      6  CB  VAL A   3     -35.689  22.960   1.746  0.00  0.00    +0.029 C 
ATOM      7  CG1 VAL A   3     -36.862  23.487   0.916  0.00  0.00    +0.002 C 
ATOM      8  CG2 VAL A   3     -34.520  23.948   1.700  0.00  0.00    +0.002 C 
ENDBRANCH   5   6
BRANCH   5  10
ATOM      9  OXT VAL A   3     -35.156  20.360   2.936  0.00  0.00    -0.248 OA
ATOM     10  C   VAL A   3     -35.511  21.264   3.684  0.00  0.00    +0.332 C 
BRANCH  10  11
ATOM     11  O   VAL A   3     -35.468  21.135   5.033  0.00  0.00    -0.479 OA
ATOM     12  H   VAL A   3     -36.234  21.303   5.545  0.00  0.00    +0.295 HD
ENDBRANCH  10  11
ENDBRANCH   5  10
ENDBRANCH   2   5
BRANCH   3  13
ATOM     13  CA  GLY A   2     -36.003  25.651   5.426  0.00  0.00    +0.176 C 
BRANCH  13  15
ATOM     14  O   GLY A   1     -33.324  25.909   4.365  0.00  0.00    -0.277 OA
ATOM     15  N   GLY A   2     -35.476  26.741   4.617  0.00  0.00    -0.298 N 
ATOM     16  C   GLY A   1     -34.174  26.771   4.155  0.00  0.00    +0.201 C 
ATOM     17  H   GLY A   2     -36.074  27.489   4.389  0.00  0.00    +0.150 HD
BRANCH  16  18
ATOM     18  CA  GLY A   1     -33.892  28.035   3.369  0.00  0.00    +0.001 C 
BRANCH  18  19
ATOM     19  N   GLY A   1     -35.127  28.794   3.245  0.00  0.00    +0.386 N 
ATOM     20  H1  GLY A   1     -34.994  29.727   3.634  0.00  0.00    -0.089 HD
ATOM     21  H2  GLY A   1     -35.873  28.317   3.754  0.00  0.00    -0.089 HD
ATOM     22  H3  GLY A   1     -35.383  28.868   2.261  0.00  0.00    -0.089 HD
ENDBRANCH  18  19
ENDBRANCH  16  18
ENDBRANCH  13  15
ENDBRANCH   3  13
TORSDOF 8
ENDMDL
MODEL 5
REMARK VINA RESULT:      -4.9      1.777      2.515
REMARK  Name = 193555
REMARK  8 active torsions:
REMARK  status: ('A' for Active; 'I' for Inactive)
REMARK    1  A    between atoms: N_2  and  CA_5
REMARK    2  A    between atoms: C_3  and  CA_13
REMARK    3  A    between atoms: CA_5  and  CB_6
REMARK    4  A    between atoms: CA_5  and  C_10
REMARK    5  A    between atoms: C_10  and  O_11
REMARK    6  A    between atoms: CA_13  and  N_15
REMARK    7  A    between atoms: C_16  and  CA_18
REMARK    8  A    between atoms: CA_18  and  N_19
REMARK                            x       y       z     vdW  Elec       q    Type
REMARK                         _______ _______ _______ _____ _____    ______ ____
ROOT
ATOM      1  O   GLY A   2     -36.211  22.220   1.992  0.00  0.00    -0.273 OA
ATOM      2  N   VAL A   3     -36.748  23.200   4.027  0.00  0.00    -0.295 N 
ATOM      3  C   GLY A   2     -37.015  22.783   2.731  0.00  0.00    +0.243 C 
ATOM      4  H   VAL A   3     -37.467  23.642   4.534  0.00  0.00    +0.150 HD
ENDROOT
BRANCH   2   5
ATOM      5  CA  VAL A   3     -35.467  23.017   4.671  0.00  0.00    +0.171 C 
BRANCH   5   6
ATOM      6  CB  VAL A   3     -34.940  24.368   5.201  0.00  0.00    +0.029 C 
ATOM      7  CG1 VAL A   3     -33.859  24.985   4.310  0.00  0.00    +0.002 C 
ATOM      8  CG2 VAL A   3     -36.068  25.376   5.441  0.00  0.00    +0.002 C 
ENDBRANCH   5   6
BRANCH   5  10
ATOM      9  OXT VAL A   3     -35.939  22.091   6.867  0.00  0.00    -0.248 OA
ATOM     10  C   VAL A   3     -35.539  21.912   5.722  0.00  0.00    +0.332 C 
BRANCH  10  11
ATOM     11  O   VAL A   3     -35.075  20.709   5.306  0.00  0.00    -0.479 OA
ATOM     12  H   VAL A   3     -34.187  20.465   5.475  0.00  0.00    +0.295 HD
ENDBRANCH  10  11
ENDBRANCH   5  10
ENDBRANCH   2   5
BRANCH   3  13
ATOM     13  CA  GLY A   2     -38.426  23.130   2.306  0.00  0.00    +0.176 C 
BRANCH  13  15
ATOM     14  O   GLY A   1     -40.443  21.083   1.973  0.00  0.00    -0.277 OA
ATOM     15  N   GLY A   2     -38.744  22.394   1.090  0.00  0.00    -0.298 N 
ATOM     16  C   GLY A   1     -39.731  21.429   1.034  0.00  0.00    +0.201 C 
ATOM     17  H   GLY A   2     -38.232  22.593   0.273  0.00  0.00    +0.150 HD
BRANCH  16  18
ATOM     18  CA  GLY A   1     -39.821  20.806  -0.344  0.00  0.00    +0.001 C 
BRANCH  18  19
ATOM     19  N   GLY A   1     -38.734  21.322  -1.163  0.00  0.00    +0.386 N 
ATOM     20  H1  GLY A   1     -38.020  20.602  -1.273  0.00  0.00    -0.089 HD
ATOM     21  H2  GLY A   1     -38.324  22.139  -0.709  0.00  0.00    -0.089 HD
ATOM     22  H3  GLY A   1     -39.095  21.587  -2.079  0.00  0.00    -0.089 HD
ENDBRANCH  18  19
ENDBRANCH  16  18
ENDBRANCH  13  15
ENDBRANCH   3  13
TORSDOF 8
ENDMDL
MODEL 6
REMARK VINA RESULT:      -4.9      2.518      3.544
REMARK  Name = 193555
REMARK  8 active torsions:
REMARK  status: ('A' for Active; 'I' for Inactive)
REMARK    1  A    between atoms: N_2  and  CA_5
REMARK    2  A    between atoms: C_3  and  CA_13
REMARK    3  A    between atoms: CA_5  and  CB_6
REMARK    4  A    between atoms: CA_5  and  C_10
REMARK    5  A    between atoms: C_10  and  O_11
REMARK    6  A    between atoms: CA_13  and  N_15
REMARK    7  A    between atoms: C_16  and  CA_18
REMARK    8  A    between atoms: CA_18  and  N_19
REMARK                            x       y       z     vdW  Elec       q    Type
REMARK                         _______ _______ _______ _____ _____    ______ ____
ROOT
ATOM      1  O   GLY A   2     -35.417  21.641   2.058  0.00  0.00    -0.273 OA
ATOM      2  N   VAL A   3     -36.639  22.521   3.826  0.00  0.00    -0.295 N 
ATOM      3  C   GLY A   2     -36.492  21.916   2.587  0.00  0.00    +0.243 C 
ATOM      4  H   VAL A   3     -37.549  22.696   4.157  0.00  0.00    +0.150 HD
ENDROOT
BRANCH   2   5
ATOM      5  CA  VAL A   3     -35.521  22.906   4.658  0.00  0.00    +0.171 C 
BRANCH   5   6
ATOM      6  CB  VAL A   3     -35.640  24.394   5.054  0.00  0.00    +0.029 C 
ATOM      7  CG1 VAL A   3     -34.373  25.201   4.753  0.00  0.00    +0.002 C 
ATOM      8  CG2 VAL A   3     -36.860  25.066   4.419  0.00  0.00    +0.002 C 
ENDBRANCH   5   6
BRANCH   5  10
ATOM      9  OXT VAL A   3     -35.221  22.322   6.997  0.00  0.00    -0.248 OA
ATOM     10  C   VAL A   3     -35.365  21.950   5.837  0.00  0.00    +0.332 C 
BRANCH  10  11
ATOM     11  O   VAL A   3     -35.349  20.638   5.500  0.00  0.00    -0.479 OA
ATOM     12  H   VAL A   3     -36.129  20.125   5.573  0.00  0.00    +0.295 HD
ENDBRANCH  10  11
ENDBRANCH   5  10
ENDBRANCH   2   5
BRANCH   3  13
ATOM     13  CA  GLY A   2     -37.829  21.652   1.926  0.00  0.00    +0.176 C 
BRANCH  13  15
ATOM     14  O   GLY A   1     -38.813  21.051  -0.728  0.00  0.00    -0.277 OA
ATOM     15  N   GLY A   2     -37.763  20.374   1.229  0.00  0.00    -0.298 N 
ATOM     16  C   GLY A   1     -38.264  20.189  -0.045  0.00  0.00    +0.201 C 
ATOM     17  H   GLY A   2     -37.342  19.611   1.686  0.00  0.00    +0.150 HD
BRANCH  16  18
ATOM     18  CA  GLY A   1     -38.089  18.757  -0.508  0.00  0.00    +0.001 C 
BRANCH  18  19
ATOM     19  N   GLY A   1     -37.190  18.075   0.411  0.00  0.00    +0.386 N 
ATOM     20  H1  GLY A   1     -36.363  17.756  -0.094  0.00  0.00    -0.089 HD
ATOM     21  H2  GLY A   1     -37.667  17.272   0.821  0.00  0.00    -0.089 HD
ATOM     22  H3  GLY A   1     -36.909  18.717   1.152  0.00  0.00    -0.089 HD
ENDBRANCH  18  19
ENDBRANCH  16  18
ENDBRANCH  13  15
ENDBRANCH   3  13
TORSDOF 8
ENDMDL
MODEL 7
REMARK VINA RESULT:      -4.8      3.843      6.131
REMARK  Name = 193555
REMARK  8 active torsions:
REMARK  status: ('A' for Active; 'I' for Inactive)
REMARK    1  A    between atoms: N_2  and  CA_5
REMARK    2  A    between atoms: C_3  and  CA_13
REMARK    3  A    between atoms: CA_5  and  CB_6
REMARK    4  A    between atoms: CA_5  and  C_10
REMARK    5  A    between atoms: C_10  and  O_11
REMARK    6  A    between atoms: CA_13  and  N_15
REMARK    7  A    between atoms: C_16  and  CA_18
REMARK    8  A    between atoms: CA_18  and  N_19
REMARK                            x       y       z     vdW  Elec       q    Type
REMARK                         _______ _______ _______ _____ _____    ______ ____
ROOT
ATOM      1  O   GLY A   2     -36.089  20.277   2.852  0.00  0.00    -0.273 OA
ATOM      2  N   VAL A   3     -35.499  22.523   2.852  0.00  0.00    -0.295 N 
ATOM      3  C   GLY A   2     -35.425  21.211   2.409  0.00  0.00    +0.243 C 
ATOM      4  H   VAL A   3     -34.920  23.195   2.426  0.00  0.00    +0.150 HD
ENDROOT
BRANCH   2   5
ATOM      5  CA  VAL A   3     -36.386  22.954   3.910  0.00  0.00    +0.171 C 
BRANCH   5   6
ATOM      6  CB  VAL A   3     -35.572  23.339   5.164  0.00  0.00    +0.029 C 
ATOM      7  CG1 VAL A   3     -35.218  22.138   6.045  0.00  0.00    +0.002 C 
ATOM      8  CG2 VAL A   3     -34.308  24.130   4.814  0.00  0.00    +0.002 C 
ENDBRANCH   5   6
BRANCH   5  10
ATOM      9  OXT VAL A   3     -37.652  24.181   2.238  0.00  0.00    -0.248 OA
ATOM     10  C   VAL A   3     -37.334  24.043   3.414  0.00  0.00    +0.332 C 
BRANCH  10  11
ATOM     11  O   VAL A   3     -37.769  24.892   4.377  0.00  0.00    -0.479 OA
ATOM     12  H   VAL A   3     -37.245  25.627   4.625  0.00  0.00    +0.295 HD
ENDBRANCH  10  11
ENDBRANCH   5  10
ENDBRANCH   2   5
BRANCH   3  13
ATOM     13  CA  GLY A   2     -34.390  21.042   1.316  0.00  0.00    +0.176 C 
BRANCH  13  15
ATOM     14  O   GLY A   1     -31.844  20.061   0.355  0.00  0.00    -0.277 OA
ATOM     15  N   GLY A   2     -33.913  19.666   1.331  0.00  0.00    -0.298 N 
ATOM     16  C   GLY A   1     -32.673  19.298   0.845  0.00  0.00    +0.201 C 
ATOM     17  H   GLY A   2     -34.499  18.969   1.703  0.00  0.00    +0.150 HD
BRANCH  16  18
ATOM     18  CA  GLY A   1     -32.454  17.804   0.957  0.00  0.00    +0.001 C 
BRANCH  18  19
ATOM     19  N   GLY A   1     -31.143  17.565   1.544  0.00  0.00    +0.386 N 
ATOM     20  H1  GLY A   1     -31.243  17.407   2.547  0.00  0.00    -0.089 HD
ATOM     21  H2  GLY A   1     -30.546  18.377   1.385  0.00  0.00    -0.089 HD
ATOM     22  H3  GLY A   1     -30.721  16.744   1.110  0.00  0.00    -0.089 HD
ENDBRANCH  18  19
ENDBRANCH  16  18
ENDBRANCH  13  15
ENDBRANCH   3  13
TORSDOF 8
ENDMDL
MODEL 8
REMARK VINA RESULT:      -4.8      2.525      3.557
REMARK  Name = 193555
REMARK  8 active torsions:
REMARK  status: ('A' for Active; 'I' for Inactive)
REMARK    1  A    between atoms: N_2  and  CA_5
REMARK    2  A    between atoms: C_3  and  CA_13
REMARK    3  A    between atoms: CA_5  and  CB_6
REMARK    4  A    between atoms: CA_5  and  C_10
REMARK    5  A    between atoms: C_10  and  O_11
REMARK    6  A    between atoms: CA_13  and  N_15
REMARK    7  A    between atoms: C_16  and  CA_18
REMARK    8  A    between atoms: CA_18  and  N_19
REMARK                            x       y       z     vdW  Elec       q    Type
REMARK                         _______ _______ _______ _____ _____    ______ ____
ROOT
ATOM      1  O   GLY A   2     -38.894  24.730   3.919  0.00  0.00    -0.273 OA
ATOM      2  N   VAL A   3     -36.659  24.266   3.492  0.00  0.00    -0.295 N 
ATOM      3  C   GLY A   2     -37.968  24.547   3.131  0.00  0.00    +0.243 C 
ATOM      4  H   VAL A   3     -35.994  24.138   2.778  0.00  0.00    +0.150 HD
ENDROOT
BRANCH   2   5
ATOM      5  CA  VAL A   3     -36.221  24.154   4.865  0.00  0.00    +0.171 C 
BRANCH   5   6
ATOM      6  CB  VAL A   3     -35.273  22.945   5.024  0.00  0.00    +0.029 C 
ATOM      7  CG1 VAL A   3     -35.402  22.254   6.384  0.00  0.00    +0.002 C 
ATOM      8  CG2 VAL A   3     -35.440  21.926   3.893  0.00  0.00    +0.002 C 
ENDBRANCH   5   6
BRANCH   5  10
ATOM      9  OXT VAL A   3     -34.481  25.617   5.723  0.00  0.00    -0.248 OA
ATOM     10  C   VAL A   3     -35.644  25.477   5.362  0.00  0.00    +0.332 C 
BRANCH  10  11
ATOM     11  O   VAL A   3     -36.540  26.493   5.425  0.00  0.00    -0.479 OA
ATOM     12  H   VAL A   3     -36.250  27.379   5.337  0.00  0.00    +0.295 HD
ENDBRANCH  10  11
ENDBRANCH   5  10
ENDBRANCH   2   5
BRANCH   3  13
ATOM     13  CA  GLY A   2     -38.146  24.575   1.628  0.00  0.00    +0.176 C 
BRANCH  13  15
ATOM     14  O   GLY A   1     -40.835  23.536   1.376  0.00  0.00    -0.277 OA
ATOM     15  N   GLY A   2     -38.540  23.247   1.178  0.00  0.00    -0.298 N 
ATOM     16  C   GLY A   1     -39.859  22.845   1.092  0.00  0.00    +0.201 C 
ATOM     17  H   GLY A   2     -37.835  22.608   0.924  0.00  0.00    +0.150 HD
BRANCH  16  18
ATOM     18  CA  GLY A   1     -39.973  21.408   0.628  0.00  0.00    +0.001 C 
BRANCH  18  19
ATOM     19  N   GLY A   1     -41.275  21.218   0.006  0.00  0.00    +0.386 N 
ATOM     20  H1  GLY A   1     -41.454  21.980  -0.649  0.00  0.00    -0.089 HD
ATOM     21  H2  GLY A   1     -41.999  21.212   0.726  0.00  0.00    -0.089 HD
ATOM     22  H3  GLY A   1     -41.287  20.329  -0.494  0.00  0.00    -0.089 HD
ENDBRANCH  18  19
ENDBRANCH  16  18
ENDBRANCH  13  15
ENDBRANCH   3  13
TORSDOF 8
ENDMDL
MODEL 9
REMARK VINA RESULT:      -4.8      5.062      6.634
REMARK  Name = 193555
REMARK  8 active torsions:
REMARK  status: ('A' for Active; 'I' for Inactive)
REMARK    1  A    between atoms: N_2  and  CA_5
REMARK    2  A    between atoms: C_3  and  CA_13
REMARK    3  A    between atoms: CA_5  and  CB_6
REMARK    4  A    between atoms: CA_5  and  C_10
REMARK    5  A    between atoms: C_10  and  O_11
REMARK    6  A    between atoms: CA_13  and  N_15
REMARK    7  A    between atoms: C_16  and  CA_18
REMARK    8  A    between atoms: CA_18  and  N_19
REMARK                            x       y       z     vdW  Elec       q    Type
REMARK                         _______ _______ _______ _____ _____    ______ ____
ROOT
ATOM      1  O   GLY A   2     -32.506  26.393   3.598  0.00  0.00    -0.273 OA
ATOM      2  N   VAL A   3     -33.126  28.034   5.120  0.00  0.00    -0.295 N 
ATOM      3  C   GLY A   2     -33.320  26.875   4.382  0.00  0.00    +0.243 C 
ATOM      4  H   VAL A   3     -33.846  28.333   5.720  0.00  0.00    +0.150 HD
ENDROOT
BRANCH   2   5
ATOM      5  CA  VAL A   3     -31.918  28.825   5.050  0.00  0.00    +0.171 C 
BRANCH   5   6
ATOM      6  CB  VAL A   3     -32.269  30.320   4.887  0.00  0.00    +0.029 C 
ATOM      7  CG1 VAL A   3     -31.036  31.225   4.823  0.00  0.00    +0.002 C 
ATOM      8  CG2 VAL A   3     -33.176  30.573   3.679  0.00  0.00    +0.002 C 
ENDBRANCH   5   6
BRANCH   5  10
ATOM      9  OXT VAL A   3     -29.983  27.838   6.138  0.00  0.00    -0.248 OA
ATOM     10  C   VAL A   3     -30.999  28.518   6.229  0.00  0.00    +0.332 C 
BRANCH  10  11
ATOM     11  O   VAL A   3     -31.420  29.020   7.417  0.00  0.00    -0.479 OA
ATOM     12  H   VAL A   3     -32.075  28.568   7.910  0.00  0.00    +0.295 HD
ENDBRANCH  10  11
ENDBRANCH   5  10
ENDBRANCH   2   5
BRANCH   3  13
ATOM     13  CA  GLY A   2     -34.687  26.272   4.630  0.00  0.00    +0.176 C 
BRANCH  13  15
ATOM     14  O   GLY A   1     -36.778  24.280   4.809  0.00  0.00    -0.277 OA
ATOM     15  N   GLY A   2     -34.529  24.848   4.896  0.00  0.00    -0.298 N 
ATOM     16  C   GLY A   1     -35.597  23.975   4.962  0.00  0.00    +0.201 C 
ATOM     17  H   GLY A   2     -33.621  24.494   5.036  0.00  0.00    +0.150 HD
BRANCH  16  18
ATOM     18  CA  GLY A   1     -35.144  22.566   5.285  0.00  0.00    +0.001 C 
BRANCH  18  19
ATOM     19  N   GLY A   1     -36.008  22.023   6.323  0.00  0.00    +0.386 N 
ATOM     20  H1  GLY A   1     -35.477  21.373   6.903  0.00  0.00    -0.089 HD
ATOM     21  H2  GLY A   1     -36.791  21.530   5.891  0.00  0.00    -0.089 HD
ATOM     22  H3  GLY A   1     -36.363  22.784   6.902  0.00  0.00    -0.089 HD
ENDBRANCH  18  19
ENDBRANCH  16  18
ENDBRANCH  13  15
ENDBRANCH   3  13
TORSDOF 8
ENDMDL
