MODEL 1
REMARK VINA RESULT:      -7.1      0.000      0.000
REMARK  Name = 54712148
REMARK  6 active torsions:
REMARK  status: ('A' for Active; 'I' for Inactive)
REMARK    1  A    between atoms: C_3  and  C_12
REMARK    2  A    between atoms: C_4  and  O_34
REMARK    3  A    between atoms: C_5  and  C_21
REMARK    4  A    between atoms: C_12  and  O_16
REMARK    5  A    between atoms: C_13  and  O_18
REMARK    6  A    between atoms: C_21  and  C_24
REMARK                            x       y       z     vdW  Elec       q    Type
REMARK                         _______ _______ _______ _____ _____    ______ ____
ROOT
ATOM      1  O   UNL     1     -39.120  22.664   0.390  0.00  0.00    -0.270 OA
ATOM      2  N   UNL     1     -41.111  23.730   0.812  0.00  0.00    -0.279 N 
ATOM      3  C   UNL     1     -41.199  25.702   2.108  0.00  0.00    +0.053 C 
ATOM      4  C   UNL     1     -39.750  25.637   2.272  0.00  0.00    +0.140 C 
ATOM      5  C   UNL     1     -39.025  24.641   1.716  0.00  0.00    +0.122 C 
ATOM      6  C   UNL     1     -41.815  24.752   1.389  0.00  0.00    +0.065 C 
ATOM      7  C   UNL     1     -39.741  23.587   0.913  0.00  0.00    +0.255 C 
ATOM      8  H   UNL     1     -41.611  23.058   0.295  0.00  0.00    +0.155 HD
ENDROOT
BRANCH   3  12
ATOM      9  O   UNL     1     -42.313  29.275   2.605  0.00  0.00    -0.348 OA
ATOM     10  C   UNL     1     -42.056  28.058   1.871  0.00  0.00    +0.173 C 
ATOM     11  C   UNL     1     -43.334  28.843   1.705  0.00  0.00    +0.172 C 
ATOM     12  C   UNL     1     -41.998  26.814   2.731  0.00  0.00    +0.138 C 
ATOM     13  C   UNL     1     -44.601  28.378   2.346  0.00  0.00    +0.140 C 
ATOM     14  C   UNL     1     -43.409  26.276   3.048  0.00  0.00    +0.036 C 
ATOM     15  C   UNL     1     -44.362  27.388   3.486  0.00  0.00    +0.035 C 
BRANCH  12  16
ATOM     16  O   UNL     1     -41.369  27.143   3.976  0.00  0.00    -0.380 OA
ATOM     17  H   UNL     1     -42.047  27.375   4.630  0.00  0.00    +0.211 HD
ENDBRANCH  12  16
BRANCH  13  18
ATOM     18  O   UNL     1     -45.314  29.508   2.837  0.00  0.00    -0.382 OA
ATOM     19  H   UNL     1     -46.097  29.210   3.325  0.00  0.00    +0.210 HD
ENDBRANCH  13  18
ENDBRANCH   3  12
BRANCH   5  21
ATOM     20  O   UNL     1     -36.822  25.143   1.081  0.00  0.00    -0.291 OA
ATOM     21  C   UNL     1     -37.563  24.602   1.899  0.00  0.00    +0.180 C 
BRANCH  21  24
ATOM     22  C   UNL     1     -35.849  24.648   3.757  0.00  0.00    +0.012 C 
ATOM     23  C   UNL     1     -35.452  23.938   5.076  0.00  0.00    +0.022 C 
ATOM     24  C   UNL     1     -37.028  23.895   3.110  0.00  0.00    +0.066 C 
ATOM     25  C   UNL     1     -36.137  26.128   4.055  0.00  0.00    +0.001 C 
ATOM     26  C   UNL     1     -34.181  24.581   5.647  0.00  0.00    +0.004 C 
ATOM     27  C   UNL     1     -34.402  26.079   5.921  0.00  0.00    +0.000 C 
ATOM     28  C   UNL     1     -34.911  26.809   4.670  0.00  0.00    +0.000 C 
ATOM     29  C   UNL     1     -36.636  22.432   2.763  0.00  0.00    +0.029 C 
ATOM     30  C   UNL     1     -35.316  22.450   4.906  0.00  0.00    -0.031 C 
ATOM     31  C   UNL     1     -35.850  21.780   3.876  0.00  0.00    -0.031 C 
ATOM     32  C   UNL     1     -33.120  26.727   6.439  0.00  0.00    +0.000 C 
ATOM     33  C   UNL     1     -35.830  22.290   1.464  0.00  0.00    +0.005 C 
ENDBRANCH  21  24
ENDBRANCH   5  21
BRANCH   4  34
ATOM     34  O   UNL     1     -39.134  26.628   3.017  0.00  0.00    -0.505 OA
ATOM     35  H   UNL     1     -38.223  26.807   2.898  0.00  0.00    +0.292 HD
ENDBRANCH   4  34
TORSDOF 6
ENDMDL
MODEL 2
REMARK VINA RESULT:      -7.0      4.473      7.628
REMARK  Name = 54712148
REMARK  6 active torsions:
REMARK  status: ('A' for Active; 'I' for Inactive)
REMARK    1  A    between atoms: C_3  and  C_12
REMARK    2  A    between atoms: C_4  and  O_34
REMARK    3  A    between atoms: C_5  and  C_21
REMARK    4  A    between atoms: C_12  and  O_16
REMARK    5  A    between atoms: C_13  and  O_18
REMARK    6  A    between atoms: C_21  and  C_24
REMARK                            x       y       z     vdW  Elec       q    Type
REMARK                         _______ _______ _______ _____ _____    ______ ____
ROOT
ATOM      1  O   UNL     1     -38.629  19.634  -0.318  0.00  0.00    -0.270 OA
ATOM      2  N   UNL     1     -39.012  21.167   1.350  0.00  0.00    -0.279 N 
ATOM      3  C   UNL     1     -37.243  22.397   2.317  0.00  0.00    +0.053 C 
ATOM      4  C   UNL     1     -36.306  21.711   1.433  0.00  0.00    +0.140 C 
ATOM      5  C   UNL     1     -36.730  20.785   0.544  0.00  0.00    +0.122 C 
ATOM      6  C   UNL     1     -38.548  22.098   2.239  0.00  0.00    +0.065 C 
ATOM      7  C   UNL     1     -38.201  20.469   0.476  0.00  0.00    +0.255 C 
ATOM      8  H   UNL     1     -39.979  20.984   1.333  0.00  0.00    +0.155 HD
ENDROOT
BRANCH   3  12
ATOM      9  O   UNL     1     -35.964  23.634   5.646  0.00  0.00    -0.348 OA
ATOM     10  C   UNL     1     -35.973  22.829   4.449  0.00  0.00    +0.173 C 
ATOM     11  C   UNL     1     -34.717  23.485   4.967  0.00  0.00    +0.172 C 
ATOM     12  C   UNL     1     -36.762  23.426   3.304  0.00  0.00    +0.138 C 
ATOM     13  C   UNL     1     -34.183  24.722   4.323  0.00  0.00    +0.140 C 
ATOM     14  C   UNL     1     -35.940  24.483   2.538  0.00  0.00    +0.036 C 
ATOM     15  C   UNL     1     -35.230  25.453   3.481  0.00  0.00    +0.035 C 
BRANCH  12  16
ATOM     16  O   UNL     1     -37.922  24.080   3.835  0.00  0.00    -0.380 OA
ATOM     17  H   UNL     1     -38.417  24.498   3.113  0.00  0.00    +0.211 HD
ENDBRANCH  12  16
BRANCH  13  18
ATOM     18  O   UNL     1     -33.689  25.595   5.333  0.00  0.00    -0.382 OA
ATOM     19  H   UNL     1     -33.687  25.133   6.186  0.00  0.00    +0.210 HD
ENDBRANCH  13  18
ENDBRANCH   3  12
BRANCH   5  21
ATOM     20  O   UNL     1     -35.345  20.671  -1.347  0.00  0.00    -0.291 OA
ATOM     21  C   UNL     1     -35.761  20.109  -0.336  0.00  0.00    +0.180 C 
BRANCH  21  24
ATOM     22  C   UNL     1     -33.778  18.560  -0.082  0.00  0.00    +0.012 C 
ATOM     23  C   UNL     1     -33.370  17.174   0.475  0.00  0.00    +0.022 C 
ATOM     24  C   UNL     1     -35.303  18.732   0.053  0.00  0.00    +0.066 C 
ATOM     25  C   UNL     1     -32.958  19.645   0.633  0.00  0.00    +0.001 C 
ATOM     26  C   UNL     1     -31.880  16.924   0.201  0.00  0.00    +0.004 C 
ATOM     27  C   UNL     1     -31.015  18.012   0.859  0.00  0.00    +0.000 C 
ATOM     28  C   UNL     1     -31.457  19.418   0.428  0.00  0.00    +0.000 C 
ATOM     29  C   UNL     1     -36.065  17.650  -0.761  0.00  0.00    +0.029 C 
ATOM     30  C   UNL     1     -34.243  16.066  -0.050  0.00  0.00    -0.031 C 
ATOM     31  C   UNL     1     -35.447  16.282  -0.595  0.00  0.00    -0.031 C 
ATOM     32  C   UNL     1     -29.537  17.792   0.540  0.00  0.00    +0.000 C 
ATOM     33  C   UNL     1     -36.163  17.950  -2.264  0.00  0.00    +0.005 C 
ENDBRANCH  21  24
ENDBRANCH   5  21
BRANCH   4  34
ATOM     34  O   UNL     1     -34.963  22.034   1.530  0.00  0.00    -0.505 OA
ATOM     35  H   UNL     1     -34.345  21.651   0.940  0.00  0.00    +0.292 HD
ENDBRANCH   4  34
TORSDOF 6
ENDMDL
MODEL 3
REMARK VINA RESULT:      -7.0      5.115      7.923
REMARK  Name = 54712148
REMARK  6 active torsions:
REMARK  status: ('A' for Active; 'I' for Inactive)
REMARK    1  A    between atoms: C_3  and  C_12
REMARK    2  A    between atoms: C_4  and  O_34
REMARK    3  A    between atoms: C_5  and  C_21
REMARK    4  A    between atoms: C_12  and  O_16
REMARK    5  A    between atoms: C_13  and  O_18
REMARK    6  A    between atoms: C_21  and  C_24
REMARK                            x       y       z     vdW  Elec       q    Type
REMARK                         _______ _______ _______ _____ _____    ______ ____
ROOT
ATOM      1  O   UNL     1     -33.758  28.362   0.181  0.00  0.00    -0.270 OA
ATOM      2  N   UNL     1     -34.506  26.237   0.630  0.00  0.00    -0.279 N 
ATOM      3  C   UNL     1     -35.216  25.617   2.795  0.00  0.00    +0.053 C 
ATOM      4  C   UNL     1     -34.922  26.969   3.259  0.00  0.00    +0.140 C 
ATOM      5  C   UNL     1     -34.435  27.909   2.419  0.00  0.00    +0.122 C 
ATOM      6  C   UNL     1     -34.997  25.310   1.508  0.00  0.00    +0.065 C 
ATOM      7  C   UNL     1     -34.199  27.538   0.978  0.00  0.00    +0.255 C 
ATOM      8  H   UNL     1     -34.363  25.960  -0.304  0.00  0.00    +0.155 HD
ENDROOT
BRANCH   3  12
ATOM      9  O   UNL     1     -37.107  22.493   3.750  0.00  0.00    -0.348 OA
ATOM     10  C   UNL     1     -36.124  23.281   3.048  0.00  0.00    +0.173 C 
ATOM     11  C   UNL     1     -35.793  21.941   3.659  0.00  0.00    +0.172 C 
ATOM     12  C   UNL     1     -35.757  24.577   3.738  0.00  0.00    +0.138 C 
ATOM     13  C   UNL     1     -35.040  21.857   4.946  0.00  0.00    +0.140 C 
ATOM     14  C   UNL     1     -34.718  24.351   4.856  0.00  0.00    +0.036 C 
ATOM     15  C   UNL     1     -35.079  23.161   5.744  0.00  0.00    +0.035 C 
BRANCH  12  16
ATOM     16  O   UNL     1     -36.934  25.125   4.345  0.00  0.00    -0.380 OA
ATOM     17  H   UNL     1     -37.577  25.353   3.655  0.00  0.00    +0.211 HD
ENDBRANCH  12  16
BRANCH  13  18
ATOM     18  O   UNL     1     -35.582  20.801   5.732  0.00  0.00    -0.382 OA
ATOM     19  H   UNL     1     -35.852  21.146   6.597  0.00  0.00    +0.210 HD
ENDBRANCH  13  18
ENDBRANCH   3  12
BRANCH   5  21
ATOM     20  O   UNL     1     -35.037  29.936   3.437  0.00  0.00    -0.291 OA
ATOM     21  C   UNL     1     -34.148  29.266   2.916  0.00  0.00    +0.180 C 
BRANCH  21  24
ATOM     22  C   UNL     1     -32.013  29.881   4.124  0.00  0.00    +0.012 C 
ATOM     23  C   UNL     1     -30.536  30.277   3.877  0.00  0.00    +0.022 C 
ATOM     24  C   UNL     1     -32.745  29.783   2.771  0.00  0.00    +0.066 C 
ATOM     25  C   UNL     1     -32.050  28.588   4.954  0.00  0.00    +0.001 C 
ATOM     26  C   UNL     1     -29.837  30.534   5.219  0.00  0.00    +0.004 C 
ATOM     27  C   UNL     1     -29.887  29.280   6.109  0.00  0.00    +0.000 C 
ATOM     28  C   UNL     1     -31.326  28.777   6.290  0.00  0.00    +0.000 C 
ATOM     29  C   UNL     1     -32.737  31.147   2.028  0.00  0.00    +0.029 C 
ATOM     30  C   UNL     1     -30.405  31.439   2.930  0.00  0.00    -0.031 C 
ATOM     31  C   UNL     1     -31.387  31.821   2.102  0.00  0.00    -0.031 C 
ATOM     32  C   UNL     1     -29.238  29.556   7.464  0.00  0.00    +0.000 C 
ATOM     33  C   UNL     1     -33.794  32.141   2.530  0.00  0.00    +0.005 C 
ENDBRANCH  21  24
ENDBRANCH   5  21
BRANCH   4  34
ATOM     34  O   UNL     1     -35.155  27.265   4.592  0.00  0.00    -0.505 OA
ATOM     35  H   UNL     1     -35.837  26.824   5.057  0.00  0.00    +0.292 HD
ENDBRANCH   4  34
TORSDOF 6
ENDMDL
MODEL 4
REMARK VINA RESULT:      -6.9      5.515      9.550
REMARK  Name = 54712148
REMARK  6 active torsions:
REMARK  status: ('A' for Active; 'I' for Inactive)
REMARK    1  A    between atoms: C_3  and  C_12
REMARK    2  A    between atoms: C_4  and  O_34
REMARK    3  A    between atoms: C_5  and  C_21
REMARK    4  A    between atoms: C_12  and  O_16
REMARK    5  A    between atoms: C_13  and  O_18
REMARK    6  A    between atoms: C_21  and  C_24
REMARK                            x       y       z     vdW  Elec       q    Type
REMARK                         _______ _______ _______ _____ _____    ______ ____
ROOT
ATOM      1  O   UNL     1     -32.355  25.309   1.101  0.00  0.00    -0.270 OA
ATOM      2  N   UNL     1     -30.715  26.717   1.879  0.00  0.00    -0.279 N 
ATOM      3  C   UNL     1     -31.068  28.087   3.770  0.00  0.00    +0.053 C 
ATOM      4  C   UNL     1     -32.418  27.545   3.888  0.00  0.00    +0.140 C 
ATOM      5  C   UNL     1     -32.881  26.621   3.019  0.00  0.00    +0.122 C 
ATOM      6  C   UNL     1     -30.278  27.653   2.777  0.00  0.00    +0.065 C 
ATOM      7  C   UNL     1     -31.974  26.149   1.913  0.00  0.00    +0.255 C 
ATOM      8  H   UNL     1     -30.096  26.432   1.169  0.00  0.00    +0.155 HD
ENDROOT
BRANCH   3  12
ATOM      9  O   UNL     1     -30.344  29.532   7.181  0.00  0.00    -0.348 OA
ATOM     10  C   UNL     1     -30.297  28.553   6.122  0.00  0.00    +0.173 C 
ATOM     11  C   UNL     1     -29.071  28.943   6.911  0.00  0.00    +0.172 C 
ATOM     12  C   UNL     1     -30.560  29.117   4.742  0.00  0.00    +0.138 C 
ATOM     13  C   UNL     1     -28.049  29.861   6.325  0.00  0.00    +0.140 C 
ATOM     14  C   UNL     1     -29.297  29.767   4.142  0.00  0.00    +0.036 C 
ATOM     15  C   UNL     1     -28.585  30.673   5.146  0.00  0.00    +0.035 C 
BRANCH  12  16
ATOM     16  O   UNL     1     -31.565  30.135   4.845  0.00  0.00    -0.380 OA
ATOM     17  H   UNL     1     -31.983  30.265   3.980  0.00  0.00    +0.211 HD
ENDBRANCH  12  16
BRANCH  13  18
ATOM     18  O   UNL     1     -27.583  30.744   7.340  0.00  0.00    -0.382 OA
ATOM     19  H   UNL     1     -27.511  31.641   6.980  0.00  0.00    +0.210 HD
ENDBRANCH  13  18
ENDBRANCH   3  12
BRANCH   5  21
ATOM     20  O   UNL     1     -35.217  26.784   2.855  0.00  0.00    -0.291 OA
ATOM     21  C   UNL     1     -34.249  26.091   3.163  0.00  0.00    +0.180 C 
BRANCH  21  24
ATOM     22  C   UNL     1     -35.493  23.902   2.927  0.00  0.00    +0.012 C 
ATOM     23  C   UNL     1     -35.492  22.433   3.419  0.00  0.00    +0.022 C 
ATOM     24  C   UNL     1     -34.407  24.692   3.684  0.00  0.00    +0.066 C 
ATOM     25  C   UNL     1     -35.328  23.916   1.399  0.00  0.00    +0.001 C 
ATOM     26  C   UNL     1     -36.671  21.677   2.791  0.00  0.00    +0.004 C 
ATOM     27  C   UNL     1     -36.578  21.700   1.255  0.00  0.00    +0.000 C 
ATOM     28  C   UNL     1     -36.459  23.135   0.722  0.00  0.00    +0.000 C 
ATOM     29  C   UNL     1     -34.685  24.702   5.213  0.00  0.00    +0.029 C 
ATOM     30  C   UNL     1     -35.480  22.332   4.920  0.00  0.00    -0.031 C 
ATOM     31  C   UNL     1     -35.113  23.345   5.717  0.00  0.00    -0.031 C 
ATOM     32  C   UNL     1     -37.781  20.992   0.632  0.00  0.00    +0.000 C 
ATOM     33  C   UNL     1     -35.738  25.729   5.651  0.00  0.00    +0.005 C 
ENDBRANCH  21  24
ENDBRANCH   5  21
BRANCH   4  34
ATOM     34  O   UNL     1     -33.217  28.007   4.921  0.00  0.00    -0.505 OA
ATOM     35  H   UNL     1     -34.139  28.104   4.793  0.00  0.00    +0.292 HD
ENDBRANCH   4  34
TORSDOF 6
ENDMDL
MODEL 5
REMARK VINA RESULT:      -6.9      4.362      9.913
REMARK  Name = 54712148
REMARK  6 active torsions:
REMARK  status: ('A' for Active; 'I' for Inactive)
REMARK    1  A    between atoms: C_3  and  C_12
REMARK    2  A    between atoms: C_4  and  O_34
REMARK    3  A    between atoms: C_5  and  C_21
REMARK    4  A    between atoms: C_12  and  O_16
REMARK    5  A    between atoms: C_13  and  O_18
REMARK    6  A    between atoms: C_21  and  C_24
REMARK                            x       y       z     vdW  Elec       q    Type
REMARK                         _______ _______ _______ _____ _____    ______ ____
ROOT
ATOM      1  O   UNL     1     -46.633  28.417   5.005  0.00  0.00    -0.270 OA
ATOM      2  N   UNL     1     -45.525  27.021   3.555  0.00  0.00    -0.279 N 
ATOM      3  C   UNL     1     -43.198  27.212   3.203  0.00  0.00    +0.053 C 
ATOM      4  C   UNL     1     -43.164  28.321   4.152  0.00  0.00    +0.140 C 
ATOM      5  C   UNL     1     -44.286  28.750   4.770  0.00  0.00    +0.122 C 
ATOM      6  C   UNL     1     -44.370  26.613   2.947  0.00  0.00    +0.065 C 
ATOM      7  C   UNL     1     -45.589  28.059   4.464  0.00  0.00    +0.255 C 
ATOM      8  H   UNL     1     -46.359  26.548   3.332  0.00  0.00    +0.155 HD
ENDROOT
BRANCH   3  12
ATOM      9  O   UNL     1     -39.537  26.323   2.968  0.00  0.00    -0.348 OA
ATOM     10  C   UNL     1     -40.882  26.263   3.487  0.00  0.00    +0.173 C 
ATOM     11  C   UNL     1     -40.069  25.021   3.214  0.00  0.00    +0.172 C 
ATOM     12  C   UNL     1     -41.943  26.741   2.519  0.00  0.00    +0.138 C 
ATOM     13  C   UNL     1     -40.330  24.192   1.999  0.00  0.00    +0.140 C 
ATOM     14  C   UNL     1     -42.328  25.642   1.508  0.00  0.00    +0.036 C 
ATOM     15  C   UNL     1     -41.100  24.950   0.917  0.00  0.00    +0.035 C 
BRANCH  12  16
ATOM     16  O   UNL     1     -41.423  27.851   1.777  0.00  0.00    -0.380 OA
ATOM     17  H   UNL     1     -41.552  28.668   2.283  0.00  0.00    +0.211 HD
ENDBRANCH  12  16
BRANCH  13  18
ATOM     18  O   UNL     1     -39.088  23.739   1.472  0.00  0.00    -0.382 OA
ATOM     19  H   UNL     1     -39.143  23.696   0.505  0.00  0.00    +0.210 HD
ENDBRANCH  13  18
ENDBRANCH   3  12
BRANCH   5  21
ATOM     20  O   UNL     1     -43.213  30.574   5.785  0.00  0.00    -0.291 OA
ATOM     21  C   UNL     1     -44.221  29.872   5.723  0.00  0.00    +0.180 C 
BRANCH  21  24
ATOM     22  C   UNL     1     -45.854  31.601   6.581  0.00  0.00    +0.012 C 
ATOM     23  C   UNL     1     -47.174  31.751   7.377  0.00  0.00    +0.022 C 
ATOM     24  C   UNL     1     -45.419  30.123   6.593  0.00  0.00    +0.066 C 
ATOM     25  C   UNL     1     -46.051  32.187   5.174  0.00  0.00    +0.001 C 
ATOM     26  C   UNL     1     -47.534  33.237   7.508  0.00  0.00    +0.004 C 
ATOM     27  C   UNL     1     -47.698  33.884   6.123  0.00  0.00    +0.000 C 
ATOM     28  C   UNL     1     -46.455  33.662   5.249  0.00  0.00    +0.000 C 
ATOM     29  C   UNL     1     -45.160  29.626   8.042  0.00  0.00    +0.029 C 
ATOM     30  C   UNL     1     -47.123  31.053   8.708  0.00  0.00    -0.031 C 
ATOM     31  C   UNL     1     -46.226  30.101   9.000  0.00  0.00    -0.031 C 
ATOM     32  C   UNL     1     -48.002  35.376   6.257  0.00  0.00    +0.000 C 
ATOM     33  C   UNL     1     -43.793  30.034   8.609  0.00  0.00    +0.005 C 
ENDBRANCH  21  24
ENDBRANCH   5  21
BRANCH   4  34
ATOM     34  O   UNL     1     -41.944  28.925   4.403  0.00  0.00    -0.505 OA
ATOM     35  H   UNL     1     -41.896  29.666   4.974  0.00  0.00    +0.292 HD
ENDBRANCH   4  34
TORSDOF 6
ENDMDL
MODEL 6
REMARK VINA RESULT:      -6.8      4.941      8.041
REMARK  Name = 54712148
REMARK  6 active torsions:
REMARK  status: ('A' for Active; 'I' for Inactive)
REMARK    1  A    between atoms: C_3  and  C_12
REMARK    2  A    between atoms: C_4  and  O_34
REMARK    3  A    between atoms: C_5  and  C_21
REMARK    4  A    between atoms: C_12  and  O_16
REMARK    5  A    between atoms: C_13  and  O_18
REMARK    6  A    between atoms: C_21  and  C_24
REMARK                            x       y       z     vdW  Elec       q    Type
REMARK                         _______ _______ _______ _____ _____    ______ ____
ROOT
ATOM      1  O   UNL     1     -33.951  29.208   0.716  0.00  0.00    -0.270 OA
ATOM      2  N   UNL     1     -35.110  27.249   1.026  0.00  0.00    -0.279 N 
ATOM      3  C   UNL     1     -35.228  26.214   3.146  0.00  0.00    +0.053 C 
ATOM      4  C   UNL     1     -34.409  27.290   3.696  0.00  0.00    +0.140 C 
ATOM      5  C   UNL     1     -33.965  28.302   2.919  0.00  0.00    +0.122 C 
ATOM      6  C   UNL     1     -35.542  26.239   1.842  0.00  0.00    +0.065 C 
ATOM      7  C   UNL     1     -34.333  28.306   1.458  0.00  0.00    +0.255 C 
ATOM      8  H   UNL     1     -35.368  27.220   0.077  0.00  0.00    +0.155 HD
ENDROOT
BRANCH   3  12
ATOM      9  O   UNL     1     -37.326  23.199   4.016  0.00  0.00    -0.348 OA
ATOM     10  C   UNL     1     -36.396  23.985   3.241  0.00  0.00    +0.173 C 
ATOM     11  C   UNL     1     -36.149  22.530   3.560  0.00  0.00    +0.172 C 
ATOM     12  C   UNL     1     -35.717  25.091   4.019  0.00  0.00    +0.138 C 
ATOM     13  C   UNL     1     -35.177  22.140   4.625  0.00  0.00    +0.140 C 
ATOM     14  C   UNL     1     -34.522  24.560   4.837  0.00  0.00    +0.036 C 
ATOM     15  C   UNL     1     -34.870  23.279   5.596  0.00  0.00    +0.035 C 
BRANCH  12  16
ATOM     16  O   UNL     1     -36.660  25.651   4.942  0.00  0.00    -0.380 OA
ATOM     17  H   UNL     1     -37.307  24.973   5.194  0.00  0.00    +0.211 HD
ENDBRANCH  12  16
BRANCH  13  18
ATOM     18  O   UNL     1     -35.700  21.028   5.343  0.00  0.00    -0.382 OA
ATOM     19  H   UNL     1     -36.626  20.887   5.092  0.00  0.00    +0.210 HD
ENDBRANCH  13  18
ENDBRANCH   3  12
BRANCH   5  21
ATOM     20  O   UNL     1     -33.670  30.296   4.121  0.00  0.00    -0.291 OA
ATOM     21  C   UNL     1     -33.141  29.374   3.503  0.00  0.00    +0.180 C 
BRANCH  21  24
ATOM     22  C   UNL     1     -30.884  29.643   4.612  0.00  0.00    +0.012 C 
ATOM     23  C   UNL     1     -29.372  29.391   4.389  0.00  0.00    +0.022 C 
ATOM     24  C   UNL     1     -31.652  29.290   3.323  0.00  0.00    +0.066 C 
ATOM     25  C   UNL     1     -31.343  28.859   5.851  0.00  0.00    +0.001 C 
ATOM     26  C   UNL     1     -28.580  29.887   5.607  0.00  0.00    +0.004 C 
ATOM     27  C   UNL     1     -29.035  29.164   6.886  0.00  0.00    +0.000 C 
ATOM     28  C   UNL     1     -30.551  29.286   7.090  0.00  0.00    +0.000 C 
ATOM     29  C   UNL     1     -31.191  30.179   2.134  0.00  0.00    +0.029 C 
ATOM     30  C   UNL     1     -28.875  29.985   3.100  0.00  0.00    -0.031 C 
ATOM     31  C   UNL     1     -29.689  30.330   2.093  0.00  0.00    -0.031 C 
ATOM     32  C   UNL     1     -28.282  29.699   8.104  0.00  0.00    +0.000 C 
ATOM     33  C   UNL     1     -31.814  31.582   2.123  0.00  0.00    +0.005 C 
ENDBRANCH  21  24
ENDBRANCH   5  21
BRANCH   4  34
ATOM     34  O   UNL     1     -34.097  27.245   5.045  0.00  0.00    -0.505 OA
ATOM     35  H   UNL     1     -34.612  27.725   5.662  0.00  0.00    +0.292 HD
ENDBRANCH   4  34
TORSDOF 6
ENDMDL
MODEL 7
REMARK VINA RESULT:      -6.8      4.558      7.247
REMARK  Name = 54712148
REMARK  6 active torsions:
REMARK  status: ('A' for Active; 'I' for Inactive)
REMARK    1  A    between atoms: C_3  and  C_12
REMARK    2  A    between atoms: C_4  and  O_34
REMARK    3  A    between atoms: C_5  and  C_21
REMARK    4  A    between atoms: C_12  and  O_16
REMARK    5  A    between atoms: C_13  and  O_18
REMARK    6  A    between atoms: C_21  and  C_24
REMARK                            x       y       z     vdW  Elec       q    Type
REMARK                         _______ _______ _______ _____ _____    ______ ____
ROOT
ATOM      1  O   UNL     1     -37.571  19.636   0.220  0.00  0.00    -0.270 OA
ATOM      2  N   UNL     1     -38.219  21.130   1.841  0.00  0.00    -0.279 N 
ATOM      3  C   UNL     1     -36.766  22.832   2.595  0.00  0.00    +0.053 C 
ATOM      4  C   UNL     1     -35.748  22.349   1.666  0.00  0.00    +0.140 C 
ATOM      5  C   UNL     1     -35.979  21.288   0.862  0.00  0.00    +0.122 C 
ATOM      6  C   UNL     1     -37.951  22.206   2.643  0.00  0.00    +0.065 C 
ATOM      7  C   UNL     1     -37.319  20.604   0.935  0.00  0.00    +0.255 C 
ATOM      8  H   UNL     1     -39.104  20.706   1.915  0.00  0.00    +0.155 HD
ENDROOT
BRANCH   3  12
ATOM      9  O   UNL     1     -35.535  24.584   5.704  0.00  0.00    -0.348 OA
ATOM     10  C   UNL     1     -35.444  23.740   4.537  0.00  0.00    +0.173 C 
ATOM     11  C   UNL     1     -34.386  24.761   4.876  0.00  0.00    +0.172 C 
ATOM     12  C   UNL     1     -36.500  24.014   3.488  0.00  0.00    +0.138 C 
ATOM     13  C   UNL     1     -34.318  26.059   4.139  0.00  0.00    +0.140 C 
ATOM     14  C   UNL     1     -36.119  25.215   2.598  0.00  0.00    +0.036 C 
ATOM     15  C   UNL     1     -35.622  26.404   3.420  0.00  0.00    +0.035 C 
BRANCH  12  16
ATOM     16  O   UNL     1     -37.732  24.335   4.146  0.00  0.00    -0.380 OA
ATOM     17  H   UNL     1     -37.809  23.812   4.960  0.00  0.00    +0.211 HD
ENDBRANCH  12  16
BRANCH  13  18
ATOM     18  O   UNL     1     -33.991  27.096   5.057  0.00  0.00    -0.382 OA
ATOM     19  H   UNL     1     -33.029  27.131   5.177  0.00  0.00    +0.210 HD
ENDBRANCH  13  18
ENDBRANCH   3  12
BRANCH   5  21
ATOM     20  O   UNL     1     -35.026  21.052  -1.269  0.00  0.00    -0.291 OA
ATOM     21  C   UNL     1     -34.933  20.823  -0.065  0.00  0.00    +0.180 C 
BRANCH  21  24
ATOM     22  C   UNL     1     -32.485  20.245  -0.332  0.00  0.00    +0.012 C 
ATOM     23  C   UNL     1     -31.297  19.578   0.404  0.00  0.00    +0.022 C 
ATOM     24  C   UNL     1     -33.763  20.081   0.514  0.00  0.00    +0.066 C 
ATOM     25  C   UNL     1     -32.122  21.705  -0.644  0.00  0.00    +0.001 C 
ATOM     26  C   UNL     1     -30.055  19.594  -0.497  0.00  0.00    +0.004 C 
ATOM     27  C   UNL     1     -29.675  21.035  -0.877  0.00  0.00    +0.000 C 
ATOM     28  C   UNL     1     -30.860  21.780  -1.508  0.00  0.00    +0.000 C 
ATOM     29  C   UNL     1     -34.112  18.580   0.718  0.00  0.00    +0.029 C 
ATOM     30  C   UNL     1     -31.631  18.196   0.897  0.00  0.00    -0.031 C 
ATOM     31  C   UNL     1     -32.889  17.756   1.041  0.00  0.00    -0.031 C 
ATOM     32  C   UNL     1     -28.471  21.044  -1.818  0.00  0.00    +0.000 C 
ATOM     33  C   UNL     1     -34.821  17.933  -0.480  0.00  0.00    +0.005 C 
ENDBRANCH  21  24
ENDBRANCH   5  21
BRANCH   4  34
ATOM     34  O   UNL     1     -34.532  23.010   1.633  0.00  0.00    -0.505 OA
ATOM     35  H   UNL     1     -33.832  22.732   2.189  0.00  0.00    +0.292 HD
ENDBRANCH   4  34
TORSDOF 6
ENDMDL
MODEL 8
REMARK VINA RESULT:      -6.8      4.669      8.269
REMARK  Name = 54712148
REMARK  6 active torsions:
REMARK  status: ('A' for Active; 'I' for Inactive)
REMARK    1  A    between atoms: C_3  and  C_12
REMARK    2  A    between atoms: C_4  and  O_34
REMARK    3  A    between atoms: C_5  and  C_21
REMARK    4  A    between atoms: C_12  and  O_16
REMARK    5  A    between atoms: C_13  and  O_18
REMARK    6  A    between atoms: C_21  and  C_24
REMARK                            x       y       z     vdW  Elec       q    Type
REMARK                         _______ _______ _______ _____ _____    ______ ____
ROOT
ATOM      1  O   UNL     1     -34.279  29.352   1.932  0.00  0.00    -0.270 OA
ATOM      2  N   UNL     1     -35.961  27.851   2.375  0.00  0.00    -0.279 N 
ATOM      3  C   UNL     1     -35.563  25.899   3.644  0.00  0.00    +0.053 C 
ATOM      4  C   UNL     1     -34.165  26.296   3.782  0.00  0.00    +0.140 C 
ATOM      5  C   UNL     1     -33.701  27.437   3.226  0.00  0.00    +0.122 C 
ATOM      6  C   UNL     1     -36.397  26.688   2.950  0.00  0.00    +0.065 C 
ATOM      7  C   UNL     1     -34.659  28.305   2.453  0.00  0.00    +0.255 C 
ATOM      8  H   UNL     1     -36.613  28.394   1.877  0.00  0.00    +0.155 HD
ENDROOT
BRANCH   3  12
ATOM      9  O   UNL     1     -36.942  22.385   3.647  0.00  0.00    -0.348 OA
ATOM     10  C   UNL     1     -36.012  23.441   3.327  0.00  0.00    +0.173 C 
ATOM     11  C   UNL     1     -35.555  22.083   3.801  0.00  0.00    +0.172 C 
ATOM     12  C   UNL     1     -36.070  24.627   4.266  0.00  0.00    +0.138 C 
ATOM     13  C   UNL     1     -35.092  21.883   5.206  0.00  0.00    +0.140 C 
ATOM     14  C   UNL     1     -35.270  24.369   5.559  0.00  0.00    +0.036 C 
ATOM     15  C   UNL     1     -35.562  22.990   6.150  0.00  0.00    +0.035 C 
BRANCH  12  16
ATOM     16  O   UNL     1     -37.436  24.852   4.639  0.00  0.00    -0.380 OA
ATOM     17  H   UNL     1     -37.514  25.716   5.073  0.00  0.00    +0.211 HD
ENDBRANCH  12  16
BRANCH  13  18
ATOM     18  O   UNL     1     -35.563  20.624   5.675  0.00  0.00    -0.382 OA
ATOM     19  H   UNL     1     -35.221  19.918   5.105  0.00  0.00    +0.210 HD
ENDBRANCH  13  18
ENDBRANCH   3  12
BRANCH   5  21
ATOM     20  O   UNL     1     -31.398  26.999   3.132  0.00  0.00    -0.291 OA
ATOM     21  C   UNL     1     -32.285  27.812   3.383  0.00  0.00    +0.180 C 
BRANCH  21  24
ATOM     22  C   UNL     1     -30.538  29.637   3.495  0.00  0.00    +0.012 C 
ATOM     23  C   UNL     1     -30.347  31.128   3.867  0.00  0.00    +0.022 C 
ATOM     24  C   UNL     1     -31.977  29.207   3.843  0.00  0.00    +0.066 C 
ATOM     25  C   UNL     1     -30.164  29.439   2.017  0.00  0.00    +0.001 C 
ATOM     26  C   UNL     1     -28.876  31.525   3.674  0.00  0.00    +0.004 C 
ATOM     27  C   UNL     1     -28.437  31.302   2.217  0.00  0.00    +0.000 C 
ATOM     28  C   UNL     1     -28.715  29.863   1.761  0.00  0.00    +0.000 C 
ATOM     29  C   UNL     1     -32.254  29.357   5.365  0.00  0.00    +0.029 C 
ATOM     30  C   UNL     1     -30.850  31.443   5.249  0.00  0.00    -0.031 C 
ATOM     31  C   UNL     1     -31.705  30.653   5.912  0.00  0.00    -0.031 C 
ATOM     32  C   UNL     1     -26.959  31.647   2.041  0.00  0.00    +0.000 C 
ATOM     33  C   UNL     1     -31.703  28.207   6.219  0.00  0.00    +0.005 C 
ENDBRANCH  21  24
ENDBRANCH   5  21
BRANCH   4  34
ATOM     34  O   UNL     1     -33.321  25.467   4.502  0.00  0.00    -0.505 OA
ATOM     35  H   UNL     1     -32.897  24.747   4.078  0.00  0.00    +0.292 HD
ENDBRANCH   4  34
TORSDOF 6
ENDMDL
MODEL 9
REMARK VINA RESULT:      -6.7      1.857      3.450
REMARK  Name = 54712148
REMARK  6 active torsions:
REMARK  status: ('A' for Active; 'I' for Inactive)
REMARK    1  A    between atoms: C_3  and  C_12
REMARK    2  A    between atoms: C_4  and  O_34
REMARK    3  A    between atoms: C_5  and  C_21
REMARK    4  A    between atoms: C_12  and  O_16
REMARK    5  A    between atoms: C_13  and  O_18
REMARK    6  A    between atoms: C_21  and  C_24
REMARK                            x       y       z     vdW  Elec       q    Type
REMARK                         _______ _______ _______ _____ _____    ______ ____
ROOT
ATOM      1  O   UNL     1     -39.735  22.502   0.739  0.00  0.00    -0.270 OA
ATOM      2  N   UNL     1     -41.544  23.908   0.922  0.00  0.00    -0.279 N 
ATOM      3  C   UNL     1     -41.470  25.833   2.289  0.00  0.00    +0.053 C 
ATOM      4  C   UNL     1     -40.097  25.497   2.655  0.00  0.00    +0.140 C 
ATOM      5  C   UNL     1     -39.488  24.397   2.161  0.00  0.00    +0.122 C 
ATOM      6  C   UNL     1     -42.131  25.029   1.443  0.00  0.00    +0.065 C 
ATOM      7  C   UNL     1     -40.252  23.512   1.212  0.00  0.00    +0.255 C 
ATOM      8  H   UNL     1     -42.072  23.351   0.306  0.00  0.00    +0.155 HD
ENDROOT
BRANCH   3  12
ATOM      9  O   UNL     1     -42.333  29.504   2.452  0.00  0.00    -0.348 OA
ATOM     10  C   UNL     1     -42.218  28.197   1.850  0.00  0.00    +0.173 C 
ATOM     11  C   UNL     1     -43.462  29.039   1.712  0.00  0.00    +0.172 C 
ATOM     12  C   UNL     1     -42.140  27.059   2.845  0.00  0.00    +0.138 C 
ATOM     13  C   UNL     1     -44.681  28.735   2.520  0.00  0.00    +0.140 C 
ATOM     14  C   UNL     1     -43.538  26.655   3.357  0.00  0.00    +0.036 C 
ATOM     15  C   UNL     1     -44.381  27.870   3.744  0.00  0.00    +0.035 C 
BRANCH  12  16
ATOM     16  O   UNL     1     -41.371  27.487   3.976  0.00  0.00    -0.380 OA
ATOM     17  H   UNL     1     -41.807  27.198   4.792  0.00  0.00    +0.211 HD
ENDBRANCH  12  16
BRANCH  13  18
ATOM     18  O   UNL     1     -45.278  29.959   2.936  0.00  0.00    -0.382 OA
ATOM     19  H   UNL     1     -45.717  30.378   2.180  0.00  0.00    +0.210 HD
ENDBRANCH  13  18
ENDBRANCH   3  12
BRANCH   5  21
ATOM     20  O   UNL     1     -37.810  23.928   3.733  0.00  0.00    -0.291 OA
ATOM     21  C   UNL     1     -38.101  24.084   2.550  0.00  0.00    +0.180 C 
BRANCH  21  24
ATOM     22  C   UNL     1     -36.089  22.803   1.710  0.00  0.00    +0.012 C 
ATOM     23  C   UNL     1     -35.166  22.642   0.477  0.00  0.00    +0.022 C 
ATOM     24  C   UNL     1     -37.079  23.956   1.456  0.00  0.00    +0.066 C 
ATOM     25  C   UNL     1     -36.760  21.453   2.011  0.00  0.00    +0.001 C 
ATOM     26  C   UNL     1     -34.074  21.606   0.779  0.00  0.00    +0.004 C 
ATOM     27  C   UNL     1     -34.696  20.244   1.132  0.00  0.00    +0.000 C 
ATOM     28  C   UNL     1     -35.710  20.370   2.277  0.00  0.00    +0.000 C 
ATOM     29  C   UNL     1     -36.332  25.301   1.243  0.00  0.00    +0.029 C 
ATOM     30  C   UNL     1     -34.599  23.954   0.011  0.00  0.00    -0.031 C 
ATOM     31  C   UNL     1     -35.125  25.139   0.349  0.00  0.00    -0.031 C 
ATOM     32  C   UNL     1     -33.609  19.230   1.484  0.00  0.00    +0.000 C 
ATOM     33  C   UNL     1     -35.876  25.978   2.543  0.00  0.00    +0.005 C 
ENDBRANCH  21  24
ENDBRANCH   5  21
BRANCH   4  34
ATOM     34  O   UNL     1     -39.432  26.340   3.530  0.00  0.00    -0.505 OA
ATOM     35  H   UNL     1     -39.829  27.145   3.797  0.00  0.00    +0.292 HD
ENDBRANCH   4  34
TORSDOF 6
ENDMDL
