MODEL 1
REMARK VINA RESULT:      -6.4      0.000      0.000
REMARK  Name = 19972
REMARK  5 active torsions:
REMARK  status: ('A' for Active; 'I' for Inactive)
REMARK    1  A    between atoms: C_6  and  O_19
REMARK    2  A    between atoms: C_9  and  C_23
REMARK    3  A    between atoms: C_15  and  O_21
REMARK    4  A    between atoms: C_23  and  O_24
REMARK    5  A    between atoms: O_24  and  C_27
REMARK                            x       y       z     vdW  Elec       q    Type
REMARK                         _______ _______ _______ _____ _____    ______ ____
ROOT
ATOM      1  O   UNL     1     -39.090  26.349   3.280  0.00  0.00    -0.285 OA
ATOM      2  O   UNL     1     -38.615  21.228   1.812  0.00  0.00    -0.284 OA
ATOM      3  N   UNL     1     -34.156  24.917   3.010  0.00  0.00    +0.388 N 
ATOM      4  N   UNL     1     -36.815  24.751   4.135  0.00  0.00    -0.290 N 
ATOM      5  C   UNL     1     -34.537  24.179   4.210  0.00  0.00    -0.036 C 
ATOM      6  C   UNL     1     -35.909  23.616   4.417  0.00  0.00    +0.141 C 
ATOM      7  C   UNL     1     -34.678  25.668   4.138  0.00  0.00    -0.057 C 
ATOM      8  C   UNL     1     -36.133  26.039   4.163  0.00  0.00    +0.070 C 
ATOM      9  C   UNL     1     -36.434  22.474   3.490  0.00  0.00    +0.111 C 
ATOM     10  C   UNL     1     -37.850  24.349   3.326  0.00  0.00    +0.088 C 
ATOM     11  C   UNL     1     -37.716  23.076   2.952  0.00  0.00    +0.043 C 
ATOM     12  C   UNL     1     -38.976  25.188   2.901  0.00  0.00    +0.208 C 
ATOM     13  C   UNL     1     -38.714  22.412   2.113  0.00  0.00    +0.227 C 
ATOM     14  C   UNL     1     -39.986  24.544   1.994  0.00  0.00    +0.055 C 
ATOM     15  C   UNL     1     -39.859  23.247   1.641  0.00  0.00    +0.176 C 
ATOM     16  C   UNL     1     -41.090  25.467   1.553  0.00  0.00    +0.038 C 
ATOM     17  H   UNL     1     -34.715  24.826   2.161  0.00  0.00    -0.084 HD
ATOM     18  H   UNL     1     -33.304  24.975   2.450  0.00  0.00    -0.084 HD
ENDROOT
BRANCH   6  19
ATOM     19  O   UNL     1     -36.055  23.221   5.783  0.00  0.00    -0.341 OA
ATOM     20  C   UNL     1     -35.308  22.047   6.061  0.00  0.00    +0.176 C 
ENDBRANCH   6  19
BRANCH  15  21
ATOM     21  O   UNL     1     -40.751  22.572   0.832  0.00  0.00    -0.468 OA
ATOM     22  C   UNL     1     -40.410  22.727  -0.530  0.00  0.00    +0.253 C 
ENDBRANCH  15  21
BRANCH   9  23
ATOM     23  C   UNL     1     -35.491  22.032   2.375  0.00  0.00    +0.218 C 
BRANCH  23  24
ATOM     24  O   UNL     1     -35.213  20.653   2.540  0.00  0.00    -0.434 OA
BRANCH  24  27
ATOM     25  O   UNL     1     -34.539  19.726   0.544  0.00  0.00    -0.227 OA
ATOM     26  N   UNL     1     -36.601  19.247   1.440  0.00  0.00    -0.295 N 
ATOM     27  C   UNL     1     -35.375  19.865   1.430  0.00  0.00    +0.398 C 
ATOM     28  H   UNL     1     -37.225  19.403   2.186  0.00  0.00    +0.148 HD
ATOM     29  H   UNL     1     -36.857  18.647   0.702  0.00  0.00    +0.148 HD
ENDBRANCH  24  27
ENDBRANCH  23  24
ENDBRANCH   9  23
TORSDOF 5
ENDMDL
MODEL 2
REMARK VINA RESULT:      -5.9      2.959      5.726
REMARK  Name = 19972
REMARK  5 active torsions:
REMARK  status: ('A' for Active; 'I' for Inactive)
REMARK    1  A    between atoms: C_6  and  O_19
REMARK    2  A    between atoms: C_9  and  C_23
REMARK    3  A    between atoms: C_15  and  O_21
REMARK    4  A    between atoms: C_23  and  O_24
REMARK    5  A    between atoms: O_24  and  C_27
REMARK                            x       y       z     vdW  Elec       q    Type
REMARK                         _______ _______ _______ _____ _____    ______ ____
ROOT
ATOM      1  O   UNL     1     -36.667  28.795   1.458  0.00  0.00    -0.285 OA
ATOM      2  O   UNL     1     -32.930  26.205   4.277  0.00  0.00    -0.284 OA
ATOM      3  N   UNL     1     -38.650  24.754   3.950  0.00  0.00    +0.388 N 
ATOM      4  N   UNL     1     -36.895  25.943   1.982  0.00  0.00    -0.290 N 
ATOM      5  C   UNL     1     -37.888  24.037   2.932  0.00  0.00    -0.036 C 
ATOM      6  C   UNL     1     -36.596  24.548   2.373  0.00  0.00    +0.141 C 
ATOM      7  C   UNL     1     -38.952  25.020   2.554  0.00  0.00    -0.057 C 
ATOM      8  C   UNL     1     -38.325  26.208   1.881  0.00  0.00    +0.070 C 
ATOM      9  C   UNL     1     -35.341  24.673   3.293  0.00  0.00    +0.111 C 
ATOM     10  C   UNL     1     -35.897  26.785   2.411  0.00  0.00    +0.088 C 
ATOM     11  C   UNL     1     -34.979  26.135   3.126  0.00  0.00    +0.043 C 
ATOM     12  C   UNL     1     -35.821  28.225   2.140  0.00  0.00    +0.208 C 
ATOM     13  C   UNL     1     -33.800  26.815   3.663  0.00  0.00    +0.227 C 
ATOM     14  C   UNL     1     -34.648  28.955   2.728  0.00  0.00    +0.055 C 
ATOM     15  C   UNL     1     -33.707  28.287   3.428  0.00  0.00    +0.176 C 
ATOM     16  C   UNL     1     -34.651  30.436   2.459  0.00  0.00    +0.038 C 
ATOM     17  H   UNL     1     -38.192  25.471   4.513  0.00  0.00    -0.084 HD
ATOM     18  H   UNL     1     -39.207  24.468   4.756  0.00  0.00    -0.084 HD
ENDROOT
BRANCH   6  19
ATOM     19  O   UNL     1     -36.256  23.792   1.209  0.00  0.00    -0.341 OA
ATOM     20  C   UNL     1     -35.246  22.837   1.493  0.00  0.00    +0.176 C 
ENDBRANCH   6  19
BRANCH  15  21
ATOM     21  O   UNL     1     -32.587  28.875   3.982  0.00  0.00    -0.468 OA
ATOM     22  C   UNL     1     -31.551  28.980   3.027  0.00  0.00    +0.253 C 
ENDBRANCH  15  21
BRANCH   9  23
ATOM     23  C   UNL     1     -35.544  24.293   4.757  0.00  0.00    +0.218 C 
BRANCH  23  24
ATOM     24  O   UNL     1     -34.690  23.206   5.063  0.00  0.00    -0.434 OA
BRANCH  24  27
ATOM     25  O   UNL     1     -35.191  21.023   4.531  0.00  0.00    -0.227 OA
ATOM     26  N   UNL     1     -36.049  22.013   6.420  0.00  0.00    -0.295 N 
ATOM     27  C   UNL     1     -35.299  21.995   5.270  0.00  0.00    +0.398 C 
ATOM     28  H   UNL     1     -36.091  22.830   6.967  0.00  0.00    +0.148 HD
ATOM     29  H   UNL     1     -36.545  21.209   6.697  0.00  0.00    +0.148 HD
ENDBRANCH  24  27
ENDBRANCH  23  24
ENDBRANCH   9  23
TORSDOF 5
ENDMDL
MODEL 3
REMARK VINA RESULT:      -5.7      4.135      7.522
REMARK  Name = 19972
REMARK  5 active torsions:
REMARK  status: ('A' for Active; 'I' for Inactive)
REMARK    1  A    between atoms: C_6  and  O_19
REMARK    2  A    between atoms: C_9  and  C_23
REMARK    3  A    between atoms: C_15  and  O_21
REMARK    4  A    between atoms: C_23  and  O_24
REMARK    5  A    between atoms: O_24  and  C_27
REMARK                            x       y       z     vdW  Elec       q    Type
REMARK                         _______ _______ _______ _____ _____    ______ ____
ROOT
ATOM      1  O   UNL     1     -32.804  30.335   2.510  0.00  0.00    -0.285 OA
ATOM      2  O   UNL     1     -32.178  26.993   6.640  0.00  0.00    -0.284 OA
ATOM      3  N   UNL     1     -36.727  27.025   2.866  0.00  0.00    +0.388 N 
ATOM      4  N   UNL     1     -33.934  27.655   2.453  0.00  0.00    -0.290 N 
ATOM      5  C   UNL     1     -35.695  26.100   2.406  0.00  0.00    -0.036 C 
ATOM      6  C   UNL     1     -34.250  26.246   2.773  0.00  0.00    +0.141 C 
ATOM      7  C   UNL     1     -36.070  27.306   1.601  0.00  0.00    -0.057 C 
ATOM      8  C   UNL     1     -34.918  28.270   1.570  0.00  0.00    +0.070 C 
ATOM      9  C   UNL     1     -33.800  26.084   4.258  0.00  0.00    +0.111 C 
ATOM     10  C   UNL     1     -33.229  28.233   3.481  0.00  0.00    +0.088 C 
ATOM     11  C   UNL     1     -33.091  27.399   4.512  0.00  0.00    +0.043 C 
ATOM     12  C   UNL     1     -32.684  29.595   3.482  0.00  0.00    +0.208 C 
ATOM     13  C   UNL     1     -32.347  27.779   5.714  0.00  0.00    +0.227 C 
ATOM     14  C   UNL     1     -31.964  30.027   4.727  0.00  0.00    +0.055 C 
ATOM     15  C   UNL     1     -31.804  29.169   5.758  0.00  0.00    +0.176 C 
ATOM     16  C   UNL     1     -31.472  31.449   4.688  0.00  0.00    +0.038 C 
ATOM     17  H   UNL     1     -36.546  27.624   3.673  0.00  0.00    -0.084 HD
ATOM     18  H   UNL     1     -37.700  26.920   3.154  0.00  0.00    -0.084 HD
ENDROOT
BRANCH   6  19
ATOM     19  O   UNL     1     -33.466  25.385   1.944  0.00  0.00    -0.341 OA
ATOM     20  C   UNL     1     -34.184  24.210   1.599  0.00  0.00    +0.176 C 
ENDBRANCH   6  19
BRANCH  15  21
ATOM     21  O   UNL     1     -31.137  29.475   6.927  0.00  0.00    -0.468 OA
ATOM     22  C   UNL     1     -29.746  29.272   6.779  0.00  0.00    +0.253 C 
ENDBRANCH  15  21
BRANCH   9  23
ATOM     23  C   UNL     1     -34.913  25.824   5.269  0.00  0.00    +0.218 C 
BRANCH  23  24
ATOM     24  O   UNL     1     -34.914  24.445   5.593  0.00  0.00    -0.434 OA
BRANCH  24  27
ATOM     25  O   UNL     1     -36.982  24.202   4.611  0.00  0.00    -0.227 OA
ATOM     26  N   UNL     1     -35.956  22.440   5.674  0.00  0.00    -0.295 N 
ATOM     27  C   UNL     1     -36.034  23.739   5.237  0.00  0.00    +0.398 C 
ATOM     28  H   UNL     1     -35.164  22.135   6.171  0.00  0.00    +0.148 HD
ATOM     29  H   UNL     1     -36.693  21.813   5.489  0.00  0.00    +0.148 HD
ENDBRANCH  24  27
ENDBRANCH  23  24
ENDBRANCH   9  23
TORSDOF 5
ENDMDL
MODEL 4
REMARK VINA RESULT:      -5.4      2.451      3.277
REMARK  Name = 19972
REMARK  5 active torsions:
REMARK  status: ('A' for Active; 'I' for Inactive)
REMARK    1  A    between atoms: C_6  and  O_19
REMARK    2  A    between atoms: C_9  and  C_23
REMARK    3  A    between atoms: C_15  and  O_21
REMARK    4  A    between atoms: C_23  and  O_24
REMARK    5  A    between atoms: O_24  and  C_27
REMARK                            x       y       z     vdW  Elec       q    Type
REMARK                         _______ _______ _______ _____ _____    ______ ____
ROOT
ATOM      1  O   UNL     1     -37.401  27.806   0.213  0.00  0.00    -0.285 OA
ATOM      2  O   UNL     1     -39.958  24.701   3.738  0.00  0.00    -0.284 OA
ATOM      3  N   UNL     1     -34.331  24.101   2.033  0.00  0.00    +0.388 N 
ATOM      4  N   UNL     1     -35.957  26.471   2.356  0.00  0.00    -0.290 N 
ATOM      5  C   UNL     1     -34.410  24.933   3.231  0.00  0.00    -0.036 C 
ATOM      6  C   UNL     1     -35.629  25.725   3.591  0.00  0.00    +0.141 C 
ATOM      7  C   UNL     1     -33.894  25.483   1.937  0.00  0.00    -0.057 C 
ATOM      8  C   UNL     1     -34.847  26.519   1.413  0.00  0.00    +0.070 C 
ATOM      9  C   UNL     1     -36.959  24.992   3.954  0.00  0.00    +0.111 C 
ATOM     10  C   UNL     1     -37.303  26.389   2.090  0.00  0.00    +0.088 C 
ATOM     11  C   UNL     1     -37.930  25.600   2.964  0.00  0.00    +0.043 C 
ATOM     12  C   UNL     1     -37.997  27.066   0.989  0.00  0.00    +0.208 C 
ATOM     13  C   UNL     1     -39.376  25.385   2.904  0.00  0.00    +0.227 C 
ATOM     14  C   UNL     1     -39.473  26.815   0.874  0.00  0.00    +0.055 C 
ATOM     15  C   UNL     1     -40.108  26.038   1.778  0.00  0.00    +0.176 C 
ATOM     16  C   UNL     1     -40.121  27.496  -0.302  0.00  0.00    +0.038 C 
ATOM     17  H   UNL     1     -35.188  23.808   1.563  0.00  0.00    -0.084 HD
ATOM     18  H   UNL     1     -33.899  23.202   1.819  0.00  0.00    -0.084 HD
ENDROOT
BRANCH   6  19
ATOM     19  O   UNL     1     -35.299  26.649   4.630  0.00  0.00    -0.341 OA
ATOM     20  C   UNL     1     -34.610  26.006   5.690  0.00  0.00    +0.176 C 
ENDBRANCH   6  19
BRANCH  15  21
ATOM     21  O   UNL     1     -41.463  25.775   1.760  0.00  0.00    -0.468 OA
ATOM     22  C   UNL     1     -42.175  26.760   2.481  0.00  0.00    +0.253 C 
ENDBRANCH  15  21
BRANCH   9  23
ATOM     23  C   UNL     1     -36.927  23.469   3.869  0.00  0.00    +0.218 C 
BRANCH  23  24
ATOM     24  O   UNL     1     -36.297  22.965   5.033  0.00  0.00    -0.434 OA
BRANCH  24  27
ATOM     25  O   UNL     1     -35.148  21.404   3.791  0.00  0.00    -0.227 OA
ATOM     26  N   UNL     1     -35.264  21.248   6.082  0.00  0.00    -0.295 N 
ATOM     27  C   UNL     1     -35.536  21.836   4.871  0.00  0.00    +0.398 C 
ATOM     28  H   UNL     1     -35.608  21.650   6.912  0.00  0.00    +0.148 HD
ATOM     29  H   UNL     1     -34.724  20.425   6.120  0.00  0.00    +0.148 HD
ENDBRANCH  24  27
ENDBRANCH  23  24
ENDBRANCH   9  23
TORSDOF 5
ENDMDL
MODEL 5
REMARK VINA RESULT:      -5.4      1.997      4.702
REMARK  Name = 19972
REMARK  5 active torsions:
REMARK  status: ('A' for Active; 'I' for Inactive)
REMARK    1  A    between atoms: C_6  and  O_19
REMARK    2  A    between atoms: C_9  and  C_23
REMARK    3  A    between atoms: C_15  and  O_21
REMARK    4  A    between atoms: C_23  and  O_24
REMARK    5  A    between atoms: O_24  and  C_27
REMARK                            x       y       z     vdW  Elec       q    Type
REMARK                         _______ _______ _______ _____ _____    ______ ____
ROOT
ATOM      1  O   UNL     1     -39.908  22.359   0.199  0.00  0.00    -0.285 OA
ATOM      2  O   UNL     1     -37.961  26.663   2.708  0.00  0.00    -0.284 OA
ATOM      3  N   UNL     1     -36.136  21.092   3.461  0.00  0.00    +0.388 N 
ATOM      4  N   UNL     1     -37.147  22.440   1.110  0.00  0.00    -0.290 N 
ATOM      5  C   UNL     1     -35.333  21.753   2.436  0.00  0.00    -0.036 C 
ATOM      6  C   UNL     1     -35.839  22.905   1.623  0.00  0.00    +0.141 C 
ATOM      7  C   UNL     1     -36.189  20.570   2.106  0.00  0.00    -0.057 C 
ATOM      8  C   UNL     1     -37.309  20.995   1.199  0.00  0.00    +0.070 C 
ATOM      9  C   UNL     1     -36.166  24.266   2.313  0.00  0.00    +0.111 C 
ATOM     10  C   UNL     1     -38.098  23.419   1.268  0.00  0.00    +0.088 C 
ATOM     11  C   UNL     1     -37.609  24.481   1.908  0.00  0.00    +0.043 C 
ATOM     12  C   UNL     1     -39.489  23.339   0.808  0.00  0.00    +0.208 C 
ATOM     13  C   UNL     1     -38.427  25.667   2.165  0.00  0.00    +0.227 C 
ATOM     14  C   UNL     1     -40.363  24.522   1.110  0.00  0.00    +0.055 C 
ATOM     15  C   UNL     1     -39.855  25.606   1.734  0.00  0.00    +0.176 C 
ATOM     16  C   UNL     1     -41.790  24.361   0.658  0.00  0.00    +0.038 C 
ATOM     17  H   UNL     1     -36.950  21.569   3.851  0.00  0.00    -0.084 HD
ATOM     18  H   UNL     1     -35.930  20.684   4.373  0.00  0.00    -0.084 HD
ENDROOT
BRANCH   6  19
ATOM     19  O   UNL     1     -34.952  23.131   0.526  0.00  0.00    -0.341 OA
ATOM     20  C   UNL     1     -33.986  24.120   0.842  0.00  0.00    +0.176 C 
ENDBRANCH   6  19
BRANCH  15  21
ATOM     21  O   UNL     1     -40.581  26.743   2.029  0.00  0.00    -0.468 OA
ATOM     22  C   UNL     1     -41.282  26.590   3.245  0.00  0.00    +0.253 C 
ENDBRANCH  15  21
BRANCH   9  23
ATOM     23  C   UNL     1     -35.979  24.310   3.827  0.00  0.00    +0.218 C 
BRANCH  23  24
ATOM     24  O   UNL     1     -34.950  25.236   4.128  0.00  0.00    -0.434 OA
BRANCH  24  27
ATOM     25  O   UNL     1     -34.317  26.368   6.030  0.00  0.00    -0.227 OA
ATOM     26  N   UNL     1     -36.473  26.485   5.239  0.00  0.00    -0.295 N 
ATOM     27  C   UNL     1     -35.169  26.056   5.205  0.00  0.00    +0.398 C 
ATOM     28  H   UNL     1     -37.105  26.195   4.543  0.00  0.00    +0.148 HD
ATOM     29  H   UNL     1     -36.776  27.083   5.961  0.00  0.00    +0.148 HD
ENDBRANCH  24  27
ENDBRANCH  23  24
ENDBRANCH   9  23
TORSDOF 5
ENDMDL
MODEL 6
REMARK VINA RESULT:      -5.4      3.721      6.691
REMARK  Name = 19972
REMARK  5 active torsions:
REMARK  status: ('A' for Active; 'I' for Inactive)
REMARK    1  A    between atoms: C_6  and  O_19
REMARK    2  A    between atoms: C_9  and  C_23
REMARK    3  A    between atoms: C_15  and  O_21
REMARK    4  A    between atoms: C_23  and  O_24
REMARK    5  A    between atoms: O_24  and  C_27
REMARK                            x       y       z     vdW  Elec       q    Type
REMARK                         _______ _______ _______ _____ _____    ______ ____
ROOT
ATOM      1  O   UNL     1     -34.643  22.881   1.049  0.00  0.00    -0.285 OA
ATOM      2  O   UNL     1     -35.171  25.638   5.603  0.00  0.00    -0.284 OA
ATOM      3  N   UNL     1     -30.817  26.268   1.655  0.00  0.00    +0.388 N 
ATOM      4  N   UNL     1     -33.605  25.587   1.290  0.00  0.00    -0.290 N 
ATOM      5  C   UNL     1     -31.900  27.203   1.366  0.00  0.00    -0.036 C 
ATOM      6  C   UNL     1     -33.320  26.956   1.776  0.00  0.00    +0.141 C 
ATOM      7  C   UNL     1     -31.527  26.126   0.395  0.00  0.00    -0.057 C 
ATOM      8  C   UNL     1     -32.647  25.130   0.291  0.00  0.00    +0.070 C 
ATOM      9  C   UNL     1     -33.701  26.907   3.289  0.00  0.00    +0.111 C 
ATOM     10  C   UNL     1     -34.238  24.856   2.266  0.00  0.00    +0.088 C 
ATOM     11  C   UNL     1     -34.352  25.544   3.402  0.00  0.00    +0.043 C 
ATOM     12  C   UNL     1     -34.737  23.484   2.114  0.00  0.00    +0.208 C 
ATOM     13  C   UNL     1     -35.022  24.985   4.576  0.00  0.00    +0.227 C 
ATOM     14  C   UNL     1     -35.380  22.868   3.323  0.00  0.00    +0.055 C 
ATOM     15  C   UNL     1     -35.517  23.580   4.463  0.00  0.00    +0.176 C 
ATOM     16  C   UNL     1     -35.827  21.445   3.122  0.00  0.00    +0.038 C 
ATOM     17  H   UNL     1     -30.938  25.564   2.384  0.00  0.00    -0.084 HD
ATOM     18  H   UNL     1     -29.835  26.373   1.910  0.00  0.00    -0.084 HD
ENDROOT
BRANCH   6  19
ATOM     19  O   UNL     1     -34.172  27.885   1.102  0.00  0.00    -0.341 OA
ATOM     20  C   UNL     1     -33.539  29.145   0.951  0.00  0.00    +0.176 C 
ENDBRANCH   6  19
BRANCH  15  21
ATOM     21  O   UNL     1     -36.115  23.100   5.611  0.00  0.00    -0.468 OA
ATOM     22  C   UNL     1     -35.235  22.249   6.316  0.00  0.00    +0.253 C 
ENDBRANCH  15  21
BRANCH   9  23
ATOM     23  C   UNL     1     -32.548  27.079   4.274  0.00  0.00    +0.218 C 
BRANCH  23  24
ATOM     24  O   UNL     1     -32.886  28.106   5.189  0.00  0.00    -0.434 OA
BRANCH  24  27
ATOM     25  O   UNL     1     -31.354  28.912   6.707  0.00  0.00    -0.227 OA
ATOM     26  N   UNL     1     -32.631  27.058   7.176  0.00  0.00    -0.295 N 
ATOM     27  C   UNL     1     -32.214  28.099   6.384  0.00  0.00    +0.398 C 
ATOM     28  H   UNL     1     -33.327  26.442   6.853  0.00  0.00    +0.148 HD
ATOM     29  H   UNL     1     -32.234  26.928   8.068  0.00  0.00    +0.148 HD
ENDBRANCH  24  27
ENDBRANCH  23  24
ENDBRANCH   9  23
TORSDOF 5
ENDMDL
MODEL 7
REMARK VINA RESULT:      -5.3      2.797      5.822
REMARK  Name = 19972
REMARK  5 active torsions:
REMARK  status: ('A' for Active; 'I' for Inactive)
REMARK    1  A    between atoms: C_6  and  O_19
REMARK    2  A    between atoms: C_9  and  C_23
REMARK    3  A    between atoms: C_15  and  O_21
REMARK    4  A    between atoms: C_23  and  O_24
REMARK    5  A    between atoms: O_24  and  C_27
REMARK                            x       y       z     vdW  Elec       q    Type
REMARK                         _______ _______ _______ _____ _____    ______ ____
ROOT
ATOM      1  O   UNL     1     -35.180  20.634   4.435  0.00  0.00    -0.285 OA
ATOM      2  O   UNL     1     -36.265  25.625   2.847  0.00  0.00    -0.284 OA
ATOM      3  N   UNL     1     -33.166  21.617  -0.196  0.00  0.00    +0.388 N 
ATOM      4  N   UNL     1     -35.401  21.292   1.611  0.00  0.00    -0.290 N 
ATOM      5  C   UNL     1     -34.575  21.558  -0.573  0.00  0.00    -0.036 C 
ATOM      6  C   UNL     1     -35.680  21.995   0.339  0.00  0.00    +0.141 C 
ATOM      7  C   UNL     1     -33.898  20.393   0.080  0.00  0.00    -0.057 C 
ATOM      8  C   UNL     1     -34.476  20.177   1.450  0.00  0.00    +0.070 C 
ATOM      9  C   UNL     1     -35.804  23.495   0.756  0.00  0.00    +0.111 C 
ATOM     10  C   UNL     1     -35.522  22.156   2.672  0.00  0.00    +0.088 C 
ATOM     11  C   UNL     1     -35.777  23.400   2.267  0.00  0.00    +0.043 C 
ATOM     12  C   UNL     1     -35.390  21.792   4.088  0.00  0.00    +0.208 C 
ATOM     13  C   UNL     1     -35.980  24.492   3.220  0.00  0.00    +0.227 C 
ATOM     14  C   UNL     1     -35.540  22.907   5.082  0.00  0.00    +0.055 C 
ATOM     15  C   UNL     1     -35.825  24.160   4.667  0.00  0.00    +0.176 C 
ATOM     16  C   UNL     1     -35.345  22.482   6.513  0.00  0.00    +0.038 C 
ATOM     17  H   UNL     1     -32.873  22.216   0.577  0.00  0.00    -0.084 HD
ATOM     18  H   UNL     1     -32.303  21.831  -0.697  0.00  0.00    -0.084 HD
ENDROOT
BRANCH   6  19
ATOM     19  O   UNL     1     -36.930  21.545  -0.187  0.00  0.00    -0.341 OA
ATOM     20  C   UNL     1     -37.165  22.080  -1.480  0.00  0.00    +0.176 C 
ENDBRANCH   6  19
BRANCH  15  21
ATOM     21  O   UNL     1     -36.002  25.237   5.514  0.00  0.00    -0.468 OA
ATOM     22  C   UNL     1     -34.777  25.906   5.736  0.00  0.00    +0.253 C 
ENDBRANCH  15  21
BRANCH   9  23
ATOM     23  C   UNL     1     -34.725  24.429   0.217  0.00  0.00    +0.218 C 
BRANCH  23  24
ATOM     24  O   UNL     1     -33.577  24.315   1.039  0.00  0.00    -0.434 OA
BRANCH  24  27
ATOM     25  O   UNL     1     -31.602  25.491   1.157  0.00  0.00    -0.227 OA
ATOM     26  N   UNL     1     -33.629  26.546   1.401  0.00  0.00    -0.295 N 
ATOM     27  C   UNL     1     -32.826  25.451   1.195  0.00  0.00    +0.398 C 
ATOM     28  H   UNL     1     -34.608  26.442   1.420  0.00  0.00    +0.148 HD
ATOM     29  H   UNL     1     -33.227  27.435   1.529  0.00  0.00    +0.148 HD
ENDBRANCH  24  27
ENDBRANCH  23  24
ENDBRANCH   9  23
TORSDOF 5
ENDMDL
MODEL 8
REMARK VINA RESULT:      -5.2      2.611      4.823
REMARK  Name = 19972
REMARK  5 active torsions:
REMARK  status: ('A' for Active; 'I' for Inactive)
REMARK    1  A    between atoms: C_6  and  O_19
REMARK    2  A    between atoms: C_9  and  C_23
REMARK    3  A    between atoms: C_15  and  O_21
REMARK    4  A    between atoms: C_23  and  O_24
REMARK    5  A    between atoms: O_24  and  C_27
REMARK                            x       y       z     vdW  Elec       q    Type
REMARK                         _______ _______ _______ _____ _____    ______ ____
ROOT
ATOM      1  O   UNL     1     -35.509  21.428   4.112  0.00  0.00    -0.285 OA
ATOM      2  O   UNL     1     -35.558  24.326  -0.384  0.00  0.00    -0.284 OA
ATOM      3  N   UNL     1     -36.470  26.389   5.079  0.00  0.00    +0.388 N 
ATOM      4  N   UNL     1     -34.776  24.243   4.136  0.00  0.00    -0.290 N 
ATOM      5  C   UNL     1     -35.057  26.500   4.727  0.00  0.00    -0.036 C 
ATOM      6  C   UNL     1     -34.400  25.611   3.717  0.00  0.00    +0.141 C 
ATOM      7  C   UNL     1     -35.508  25.626   5.856  0.00  0.00    -0.057 C 
ATOM      8  C   UNL     1     -35.262  24.186   5.509  0.00  0.00    +0.070 C 
ATOM      9  C   UNL     1     -34.829  25.678   2.217  0.00  0.00    +0.111 C 
ATOM     10  C   UNL     1     -35.187  23.505   3.052  0.00  0.00    +0.088 C 
ATOM     11  C   UNL     1     -35.212  24.239   1.939  0.00  0.00    +0.043 C 
ATOM     12  C   UNL     1     -35.564  22.088   3.079  0.00  0.00    +0.208 C 
ATOM     13  C   UNL     1     -35.586  23.663   0.647  0.00  0.00    +0.227 C 
ATOM     14  C   UNL     1     -36.005  21.488   1.774  0.00  0.00    +0.055 C 
ATOM     15  C   UNL     1     -36.002  22.229   0.645  0.00  0.00    +0.176 C 
ATOM     16  C   UNL     1     -36.427  20.046   1.874  0.00  0.00    +0.038 C 
ATOM     17  H   UNL     1     -37.112  25.903   4.452  0.00  0.00    -0.084 HD
ATOM     18  H   UNL     1     -37.200  27.062   5.314  0.00  0.00    -0.084 HD
ENDROOT
BRANCH   6  19
ATOM     19  O   UNL     1     -32.981  25.762   3.811  0.00  0.00    -0.341 OA
ATOM     20  C   UNL     1     -32.572  27.047   3.371  0.00  0.00    +0.176 C 
ENDBRANCH   6  19
BRANCH  15  21
ATOM     21  O   UNL     1     -36.369  21.751  -0.598  0.00  0.00    -0.468 OA
ATOM     22  C   UNL     1     -37.758  21.904  -0.803  0.00  0.00    +0.253 C 
ENDBRANCH  15  21
BRANCH   9  23
ATOM     23  C   UNL     1     -35.958  26.649   1.888  0.00  0.00    +0.218 C 
BRANCH  23  24
ATOM     24  O   UNL     1     -37.193  26.025   2.193  0.00  0.00    -0.434 OA
BRANCH  24  27
ATOM     25  O   UNL     1     -39.254  26.998   1.873  0.00  0.00    -0.227 OA
ATOM     26  N   UNL     1     -38.102  26.053   0.123  0.00  0.00    -0.295 N 
ATOM     27  C   UNL     1     -38.270  26.411   1.437  0.00  0.00    +0.398 C 
ATOM     28  H   UNL     1     -37.285  25.583  -0.158  0.00  0.00    +0.148 HD
ATOM     29  H   UNL     1     -38.799  26.267  -0.539  0.00  0.00    +0.148 HD
ENDBRANCH  24  27
ENDBRANCH  23  24
ENDBRANCH   9  23
TORSDOF 5
ENDMDL
MODEL 9
REMARK VINA RESULT:      -5.2      2.008      4.911
REMARK  Name = 19972
REMARK  5 active torsions:
REMARK  status: ('A' for Active; 'I' for Inactive)
REMARK    1  A    between atoms: C_6  and  O_19
REMARK    2  A    between atoms: C_9  and  C_23
REMARK    3  A    between atoms: C_15  and  O_21
REMARK    4  A    between atoms: C_23  and  O_24
REMARK    5  A    between atoms: O_24  and  C_27
REMARK                            x       y       z     vdW  Elec       q    Type
REMARK                         _______ _______ _______ _____ _____    ______ ____
ROOT
ATOM      1  O   UNL     1     -37.421  26.348   3.527  0.00  0.00    -0.285 OA
ATOM      2  O   UNL     1     -35.667  21.318   3.040  0.00  0.00    -0.284 OA
ATOM      3  N   UNL     1     -40.851  23.385   1.093  0.00  0.00    +0.388 N 
ATOM      4  N   UNL     1     -38.271  24.674   1.305  0.00  0.00    -0.290 N 
ATOM      5  C   UNL     1     -39.844  23.473   0.040  0.00  0.00    -0.036 C 
ATOM      6  C   UNL     1     -38.377  23.572   0.323  0.00  0.00    +0.141 C 
ATOM      7  C   UNL     1     -40.487  24.702   0.602  0.00  0.00    -0.057 C 
ATOM      8  C   UNL     1     -39.465  25.509   1.351  0.00  0.00    +0.070 C 
ATOM      9  C   UNL     1     -37.629  22.384   1.005  0.00  0.00    +0.111 C 
ATOM     10  C   UNL     1     -37.437  24.316   2.338  0.00  0.00    +0.088 C 
ATOM     11  C   UNL     1     -37.018  23.057   2.217  0.00  0.00    +0.043 C 
ATOM     12  C   UNL     1     -37.040  25.184   3.453  0.00  0.00    +0.208 C 
ATOM     13  C   UNL     1     -36.093  22.459   3.181  0.00  0.00    +0.227 C 
ATOM     14  C   UNL     1     -36.135  24.574   4.484  0.00  0.00    +0.055 C 
ATOM     15  C   UNL     1     -35.691  23.307   4.343  0.00  0.00    +0.176 C 
ATOM     16  C   UNL     1     -35.803  25.495   5.628  0.00  0.00    +0.038 C 
ATOM     17  H   UNL     1     -40.575  23.103   2.035  0.00  0.00    -0.084 HD
ATOM     18  H   UNL     1     -41.733  22.882   1.195  0.00  0.00    -0.084 HD
ENDROOT
BRANCH   6  19
ATOM     19  O   UNL     1     -37.691  23.939  -0.876  0.00  0.00    -0.341 OA
ATOM     20  C   UNL     1     -37.968  23.026  -1.925  0.00  0.00    +0.176 C 
ENDBRANCH   6  19
BRANCH  15  21
ATOM     21  O   UNL     1     -34.840  22.679   5.230  0.00  0.00    -0.468 OA
ATOM     22  C   UNL     1     -35.563  22.111   6.303  0.00  0.00    +0.253 C 
ENDBRANCH  15  21
BRANCH   9  23
ATOM     23  C   UNL     1     -38.489  21.183   1.385  0.00  0.00    +0.218 C 
BRANCH  23  24
ATOM     24  O   UNL     1     -38.417  20.228   0.342  0.00  0.00    -0.434 OA
BRANCH  24  27
ATOM     25  O   UNL     1     -36.577  19.623  -0.902  0.00  0.00    -0.227 OA
ATOM     26  N   UNL     1     -36.766  19.023   1.309  0.00  0.00    -0.295 N 
ATOM     27  C   UNL     1     -37.199  19.626   0.154  0.00  0.00    +0.398 C 
ATOM     28  H   UNL     1     -37.318  19.065   2.123  0.00  0.00    +0.148 HD
ATOM     29  H   UNL     1     -35.903  18.550   1.324  0.00  0.00    +0.148 HD
ENDBRANCH  24  27
ENDBRANCH  23  24
ENDBRANCH   9  23
TORSDOF 5
ENDMDL
