MODEL 1
REMARK VINA RESULT:      -7.1      0.000      0.000
REMARK  Name = 56955927
REMARK  2 active torsions:
REMARK  status: ('A' for Active; 'I' for Inactive)
REMARK    1  A    between atoms: C_9  and  O_32
REMARK    2  A    between atoms: C_15  and  O_34
REMARK                            x       y       z     vdW  Elec       q    Type
REMARK                         _______ _______ _______ _____ _____    ______ ____
ROOT
ATOM      1  O   UNL     1     -37.835  24.724   4.125  0.00  0.00    -0.447 OA
ATOM      2  O   UNL     1     -35.357  21.143   3.844  0.00  0.00    -0.449 OA
ATOM      3  O   UNL     1     -33.316  28.662   0.098  0.00  0.00    -0.452 OA
ATOM      4  O   UNL     1     -35.353  20.841   1.589  0.00  0.00    -0.250 OA
ATOM      5  O   UNL     1     -36.273  25.059   5.695  0.00  0.00    -0.247 OA
ATOM      6  O   UNL     1     -32.052  30.036   1.384  0.00  0.00    -0.245 OA
ATOM      7  C   UNL     1     -35.595  23.831   1.300  0.00  0.00    +0.033 C 
ATOM      8  C   UNL     1     -36.126  22.981   2.538  0.00  0.00    +0.147 C 
ATOM      9  C   UNL     1     -35.740  23.454   3.974  0.00  0.00    +0.227 C 
ATOM     10  C   UNL     1     -36.087  25.282   1.475  0.00  0.00    -0.021 C 
ATOM     11  C   UNL     1     -34.050  23.751   1.157  0.00  0.00    +0.005 C 
ATOM     12  C   UNL     1     -38.199  24.346   2.766  0.00  0.00    +0.180 C 
ATOM     13  C   UNL     1     -37.657  22.958   2.494  0.00  0.00    +0.007 C 
ATOM     14  C   UNL     1     -33.815  26.297   0.786  0.00  0.00    +0.067 C 
ATOM     15  C   UNL     1     -37.588  25.415   1.804  0.00  0.00    +0.168 C 
ATOM     16  C   UNL     1     -33.497  24.859   0.274  0.00  0.00    +0.011 C 
ATOM     17  C   UNL     1     -35.275  26.369   1.333  0.00  0.00    -0.043 C 
ATOM     18  C   UNL     1     -35.787  22.147   4.772  0.00  0.00    +0.204 C 
ATOM     19  C   UNL     1     -35.562  21.556   2.558  0.00  0.00    +0.323 C 
ATOM     20  C   UNL     1     -36.160  23.299  -0.060  0.00  0.00    +0.005 C 
ATOM     21  C   UNL     1     -33.495  27.305  -0.403  0.00  0.00    +0.143 C 
ATOM     22  C   UNL     1     -36.622  24.486   4.664  0.00  0.00    +0.346 C 
ATOM     23  C   UNL     1     -39.737  24.458   2.768  0.00  0.00    +0.051 C 
ATOM     24  C   UNL     1     -32.851  26.616   1.918  0.00  0.00    -0.013 C 
ATOM     25  C   UNL     1     -38.416  21.876   2.250  0.00  0.00    -0.005 C 
ATOM     26  C   UNL     1     -35.805  27.738   1.718  0.00  0.00    +0.026 C 
ATOM     27  C   UNL     1     -34.888  22.069   6.000  0.00  0.00    +0.051 C 
ATOM     28  C   UNL     1     -32.191  26.988  -1.182  0.00  0.00    +0.044 C 
ATOM     29  C   UNL     1     -34.625  27.387  -1.447  0.00  0.00    +0.044 C 
ATOM     30  C   UNL     1     -32.228  27.791   2.057  0.00  0.00    +0.078 C 
ATOM     31  C   UNL     1     -32.499  28.919   1.152  0.00  0.00    +0.341 C 
ENDROOT
BRANCH   9  32
ATOM     32  O   UNL     1     -34.434  24.000   4.076  0.00  0.00    -0.373 OA
ATOM     33  H   UNL     1     -34.413  24.870   3.647  0.00  0.00    +0.211 HD
ENDBRANCH   9  32
BRANCH  15  34
ATOM     34  O   UNL     1     -38.293  25.464   0.558  0.00  0.00    -0.377 OA
ATOM     35  H   UNL     1     -38.981  26.148   0.602  0.00  0.00    +0.211 HD
ENDBRANCH  15  34
TORSDOF 2
ENDMDL
MODEL 2
REMARK VINA RESULT:      -6.9      2.136      5.825
REMARK  Name = 56955927
REMARK  2 active torsions:
REMARK  status: ('A' for Active; 'I' for Inactive)
REMARK    1  A    between atoms: C_9  and  O_32
REMARK    2  A    between atoms: C_15  and  O_34
REMARK                            x       y       z     vdW  Elec       q    Type
REMARK                         _______ _______ _______ _____ _____    ______ ____
ROOT
ATOM      1  O   UNL     1     -34.438  22.947   1.593  0.00  0.00    -0.447 OA
ATOM      2  O   UNL     1     -35.215  24.424   5.625  0.00  0.00    -0.449 OA
ATOM      3  O   UNL     1     -40.924  24.981  -0.843  0.00  0.00    -0.452 OA
ATOM      4  O   UNL     1     -35.576  26.625   5.177  0.00  0.00    -0.250 OA
ATOM      5  O   UNL     1     -35.623  21.291   2.523  0.00  0.00    -0.247 OA
ATOM      6  O   UNL     1     -42.335  23.215  -1.001  0.00  0.00    -0.245 OA
ATOM      7  C   UNL     1     -36.656  25.787   2.492  0.00  0.00    +0.033 C 
ATOM      8  C   UNL     1     -35.571  24.984   3.337  0.00  0.00    +0.147 C 
ATOM      9  C   UNL     1     -35.801  23.459   3.568  0.00  0.00    +0.227 C 
ATOM     10  C   UNL     1     -36.782  25.107   1.114  0.00  0.00    -0.021 C 
ATOM     11  C   UNL     1     -38.023  25.873   3.227  0.00  0.00    +0.005 C 
ATOM     12  C   UNL     1     -34.250  24.365   1.317  0.00  0.00    +0.180 C 
ATOM     13  C   UNL     1     -34.216  25.110   2.635  0.00  0.00    +0.007 C 
ATOM     14  C   UNL     1     -39.360  25.253   1.105  0.00  0.00    +0.067 C 
ATOM     15  C   UNL     1     -35.437  24.827   0.412  0.00  0.00    +0.168 C 
ATOM     16  C   UNL     1     -39.157  26.250   2.287  0.00  0.00    +0.011 C 
ATOM     17  C   UNL     1     -37.979  24.792   0.541  0.00  0.00    -0.043 C 
ATOM     18  C   UNL     1     -35.050  23.210   4.880  0.00  0.00    +0.204 C 
ATOM     19  C   UNL     1     -35.478  25.471   4.787  0.00  0.00    +0.323 C 
ATOM     20  C   UNL     1     -36.227  27.273   2.250  0.00  0.00    +0.005 C 
ATOM     21  C   UNL     1     -40.313  25.962   0.046  0.00  0.00    +0.143 C 
ATOM     22  C   UNL     1     -35.299  22.478   2.518  0.00  0.00    +0.346 C 
ATOM     23  C   UNL     1     -32.933  24.397   0.514  0.00  0.00    +0.051 C 
ATOM     24  C   UNL     1     -40.103  24.038   1.637  0.00  0.00    -0.013 C 
ATOM     25  C   UNL     1     -33.149  25.778   3.108  0.00  0.00    -0.005 C 
ATOM     26  C   UNL     1     -37.993  23.950  -0.721  0.00  0.00    +0.026 C 
ATOM     27  C   UNL     1     -35.552  22.058   5.743  0.00  0.00    +0.051 C 
ATOM     28  C   UNL     1     -41.504  26.737   0.670  0.00  0.00    +0.044 C 
ATOM     29  C   UNL     1     -39.569  26.954  -0.868  0.00  0.00    +0.044 C 
ATOM     30  C   UNL     1     -41.109  23.439   0.992  0.00  0.00    +0.078 C 
ATOM     31  C   UNL     1     -41.528  23.869  -0.351  0.00  0.00    +0.341 C 
ENDROOT
BRANCH   9  32
ATOM     32  O   UNL     1     -37.161  23.096   3.750  0.00  0.00    -0.373 OA
ATOM     33  H   UNL     1     -37.223  22.404   4.427  0.00  0.00    +0.211 HD
ENDBRANCH   9  32
BRANCH  15  34
ATOM     34  O   UNL     1     -35.099  25.997  -0.342  0.00  0.00    -0.377 OA
ATOM     35  H   UNL     1     -34.187  25.922  -0.664  0.00  0.00    +0.211 HD
ENDBRANCH  15  34
TORSDOF 2
ENDMDL
MODEL 3
REMARK VINA RESULT:      -6.9      2.364      5.707
REMARK  Name = 56955927
REMARK  2 active torsions:
REMARK  status: ('A' for Active; 'I' for Inactive)
REMARK    1  A    between atoms: C_9  and  O_32
REMARK    2  A    between atoms: C_15  and  O_34
REMARK                            x       y       z     vdW  Elec       q    Type
REMARK                         _______ _______ _______ _____ _____    ______ ____
ROOT
ATOM      1  O   UNL     1     -34.337  25.843   1.585  0.00  0.00    -0.447 OA
ATOM      2  O   UNL     1     -37.340  24.952   4.623  0.00  0.00    -0.449 OA
ATOM      3  O   UNL     1     -34.170  19.040  -0.830  0.00  0.00    -0.452 OA
ATOM      4  O   UNL     1     -39.037  24.218   3.298  0.00  0.00    -0.250 OA
ATOM      5  O   UNL     1     -33.128  24.977   3.259  0.00  0.00    -0.247 OA
ATOM      6  O   UNL     1     -32.347  17.937  -0.058  0.00  0.00    -0.245 OA
ATOM      7  C   UNL     1     -36.950  23.212   1.372  0.00  0.00    +0.033 C 
ATOM      8  C   UNL     1     -36.764  24.440   2.369  0.00  0.00    +0.147 C 
ATOM      9  C   UNL     1     -35.488  24.473   3.264  0.00  0.00    +0.227 C 
ATOM     10  C   UNL     1     -35.716  23.161   0.449  0.00  0.00    -0.021 C 
ATOM     11  C   UNL     1     -37.170  21.873   2.128  0.00  0.00    +0.005 C 
ATOM     12  C   UNL     1     -35.493  25.785   0.700  0.00  0.00    +0.180 C 
ATOM     13  C   UNL     1     -36.745  25.735   1.551  0.00  0.00    +0.007 C 
ATOM     14  C   UNL     1     -35.493  20.595   0.636  0.00  0.00    +0.067 C 
ATOM     15  C   UNL     1     -35.336  24.511  -0.192  0.00  0.00    +0.168 C 
ATOM     16  C   UNL     1     -36.930  20.664   1.238  0.00  0.00    +0.011 C 
ATOM     17  C   UNL     1     -35.020  22.015   0.195  0.00  0.00    -0.043 C 
ATOM     18  C   UNL     1     -35.956  25.294   4.471  0.00  0.00    +0.204 C 
ATOM     19  C   UNL     1     -37.855  24.494   3.444  0.00  0.00    +0.323 C 
ATOM     20  C   UNL     1     -38.214  23.382   0.464  0.00  0.00    +0.005 C 
ATOM     21  C   UNL     1     -35.517  19.506  -0.525  0.00  0.00    +0.143 C 
ATOM     22  C   UNL     1     -34.219  25.100   2.703  0.00  0.00    +0.346 C 
ATOM     23  C   UNL     1     -35.341  27.054  -0.164  0.00  0.00    +0.051 C 
ATOM     24  C   UNL     1     -34.556  20.079   1.716  0.00  0.00    -0.013 C 
ATOM     25  C   UNL     1     -37.691  26.690   1.575  0.00  0.00    -0.005 C 
ATOM     26  C   UNL     1     -33.709  22.104  -0.565  0.00  0.00    +0.026 C 
ATOM     27  C   UNL     1     -35.255  25.016   5.795  0.00  0.00    +0.051 C 
ATOM     28  C   UNL     1     -36.321  18.223  -0.185  0.00  0.00    +0.044 C 
ATOM     29  C   UNL     1     -36.087  20.048  -1.850  0.00  0.00    +0.044 C 
ATOM     30  C   UNL     1     -33.602  19.167   1.503  0.00  0.00    +0.078 C 
ATOM     31  C   UNL     1     -33.325  18.644   0.156  0.00  0.00    +0.341 C 
ENDROOT
BRANCH   9  32
ATOM     32  O   UNL     1     -35.064  23.198   3.722  0.00  0.00    -0.373 OA
ATOM     33  H   UNL     1     -35.614  22.925   4.473  0.00  0.00    +0.211 HD
ENDBRANCH   9  32
BRANCH  15  34
ATOM     34  O   UNL     1     -36.080  24.628  -1.410  0.00  0.00    -0.377 OA
ATOM     35  H   UNL     1     -35.650  25.276  -1.991  0.00  0.00    +0.211 HD
ENDBRANCH  15  34
TORSDOF 2
ENDMDL
MODEL 4
REMARK VINA RESULT:      -6.6      2.496      6.491
REMARK  Name = 56955927
REMARK  2 active torsions:
REMARK  status: ('A' for Active; 'I' for Inactive)
REMARK    1  A    between atoms: C_9  and  O_32
REMARK    2  A    between atoms: C_15  and  O_34
REMARK                            x       y       z     vdW  Elec       q    Type
REMARK                         _______ _______ _______ _____ _____    ______ ____
ROOT
ATOM      1  O   UNL     1     -37.246  25.092   3.963  0.00  0.00    -0.447 OA
ATOM      2  O   UNL     1     -34.974  27.017   0.773  0.00  0.00    -0.449 OA
ATOM      3  O   UNL     1     -39.693  19.865  -0.376  0.00  0.00    -0.452 OA
ATOM      4  O   UNL     1     -33.572  25.318   0.206  0.00  0.00    -0.250 OA
ATOM      5  O   UNL     1     -38.794  26.309   2.897  0.00  0.00    -0.247 OA
ATOM      6  O   UNL     1     -41.838  20.249  -0.998  0.00  0.00    -0.245 OA
ATOM      7  C   UNL     1     -35.748  23.399   1.016  0.00  0.00    +0.033 C 
ATOM      8  C   UNL     1     -35.545  24.862   1.612  0.00  0.00    +0.147 C 
ATOM      9  C   UNL     1     -36.780  25.813   1.664  0.00  0.00    +0.227 C 
ATOM     10  C   UNL     1     -36.855  22.704   1.835  0.00  0.00    -0.021 C 
ATOM     11  C   UNL     1     -36.077  23.427  -0.503  0.00  0.00    +0.005 C 
ATOM     12  C   UNL     1     -36.132  24.153   3.928  0.00  0.00    +0.180 C 
ATOM     13  C   UNL     1     -35.042  24.736   3.053  0.00  0.00    +0.007 C 
ATOM     14  C   UNL     1     -37.999  21.718  -0.260  0.00  0.00    +0.067 C 
ATOM     15  C   UNL     1     -36.678  22.801   3.364  0.00  0.00    +0.168 C 
ATOM     16  C   UNL     1     -36.677  22.115  -0.985  0.00  0.00    +0.011 C 
ATOM     17  C   UNL     1     -37.898  22.034   1.266  0.00  0.00    -0.043 C 
ATOM     18  C   UNL     1     -36.129  27.198   1.603  0.00  0.00    +0.204 C 
ATOM     19  C   UNL     1     -34.582  25.709   0.773  0.00  0.00    +0.323 C 
ATOM     20  C   UNL     1     -34.451  22.531   1.138  0.00  0.00    +0.005 C 
ATOM     21  C   UNL     1     -38.292  20.193  -0.610  0.00  0.00    +0.143 C 
ATOM     22  C   UNL     1     -37.698  25.751   2.877  0.00  0.00    +0.346 C 
ATOM     23  C   UNL     1     -35.759  23.991   5.415  0.00  0.00    +0.051 C 
ATOM     24  C   UNL     1     -39.129  22.541  -0.857  0.00  0.00    -0.013 C 
ATOM     25  C   UNL     1     -33.819  25.087   3.488  0.00  0.00    -0.005 C 
ATOM     26  C   UNL     1     -39.035  21.556   2.149  0.00  0.00    +0.026 C 
ATOM     27  C   UNL     1     -36.969  28.318   1.002  0.00  0.00    +0.051 C 
ATOM     28  C   UNL     1     -38.029  19.812  -2.091  0.00  0.00    +0.044 C 
ATOM     29  C   UNL     1     -37.478  19.209   0.252  0.00  0.00    +0.044 C 
ATOM     30  C   UNL     1     -40.331  22.045  -1.166  0.00  0.00    +0.078 C 
ATOM     31  C   UNL     1     -40.687  20.649  -0.865  0.00  0.00    +0.341 C 
ENDROOT
BRANCH   9  32
ATOM     32  O   UNL     1     -37.664  25.680   0.561  0.00  0.00    -0.373 OA
ATOM     33  H   UNL     1     -37.868  24.742   0.421  0.00  0.00    +0.211 HD
ENDBRANCH   9  32
BRANCH  15  34
ATOM     34  O   UNL     1     -35.863  21.696   3.770  0.00  0.00    -0.377 OA
ATOM     35  H   UNL     1     -35.954  21.561   4.727  0.00  0.00    +0.211 HD
ENDBRANCH  15  34
TORSDOF 2
ENDMDL
MODEL 5
REMARK VINA RESULT:      -6.5      2.746      5.894
REMARK  Name = 56955927
REMARK  2 active torsions:
REMARK  status: ('A' for Active; 'I' for Inactive)
REMARK    1  A    between atoms: C_9  and  O_32
REMARK    2  A    between atoms: C_15  and  O_34
REMARK                            x       y       z     vdW  Elec       q    Type
REMARK                         _______ _______ _______ _____ _____    ______ ____
ROOT
ATOM      1  O   UNL     1     -34.928  25.361   1.015  0.00  0.00    -0.447 OA
ATOM      2  O   UNL     1     -37.985  24.149   3.883  0.00  0.00    -0.449 OA
ATOM      3  O   UNL     1     -33.512  18.563  -0.967  0.00  0.00    -0.452 OA
ATOM      4  O   UNL     1     -39.437  23.090   2.489  0.00  0.00    -0.250 OA
ATOM      5  O   UNL     1     -33.734  24.781   2.819  0.00  0.00    -0.247 OA
ATOM      6  O   UNL     1     -31.605  17.805  -0.004  0.00  0.00    -0.245 OA
ATOM      7  C   UNL     1     -37.073  22.339   0.778  0.00  0.00    +0.033 C 
ATOM      8  C   UNL     1     -37.161  23.627   1.710  0.00  0.00    +0.147 C 
ATOM      9  C   UNL     1     -35.979  23.907   2.690  0.00  0.00    +0.227 C 
ATOM     10  C   UNL     1     -35.777  22.440  -0.051  0.00  0.00    -0.021 C 
ATOM     11  C   UNL     1     -37.141  21.019   1.597  0.00  0.00    +0.005 C 
ATOM     12  C   UNL     1     -35.987  25.076   0.057  0.00  0.00    +0.180 C 
ATOM     13  C   UNL     1     -37.279  24.867   0.819  0.00  0.00    +0.007 C 
ATOM     14  C   UNL     1     -35.172  19.955   0.307  0.00  0.00    +0.067 C 
ATOM     15  C   UNL     1     -35.563  23.802  -0.743  0.00  0.00    +0.168 C 
ATOM     16  C   UNL     1     -36.646  19.823   0.800  0.00  0.00    +0.011 C 
ATOM     17  C   UNL     1     -34.893  21.410  -0.186  0.00  0.00    -0.043 C 
ATOM     18  C   UNL     1     -36.663  24.700   3.808  0.00  0.00    +0.204 C 
ATOM     19  C   UNL     1     -38.328  23.558   2.701  0.00  0.00    +0.323 C 
ATOM     20  C   UNL     1     -38.273  22.259  -0.225  0.00  0.00    +0.005 C 
ATOM     21  C   UNL     1     -34.935  18.822  -0.785  0.00  0.00    +0.143 C 
ATOM     22  C   UNL     1     -34.783  24.701   2.182  0.00  0.00    +0.346 C 
ATOM     23  C   UNL     1     -35.967  26.309  -0.869  0.00  0.00    +0.051 C 
ATOM     24  C   UNL     1     -34.254  19.650   1.479  0.00  0.00    -0.013 C 
ATOM     25  C   UNL     1     -38.361  25.658   0.719  0.00  0.00    -0.005 C 
ATOM     26  C   UNL     1     -33.556  21.671  -0.855  0.00  0.00    +0.026 C 
ATOM     27  C   UNL     1     -36.034  24.602   5.193  0.00  0.00    +0.051 C 
ATOM     28  C   UNL     1     -35.553  17.444  -0.426  0.00  0.00    +0.044 C 
ATOM     29  C   UNL     1     -35.476  19.201  -2.177  0.00  0.00    +0.044 C 
ATOM     30  C   UNL     1     -33.156  18.893   1.388  0.00  0.00    +0.078 C 
ATOM     31  C   UNL     1     -32.696  18.355   0.098  0.00  0.00    +0.341 C 
ENDROOT
BRANCH   9  32
ATOM     32  O   UNL     1     -35.399  22.740   3.252  0.00  0.00    -0.373 OA
ATOM     33  H   UNL     1     -35.601  21.976   2.689  0.00  0.00    +0.211 HD
ENDBRANCH   9  32
BRANCH  15  34
ATOM     34  O   UNL     1     -36.218  23.739  -2.016  0.00  0.00    -0.377 OA
ATOM     35  H   UNL     1     -36.960  24.363  -2.029  0.00  0.00    +0.211 HD
ENDBRANCH  15  34
TORSDOF 2
ENDMDL
MODEL 6
REMARK VINA RESULT:      -6.5      2.160      6.282
REMARK  Name = 56955927
REMARK  2 active torsions:
REMARK  status: ('A' for Active; 'I' for Inactive)
REMARK    1  A    between atoms: C_9  and  O_32
REMARK    2  A    between atoms: C_15  and  O_34
REMARK                            x       y       z     vdW  Elec       q    Type
REMARK                         _______ _______ _______ _____ _____    ______ ____
ROOT
ATOM      1  O   UNL     1     -37.854  24.598   4.099  0.00  0.00    -0.447 OA
ATOM      2  O   UNL     1     -37.714  27.194   0.595  0.00  0.00    -0.449 OA
ATOM      3  O   UNL     1     -35.564  18.823   0.419  0.00  0.00    -0.452 OA
ATOM      4  O   UNL     1     -35.506  27.034   0.073  0.00  0.00    -0.250 OA
ATOM      5  O   UNL     1     -39.781  24.145   3.052  0.00  0.00    -0.247 OA
ATOM      6  O   UNL     1     -37.280  17.426  -0.072  0.00  0.00    -0.245 OA
ATOM      7  C   UNL     1     -35.555  24.242   1.204  0.00  0.00    +0.033 C 
ATOM      8  C   UNL     1     -36.510  25.433   1.656  0.00  0.00    +0.147 C 
ATOM      9  C   UNL     1     -38.045  25.161   1.719  0.00  0.00    +0.227 C 
ATOM     10  C   UNL     1     -35.793  23.055   2.161  0.00  0.00    -0.021 C 
ATOM     11  C   UNL     1     -35.775  23.847  -0.282  0.00  0.00    +0.005 C 
ATOM     12  C   UNL     1     -36.411  24.790   4.061  0.00  0.00    +0.180 C 
ATOM     13  C   UNL     1     -36.099  25.883   3.061  0.00  0.00    +0.007 C 
ATOM     14  C   UNL     1     -35.802  21.319   0.249  0.00  0.00    +0.067 C 
ATOM     15  C   UNL     1     -35.768  23.423   3.658  0.00  0.00    +0.168 C 
ATOM     16  C   UNL     1     -35.200  22.477  -0.604  0.00  0.00    +0.011 C 
ATOM     17  C   UNL     1     -35.989  21.776   1.730  0.00  0.00    -0.043 C 
ATOM     18  C   UNL     1     -38.634  26.557   1.491  0.00  0.00    +0.204 C 
ATOM     19  C   UNL     1     -36.481  26.613   0.678  0.00  0.00    +0.323 C 
ATOM     20  C   UNL     1     -34.042  24.635   1.303  0.00  0.00    +0.005 C 
ATOM     21  C   UNL     1     -34.864  20.048   0.054  0.00  0.00    +0.143 C 
ATOM     22  C   UNL     1     -38.631  24.580   2.998  0.00  0.00    +0.346 C 
ATOM     23  C   UNL     1     -36.060  25.124   5.526  0.00  0.00    +0.051 C 
ATOM     24  C   UNL     1     -37.163  20.967  -0.331  0.00  0.00    -0.013 C 
ATOM     25  C   UNL     1     -35.544  27.068   3.372  0.00  0.00    -0.005 C 
ATOM     26  C   UNL     1     -36.410  20.719   2.734  0.00  0.00    +0.026 C 
ATOM     27  C   UNL     1     -40.020  26.615   0.861  0.00  0.00    +0.051 C 
ATOM     28  C   UNL     1     -34.385  19.821  -1.405  0.00  0.00    +0.044 C 
ATOM     29  C   UNL     1     -33.600  20.090   0.934  0.00  0.00    +0.044 C 
ATOM     30  C   UNL     1     -37.597  19.714  -0.505  0.00  0.00    +0.078 C 
ATOM     31  C   UNL     1     -36.806  18.556  -0.060  0.00  0.00    +0.341 C 
ENDROOT
BRANCH   9  32
ATOM     32  O   UNL     1     -38.525  24.296   0.701  0.00  0.00    -0.373 OA
ATOM     33  H   UNL     1     -39.101  23.622   1.095  0.00  0.00    +0.211 HD
ENDBRANCH   9  32
BRANCH  15  34
ATOM     34  O   UNL     1     -34.406  23.334   4.095  0.00  0.00    -0.377 OA
ATOM     35  H   UNL     1     -33.867  23.977   3.608  0.00  0.00    +0.211 HD
ENDBRANCH  15  34
TORSDOF 2
ENDMDL
MODEL 7
REMARK VINA RESULT:      -6.4      2.050      6.991
REMARK  Name = 56955927
REMARK  2 active torsions:
REMARK  status: ('A' for Active; 'I' for Inactive)
REMARK    1  A    between atoms: C_9  and  O_32
REMARK    2  A    between atoms: C_15  and  O_34
REMARK                            x       y       z     vdW  Elec       q    Type
REMARK                         _______ _______ _______ _____ _____    ______ ____
ROOT
ATOM      1  O   UNL     1     -33.630  30.064   4.120  0.00  0.00    -0.447 OA
ATOM      2  O   UNL     1     -32.552  29.923  -0.106  0.00  0.00    -0.449 OA
ATOM      3  O   UNL     1     -37.511  23.986   3.753  0.00  0.00    -0.452 OA
ATOM      4  O   UNL     1     -31.460  27.928  -0.169  0.00  0.00    -0.250 OA
ATOM      5  O   UNL     1     -35.427  30.934   3.105  0.00  0.00    -0.247 OA
ATOM      6  O   UNL     1     -39.732  24.431   3.679  0.00  0.00    -0.245 OA
ATOM      7  C   UNL     1     -33.263  26.997   2.058  0.00  0.00    +0.033 C 
ATOM      8  C   UNL     1     -32.841  28.509   1.789  0.00  0.00    +0.147 C 
ATOM      9  C   UNL     1     -33.966  29.588   1.736  0.00  0.00    +0.227 C 
ATOM     10  C   UNL     1     -34.035  26.951   3.392  0.00  0.00    -0.021 C 
ATOM     11  C   UNL     1     -34.091  26.403   0.884  0.00  0.00    +0.005 C 
ATOM     12  C   UNL     1     -32.614  29.025   4.217  0.00  0.00    +0.180 C 
ATOM     13  C   UNL     1     -31.878  28.950   2.895  0.00  0.00    +0.007 C 
ATOM     14  C   UNL     1     -35.845  25.359   2.466  0.00  0.00    +0.067 C 
ATOM     15  C   UNL     1     -33.345  27.686   4.559  0.00  0.00    +0.168 C 
ATOM     16  C   UNL     1     -34.844  25.146   1.290  0.00  0.00    +0.011 C 
ATOM     17  C   UNL     1     -35.223  26.297   3.546  0.00  0.00    -0.043 C 
ATOM     18  C   UNL     1     -33.349  30.659   0.831  0.00  0.00    +0.204 C 
ATOM     19  C   UNL     1     -32.207  28.705   0.408  0.00  0.00    +0.323 C 
ATOM     20  C   UNL     1     -32.018  26.057   2.197  0.00  0.00    +0.005 C 
ATOM     21  C   UNL     1     -36.269  23.918   2.994  0.00  0.00    +0.143 C 
ATOM     22  C   UNL     1     -34.414  30.239   3.037  0.00  0.00    +0.346 C 
ATOM     23  C   UNL     1     -31.758  29.478   5.417  0.00  0.00    +0.051 C 
ATOM     24  C   UNL     1     -37.096  26.017   1.905  0.00  0.00    -0.013 C 
ATOM     25  C   UNL     1     -30.573  29.232   2.730  0.00  0.00    -0.005 C 
ATOM     26  C   UNL     1     -35.998  26.476   4.839  0.00  0.00    +0.026 C 
ATOM     27  C   UNL     1     -34.323  31.525   0.041  0.00  0.00    +0.051 C 
ATOM     28  C   UNL     1     -36.535  22.876   1.874  0.00  0.00    +0.044 C 
ATOM     29  C   UNL     1     -35.228  23.292   3.942  0.00  0.00    +0.044 C 
ATOM     30  C   UNL     1     -38.340  25.660   2.239  0.00  0.00    +0.078 C 
ATOM     31  C   UNL     1     -38.598  24.634   3.262  0.00  0.00    +0.341 C 
ENDROOT
BRANCH   9  32
ATOM     32  O   UNL     1     -35.176  29.139   1.145  0.00  0.00    -0.373 OA
ATOM     33  H   UNL     1     -35.059  29.065   0.185  0.00  0.00    +0.211 HD
ENDBRANCH   9  32
BRANCH  15  34
ATOM     34  O   UNL     1     -32.461  26.751   5.188  0.00  0.00    -0.377 OA
ATOM     35  H   UNL     1     -32.064  27.159   5.973  0.00  0.00    +0.211 HD
ENDBRANCH  15  34
TORSDOF 2
ENDMDL
MODEL 8
REMARK VINA RESULT:      -6.4      1.893      6.555
REMARK  Name = 56955927
REMARK  2 active torsions:
REMARK  status: ('A' for Active; 'I' for Inactive)
REMARK    1  A    between atoms: C_9  and  O_32
REMARK    2  A    between atoms: C_15  and  O_34
REMARK                            x       y       z     vdW  Elec       q    Type
REMARK                         _______ _______ _______ _____ _____    ______ ____
ROOT
ATOM      1  O   UNL     1     -31.353  27.107   0.951  0.00  0.00    -0.447 OA
ATOM      2  O   UNL     1     -32.957  29.606   4.149  0.00  0.00    -0.449 OA
ATOM      3  O   UNL     1     -36.483  22.088   1.745  0.00  0.00    -0.452 OA
ATOM      4  O   UNL     1     -35.034  30.022   3.322  0.00  0.00    -0.250 OA
ATOM      5  O   UNL     1     -30.533  26.153   2.803  0.00  0.00    -0.247 OA
ATOM      6  O   UNL     1     -35.702  20.284   2.874  0.00  0.00    -0.245 OA
ATOM      7  C   UNL     1     -34.917  27.329   1.975  0.00  0.00    +0.033 C 
ATOM      8  C   UNL     1     -33.655  28.235   2.330  0.00  0.00    +0.147 C 
ATOM      9  C   UNL     1     -32.465  27.571   3.089  0.00  0.00    +0.227 C 
ATOM     10  C   UNL     1     -34.420  26.134   1.136  0.00  0.00    -0.021 C 
ATOM     11  C   UNL     1     -35.685  26.872   3.246  0.00  0.00    +0.005 C 
ATOM     12  C   UNL     1     -32.474  27.670   0.210  0.00  0.00    +0.180 C 
ATOM     13  C   UNL     1     -33.074  28.794   1.029  0.00  0.00    +0.007 C 
ATOM     14  C   UNL     1     -35.878  24.432   2.419  0.00  0.00    +0.067 C 
ATOM     15  C   UNL     1     -33.497  26.515  -0.040  0.00  0.00    +0.168 C 
ATOM     16  C   UNL     1     -36.608  25.696   2.966  0.00  0.00    +0.011 C 
ATOM     17  C   UNL     1     -34.779  24.843   1.390  0.00  0.00    -0.043 C 
ATOM     18  C   UNL     1     -31.843  28.761   3.828  0.00  0.00    +0.204 C 
ATOM     19  C   UNL     1     -34.001  29.369   3.302  0.00  0.00    +0.323 C 
ATOM     20  C   UNL     1     -35.971  28.106   1.117  0.00  0.00    +0.005 C 
ATOM     21  C   UNL     1     -36.993  23.449   1.851  0.00  0.00    +0.143 C 
ATOM     22  C   UNL     1     -31.382  26.873   2.278  0.00  0.00    +0.346 C 
ATOM     23  C   UNL     1     -31.834  28.103  -1.125  0.00  0.00    +0.051 C 
ATOM     24  C   UNL     1     -35.213  23.728   3.591  0.00  0.00    -0.013 C 
ATOM     25  C   UNL     1     -33.087  30.087   0.658  0.00  0.00    -0.005 C 
ATOM     26  C   UNL     1     -34.084  23.725   0.634  0.00  0.00    +0.026 C 
ATOM     27  C   UNL     1     -31.103  28.446   5.121  0.00  0.00    +0.051 C 
ATOM     28  C   UNL     1     -38.262  23.337   2.737  0.00  0.00    +0.044 C 
ATOM     29  C   UNL     1     -37.473  23.831   0.437  0.00  0.00    +0.044 C 
ATOM     30  C   UNL     1     -35.230  22.404   3.773  0.00  0.00    +0.078 C 
ATOM     31  C   UNL     1     -35.835  21.499   2.783  0.00  0.00    +0.341 C 
ENDROOT
BRANCH   9  32
ATOM     32  O   UNL     1     -32.854  26.598   4.046  0.00  0.00    -0.373 OA
ATOM     33  H   UNL     1     -33.243  27.040   4.817  0.00  0.00    +0.211 HD
ENDBRANCH   9  32
BRANCH  15  34
ATOM     34  O   UNL     1     -34.336  26.791  -1.167  0.00  0.00    -0.377 OA
ATOM     35  H   UNL     1     -33.793  26.841  -1.970  0.00  0.00    +0.211 HD
ENDBRANCH  15  34
TORSDOF 2
ENDMDL
MODEL 9
REMARK VINA RESULT:      -6.4      1.921      6.933
REMARK  Name = 56955927
REMARK  2 active torsions:
REMARK  status: ('A' for Active; 'I' for Inactive)
REMARK    1  A    between atoms: C_9  and  O_32
REMARK    2  A    between atoms: C_15  and  O_34
REMARK                            x       y       z     vdW  Elec       q    Type
REMARK                         _______ _______ _______ _____ _____    ______ ____
ROOT
ATOM      1  O   UNL     1     -34.596  29.361  -0.193  0.00  0.00    -0.447 OA
ATOM      2  O   UNL     1     -30.491  27.897   0.034  0.00  0.00    -0.449 OA
ATOM      3  O   UNL     1     -37.122  24.160   4.133  0.00  0.00    -0.452 OA
ATOM      4  O   UNL     1     -30.135  28.067   2.274  0.00  0.00    -0.250 OA
ATOM      5  O   UNL     1     -34.562  27.700  -1.695  0.00  0.00    -0.247 OA
ATOM      6  O   UNL     1     -38.159  22.533   2.944  0.00  0.00    -0.245 OA
ATOM      7  C   UNL     1     -33.076  27.547   2.670  0.00  0.00    +0.033 C 
ATOM      8  C   UNL     1     -32.427  28.225   1.383  0.00  0.00    +0.147 C 
ATOM      9  C   UNL     1     -32.826  27.670  -0.020  0.00  0.00    +0.227 C 
ATOM     10  C   UNL     1     -34.609  27.643   2.534  0.00  0.00    -0.021 C 
ATOM     11  C   UNL     1     -32.597  26.081   2.862  0.00  0.00    +0.005 C 
ATOM     12  C   UNL     1     -34.285  29.867   1.137  0.00  0.00    +0.180 C 
ATOM     13  C   UNL     1     -32.798  29.711   1.374  0.00  0.00    +0.007 C 
ATOM     14  C   UNL     1     -34.985  25.218   3.338  0.00  0.00    +0.067 C 
ATOM     15  C   UNL     1     -35.134  29.044   2.160  0.00  0.00    +0.168 C 
ATOM     16  C   UNL     1     -33.500  25.302   3.806  0.00  0.00    +0.011 C 
ATOM     17  C   UNL     1     -35.446  26.586   2.746  0.00  0.00    -0.043 C 
ATOM     18  C   UNL     1     -31.598  28.016  -0.869  0.00  0.00    +0.204 C 
ATOM     19  C   UNL     1     -30.906  28.045   1.327  0.00  0.00    +0.323 C 
ATOM     20  C   UNL     1     -32.669  28.287   3.988  0.00  0.00    +0.005 C 
ATOM     21  C   UNL     1     -35.843  24.701   4.576  0.00  0.00    +0.143 C 
ATOM     22  C   UNL     1     -34.069  28.227  -0.699  0.00  0.00    +0.346 C 
ATOM     23  C   UNL     1     -34.790  31.324   1.087  0.00  0.00    +0.051 C 
ATOM     24  C   UNL     1     -35.078  24.157   2.253  0.00  0.00    -0.013 C 
ATOM     25  C   UNL     1     -31.941  30.732   1.551  0.00  0.00    -0.005 C 
ATOM     26  C   UNL     1     -36.915  26.731   2.396  0.00  0.00    +0.026 C 
ATOM     27  C   UNL     1     -31.325  27.115  -2.068  0.00  0.00    +0.051 C 
ATOM     28  C   UNL     1     -35.178  23.556   5.385  0.00  0.00    +0.044 C 
ATOM     29  C   UNL     1     -36.183  25.816   5.583  0.00  0.00    +0.044 C 
ATOM     30  C   UNL     1     -36.056  23.249   2.180  0.00  0.00    +0.078 C 
ATOM     31  C   UNL     1     -37.189  23.260   3.118  0.00  0.00    +0.341 C 
ENDROOT
BRANCH   9  32
ATOM     32  O   UNL     1     -33.019  26.264  -0.056  0.00  0.00    -0.373 OA
ATOM     33  H   UNL     1     -33.754  26.054  -0.654  0.00  0.00    +0.211 HD
ENDBRANCH   9  32
BRANCH  15  34
ATOM     34  O   UNL     1     -35.327  29.766   3.383  0.00  0.00    -0.377 OA
ATOM     35  H   UNL     1     -36.225  29.604   3.715  0.00  0.00    +0.211 HD
ENDBRANCH  15  34
TORSDOF 2
ENDMDL
