MODEL 1
REMARK VINA RESULT:      -6.9      0.000      0.000
REMARK  Name = 21126389
REMARK  8 active torsions:
REMARK  status: ('A' for Active; 'I' for Inactive)
REMARK    1  A    between atoms: C_3  and  O_15
REMARK    2  A    between atoms: C_4  and  O_17
REMARK    3  A    between atoms: C_6  and  O_21
REMARK    4  A    between atoms: C_10  and  C_20
REMARK    5  A    between atoms: O_21  and  C_23
REMARK    6  A    between atoms: C_23  and  C_24
REMARK    7  A    between atoms: C_26  and  O_31
REMARK    8  A    between atoms: C_30  and  O_33
REMARK                            x       y       z     vdW  Elec       q    Type
REMARK                         _______ _______ _______ _____ _____    ______ ____
ROOT
ATOM      1  C   UNL     1     -35.993  25.970   2.900  0.00  0.00    +0.036 C 
ATOM      2  C   UNL     1     -35.125  27.026   3.583  0.00  0.00    +0.031 C 
ATOM      3  C   UNL     1     -36.256  24.675   3.719  0.00  0.00    +0.146 C 
ATOM      4  C   UNL     1     -33.953  26.442   4.390  0.00  0.00    +0.107 C 
ATOM      5  C   UNL     1     -35.476  25.059   1.750  0.00  0.00    +0.049 C 
ATOM      6  C   UNL     1     -36.330  23.928   2.359  0.00  0.00    +0.197 C 
ATOM      7  C   UNL     1     -34.515  27.988   2.546  0.00  0.00    +0.003 C 
ATOM      8  C   UNL     1     -32.979  27.892   2.676  0.00  0.00    +0.003 C 
ATOM      9  C   UNL     1     -32.735  26.595   3.472  0.00  0.00    +0.031 C 
ATOM     10  C   UNL     1     -35.158  24.234   4.615  0.00  0.00    +0.045 C 
ATOM     11  C   UNL     1     -37.296  26.637   2.439  0.00  0.00    +0.003 C 
ATOM     12  C   UNL     1     -34.123  25.036   4.898  0.00  0.00    +0.001 C 
ATOM     13  C   UNL     1     -32.313  27.810   1.296  0.00  0.00    +0.000 C 
ATOM     14  C   UNL     1     -32.421  29.124   3.409  0.00  0.00    +0.000 C 
ENDROOT
BRANCH   3  15
ATOM     15  O   UNL     1     -37.522  24.687   4.429  0.00  0.00    -0.379 OA
ATOM     16  H   UNL     1     -37.437  25.222   5.232  0.00  0.00    +0.211 HD
ENDBRANCH   3  15
BRANCH   4  17
ATOM     17  O   UNL     1     -33.779  27.276   5.543  0.00  0.00    -0.383 OA
ATOM     18  H   UNL     1     -33.495  26.733   6.295  0.00  0.00    +0.211 HD
ENDBRANCH   4  17
BRANCH  10  20
ATOM     19  O   UNL     1     -36.065  22.539   5.984  0.00  0.00    -0.283 OA
ATOM     20  C   UNL     1     -35.178  22.900   5.223  0.00  0.00    +0.232 C 
ENDBRANCH  10  20
BRANCH   6  21
ATOM     21  O   UNL     1     -35.761  22.610   2.279  0.00  0.00    -0.446 OA
BRANCH  21  23
ATOM     22  O   UNL     1     -36.518  22.260   0.133  0.00  0.00    -0.245 OA
ATOM     23  C   UNL     1     -35.726  22.053   1.039  0.00  0.00    +0.344 C 
BRANCH  23  24
ATOM     24  C   UNL     1     -34.567  21.133   0.916  0.00  0.00    +0.105 C 
ATOM     25  C   UNL     1     -33.449  21.507   0.172  0.00  0.00    -0.010 C 
ATOM     26  C   UNL     1     -34.602  19.888   1.545  0.00  0.00    +0.143 C 
ATOM     27  C   UNL     1     -32.364  20.638   0.056  0.00  0.00    +0.033 C 
ATOM     28  C   UNL     1     -33.517  19.017   1.429  0.00  0.00    +0.074 C 
ATOM     29  C   UNL     1     -33.384  22.833  -0.513  0.00  0.00    +0.031 C 
ATOM     30  C   UNL     1     -32.399  19.393   0.685  0.00  0.00    +0.141 C 
BRANCH  26  31
ATOM     31  O   UNL     1     -35.684  19.501   2.277  0.00  0.00    -0.505 OA
ATOM     32  H   UNL     1     -36.502  19.333   1.852  0.00  0.00    +0.292 HD
ENDBRANCH  26  31
BRANCH  30  33
ATOM     33  O   UNL     1     -31.342  18.543   0.572  0.00  0.00    -0.471 OA
ATOM     34  C   UNL     1     -30.151  19.063  -0.017  0.00  0.00    +0.252 C 
ENDBRANCH  30  33
ENDBRANCH  23  24
ENDBRANCH  21  23
ENDBRANCH   6  21
TORSDOF 8
ENDMDL
MODEL 2
REMARK VINA RESULT:      -6.9      2.000      7.001
REMARK  Name = 21126389
REMARK  8 active torsions:
REMARK  status: ('A' for Active; 'I' for Inactive)
REMARK    1  A    between atoms: C_3  and  O_15
REMARK    2  A    between atoms: C_4  and  O_17
REMARK    3  A    between atoms: C_6  and  O_21
REMARK    4  A    between atoms: C_10  and  C_20
REMARK    5  A    between atoms: O_21  and  C_23
REMARK    6  A    between atoms: C_23  and  C_24
REMARK    7  A    between atoms: C_26  and  O_31
REMARK    8  A    between atoms: C_30  and  O_33
REMARK                            x       y       z     vdW  Elec       q    Type
REMARK                         _______ _______ _______ _____ _____    ______ ____
ROOT
ATOM      1  C   UNL     1     -35.580  21.449   2.488  0.00  0.00    +0.036 C 
ATOM      2  C   UNL     1     -35.616  20.027   1.931  0.00  0.00    +0.031 C 
ATOM      3  C   UNL     1     -36.881  22.281   2.308  0.00  0.00    +0.146 C 
ATOM      4  C   UNL     1     -36.365  19.901   0.593  0.00  0.00    +0.107 C 
ATOM      5  C   UNL     1     -34.817  22.614   1.794  0.00  0.00    +0.049 C 
ATOM      6  C   UNL     1     -35.969  23.538   2.239  0.00  0.00    +0.197 C 
ATOM      7  C   UNL     1     -34.190  19.494   1.694  0.00  0.00    +0.003 C 
ATOM      8  C   UNL     1     -34.070  19.151   0.193  0.00  0.00    +0.003 C 
ATOM      9  C   UNL     1     -35.260  19.872  -0.470  0.00  0.00    +0.031 C 
ATOM     10  C   UNL     1     -37.665  22.011   1.078  0.00  0.00    +0.045 C 
ATOM     11  C   UNL     1     -35.132  21.385   3.954  0.00  0.00    +0.003 C 
ATOM     12  C   UNL     1     -37.414  20.942   0.310  0.00  0.00    +0.001 C 
ATOM     13  C   UNL     1     -32.743  19.659  -0.385  0.00  0.00    +0.000 C 
ATOM     14  C   UNL     1     -34.137  17.628  -0.020  0.00  0.00    +0.000 C 
ENDROOT
BRANCH   3  15
ATOM     15  O   UNL     1     -37.741  22.269   3.477  0.00  0.00    -0.379 OA
ATOM     16  H   UNL     1     -38.552  22.764   3.286  0.00  0.00    +0.211 HD
ENDBRANCH   3  15
BRANCH   4  17
ATOM     17  O   UNL     1     -37.037  18.634   0.604  0.00  0.00    -0.383 OA
ATOM     18  H   UNL     1     -37.456  18.498   1.468  0.00  0.00    +0.211 HD
ENDBRANCH   4  17
BRANCH  10  20
ATOM     19  O   UNL     1     -39.484  23.462   1.474  0.00  0.00    -0.283 OA
ATOM     20  C   UNL     1     -38.748  22.909   0.668  0.00  0.00    +0.232 C 
ENDBRANCH  10  20
BRANCH   6  21
ATOM     21  O   UNL     1     -36.322  24.580   1.313  0.00  0.00    -0.446 OA
BRANCH  21  23
ATOM     22  O   UNL     1     -37.430  26.594   1.424  0.00  0.00    -0.245 OA
ATOM     23  C   UNL     1     -36.633  25.783   1.865  0.00  0.00    +0.344 C 
BRANCH  23  24
ATOM     24  C   UNL     1     -35.858  25.996   3.114  0.00  0.00    +0.105 C 
ATOM     25  C   UNL     1     -34.550  26.479   3.055  0.00  0.00    -0.010 C 
ATOM     26  C   UNL     1     -36.440  25.706   4.348  0.00  0.00    +0.143 C 
ATOM     27  C   UNL     1     -33.825  26.674   4.231  0.00  0.00    +0.033 C 
ATOM     28  C   UNL     1     -35.714  25.900   5.524  0.00  0.00    +0.074 C 
ATOM     29  C   UNL     1     -33.901  26.796   1.748  0.00  0.00    +0.031 C 
ATOM     30  C   UNL     1     -34.407  26.384   5.465  0.00  0.00    +0.141 C 
BRANCH  26  31
ATOM     31  O   UNL     1     -37.715  25.233   4.429  0.00  0.00    -0.505 OA
ATOM     32  H   UNL     1     -38.114  24.832   3.682  0.00  0.00    +0.292 HD
ENDBRANCH  26  31
BRANCH  30  33
ATOM     33  O   UNL     1     -33.700  26.573   6.612  0.00  0.00    -0.471 OA
ATOM     34  C   UNL     1     -32.528  27.381   6.527  0.00  0.00    +0.252 C 
ENDBRANCH  30  33
ENDBRANCH  23  24
ENDBRANCH  21  23
ENDBRANCH   6  21
TORSDOF 8
ENDMDL
MODEL 3
REMARK VINA RESULT:      -6.9     12.424     14.182
REMARK  Name = 21126389
REMARK  8 active torsions:
REMARK  status: ('A' for Active; 'I' for Inactive)
REMARK    1  A    between atoms: C_3  and  O_15
REMARK    2  A    between atoms: C_4  and  O_17
REMARK    3  A    between atoms: C_6  and  O_21
REMARK    4  A    between atoms: C_10  and  C_20
REMARK    5  A    between atoms: O_21  and  C_23
REMARK    6  A    between atoms: C_23  and  C_24
REMARK    7  A    between atoms: C_26  and  O_31
REMARK    8  A    between atoms: C_30  and  O_33
REMARK                            x       y       z     vdW  Elec       q    Type
REMARK                         _______ _______ _______ _____ _____    ______ ____
ROOT
ATOM      1  C   UNL     1     -45.647  32.596   5.093  0.00  0.00    +0.036 C 
ATOM      2  C   UNL     1     -46.146  31.358   5.836  0.00  0.00    +0.031 C 
ATOM      3  C   UNL     1     -45.486  32.444   3.554  0.00  0.00    +0.146 C 
ATOM      4  C   UNL     1     -45.561  30.037   5.307  0.00  0.00    +0.107 C 
ATOM      5  C   UNL     1     -44.168  33.075   5.135  0.00  0.00    +0.049 C 
ATOM      6  C   UNL     1     -44.332  33.479   3.656  0.00  0.00    +0.197 C 
ATOM      7  C   UNL     1     -45.786  31.435   7.332  0.00  0.00    +0.003 C 
ATOM      8  C   UNL     1     -44.904  30.210   7.659  0.00  0.00    +0.003 C 
ATOM      9  C   UNL     1     -44.432  29.691   6.286  0.00  0.00    +0.031 C 
ATOM     10  C   UNL     1     -45.079  31.101   3.069  0.00  0.00    +0.045 C 
ATOM     11  C   UNL     1     -46.548  33.781   5.465  0.00  0.00    +0.003 C 
ATOM     12  C   UNL     1     -45.107  30.030   3.873  0.00  0.00    +0.001 C 
ATOM     13  C   UNL     1     -43.702  30.610   8.525  0.00  0.00    +0.000 C 
ATOM     14  C   UNL     1     -45.715  29.147   8.421  0.00  0.00    +0.000 C 
ENDROOT
BRANCH   3  15
ATOM     15  O   UNL     1     -46.625  32.936   2.801  0.00  0.00    -0.379 OA
ATOM     16  H   UNL     1     -47.193  32.191   2.553  0.00  0.00    +0.211 HD
ENDBRANCH   3  15
BRANCH   4  17
ATOM     17  O   UNL     1     -46.593  29.047   5.415  0.00  0.00    -0.383 OA
ATOM     18  H   UNL     1     -46.225  28.173   5.211  0.00  0.00    +0.211 HD
ENDBRANCH   4  17
BRANCH  10  20
ATOM     19  O   UNL     1     -45.172  31.468   0.740  0.00  0.00    -0.283 OA
ATOM     20  C   UNL     1     -44.636  30.908   1.685  0.00  0.00    +0.232 C 
ENDBRANCH  10  20
BRANCH   6  21
ATOM     21  O   UNL     1     -43.173  33.285   2.826  0.00  0.00    -0.446 OA
BRANCH  21  23
ATOM     22  O   UNL     1     -43.847  34.667   1.113  0.00  0.00    -0.245 OA
ATOM     23  C   UNL     1     -42.985  34.208   1.846  0.00  0.00    +0.344 C 
BRANCH  23  24
ATOM     24  C   UNL     1     -41.556  34.604   1.774  0.00  0.00    +0.105 C 
ATOM     25  C   UNL     1     -40.757  34.164   0.718  0.00  0.00    -0.010 C 
ATOM     26  C   UNL     1     -41.011  35.416   2.769  0.00  0.00    +0.143 C 
ATOM     27  C   UNL     1     -39.415  34.536   0.656  0.00  0.00    +0.033 C 
ATOM     28  C   UNL     1     -39.668  35.788   2.707  0.00  0.00    +0.074 C 
ATOM     29  C   UNL     1     -41.313  33.292  -0.360  0.00  0.00    +0.031 C 
ATOM     30  C   UNL     1     -38.870  35.348   1.652  0.00  0.00    +0.141 C 
BRANCH  26  31
ATOM     31  O   UNL     1     -41.773  35.858   3.808  0.00  0.00    -0.505 OA
ATOM     32  H   UNL     1     -41.885  36.778   3.949  0.00  0.00    +0.292 HD
ENDBRANCH  26  31
BRANCH  30  33
ATOM     33  O   UNL     1     -37.560  35.711   1.593  0.00  0.00    -0.471 OA
ATOM     34  C   UNL     1     -37.224  36.792   0.724  0.00  0.00    +0.252 C 
ENDBRANCH  30  33
ENDBRANCH  23  24
ENDBRANCH  21  23
ENDBRANCH   6  21
TORSDOF 8
ENDMDL
MODEL 4
REMARK VINA RESULT:      -6.6      2.705      4.034
REMARK  Name = 21126389
REMARK  8 active torsions:
REMARK  status: ('A' for Active; 'I' for Inactive)
REMARK    1  A    between atoms: C_3  and  O_15
REMARK    2  A    between atoms: C_4  and  O_17
REMARK    3  A    between atoms: C_6  and  O_21
REMARK    4  A    between atoms: C_10  and  C_20
REMARK    5  A    between atoms: O_21  and  C_23
REMARK    6  A    between atoms: C_23  and  C_24
REMARK    7  A    between atoms: C_26  and  O_31
REMARK    8  A    between atoms: C_30  and  O_33
REMARK                            x       y       z     vdW  Elec       q    Type
REMARK                         _______ _______ _______ _____ _____    ______ ____
ROOT
ATOM      1  C   UNL     1     -37.768  23.325   2.360  0.00  0.00    +0.036 C 
ATOM      2  C   UNL     1     -37.300  23.832   3.723  0.00  0.00    +0.031 C 
ATOM      3  C   UNL     1     -37.454  21.835   2.045  0.00  0.00    +0.146 C 
ATOM      4  C   UNL     1     -35.927  23.286   4.152  0.00  0.00    +0.107 C 
ATOM      5  C   UNL     1     -37.055  23.689   1.026  0.00  0.00    +0.049 C 
ATOM      6  C   UNL     1     -37.366  22.255   0.552  0.00  0.00    +0.197 C 
ATOM      7  C   UNL     1     -37.188  25.368   3.728  0.00  0.00    +0.003 C 
ATOM      8  C   UNL     1     -35.723  25.723   4.060  0.00  0.00    +0.003 C 
ATOM      9  C   UNL     1     -34.941  24.415   3.828  0.00  0.00    +0.031 C 
ATOM     10  C   UNL     1     -36.195  21.298   2.619  0.00  0.00    +0.045 C 
ATOM     11  C   UNL     1     -39.262  23.646   2.210  0.00  0.00    +0.003 C 
ATOM     12  C   UNL     1     -35.513  21.967   3.557  0.00  0.00    +0.001 C 
ATOM     13  C   UNL     1     -35.201  26.833   3.138  0.00  0.00    +0.000 C 
ATOM     14  C   UNL     1     -35.601  26.208   5.516  0.00  0.00    +0.000 C 
ENDROOT
BRANCH   3  15
ATOM     15  O   UNL     1     -38.564  20.940   2.318  0.00  0.00    -0.379 OA
ATOM     16  H   UNL     1     -39.145  21.340   2.982  0.00  0.00    +0.211 HD
ENDBRANCH   3  15
BRANCH   4  17
ATOM     17  O   UNL     1     -35.973  23.098   5.573  0.00  0.00    -0.383 OA
ATOM     18  H   UNL     1     -36.886  22.915   5.845  0.00  0.00    +0.211 HD
ENDBRANCH   4  17
BRANCH  10  20
ATOM     19  O   UNL     1     -34.475  19.835   1.932  0.00  0.00    -0.283 OA
ATOM     20  C   UNL     1     -35.662  20.007   2.173  0.00  0.00    +0.232 C 
ENDBRANCH  10  20
BRANCH   6  21
ATOM     21  O   UNL     1     -36.356  21.638  -0.265  0.00  0.00    -0.446 OA
BRANCH  21  23
ATOM     22  O   UNL     1     -37.293  21.320  -2.344  0.00  0.00    -0.245 OA
ATOM     23  C   UNL     1     -36.811  20.892  -1.307  0.00  0.00    +0.344 C 
BRANCH  23  24
ATOM     24  C   UNL     1     -36.644  19.445  -1.020  0.00  0.00    +0.105 C 
ATOM     25  C   UNL     1     -35.432  18.811  -1.290  0.00  0.00    -0.010 C 
ATOM     26  C   UNL     1     -37.708  18.718  -0.485  0.00  0.00    +0.143 C 
ATOM     27  C   UNL     1     -35.280  17.450  -1.022  0.00  0.00    +0.033 C 
ATOM     28  C   UNL     1     -37.557  17.356  -0.217  0.00  0.00    +0.074 C 
ATOM     29  C   UNL     1     -34.277  19.564  -1.866  0.00  0.00    +0.031 C 
ATOM     30  C   UNL     1     -36.343  16.723  -0.487  0.00  0.00    +0.141 C 
BRANCH  26  31
ATOM     31  O   UNL     1     -38.901  19.316  -0.213  0.00  0.00    -0.505 OA
ATOM     32  H   UNL     1     -39.622  18.805   0.099  0.00  0.00    +0.292 HD
ENDBRANCH  26  31
BRANCH  30  33
ATOM     33  O   UNL     1     -36.198  15.395  -0.226  0.00  0.00    -0.471 OA
ATOM     34  C   UNL     1     -35.344  14.653  -1.095  0.00  0.00    +0.252 C 
ENDBRANCH  30  33
ENDBRANCH  23  24
ENDBRANCH  21  23
ENDBRANCH   6  21
TORSDOF 8
ENDMDL
MODEL 5
REMARK VINA RESULT:      -6.6      2.142      7.407
REMARK  Name = 21126389
REMARK  8 active torsions:
REMARK  status: ('A' for Active; 'I' for Inactive)
REMARK    1  A    between atoms: C_3  and  O_15
REMARK    2  A    between atoms: C_4  and  O_17
REMARK    3  A    between atoms: C_6  and  O_21
REMARK    4  A    between atoms: C_10  and  C_20
REMARK    5  A    between atoms: O_21  and  C_23
REMARK    6  A    between atoms: C_23  and  C_24
REMARK    7  A    between atoms: C_26  and  O_31
REMARK    8  A    between atoms: C_30  and  O_33
REMARK                            x       y       z     vdW  Elec       q    Type
REMARK                         _______ _______ _______ _____ _____    ______ ____
ROOT
ATOM      1  C   UNL     1     -34.912  20.268   0.926  0.00  0.00    +0.036 C 
ATOM      2  C   UNL     1     -34.980  19.445  -0.360  0.00  0.00    +0.031 C 
ATOM      3  C   UNL     1     -36.279  20.712   1.520  0.00  0.00    +0.146 C 
ATOM      4  C   UNL     1     -36.066  19.915  -1.343  0.00  0.00    +0.107 C 
ATOM      5  C   UNL     1     -34.487  21.764   0.957  0.00  0.00    +0.049 C 
ATOM      6  C   UNL     1     -35.540  21.966   2.064  0.00  0.00    +0.197 C 
ATOM      7  C   UNL     1     -33.640  19.503  -1.119  0.00  0.00    +0.003 C 
ATOM      8  C   UNL     1     -33.925  20.102  -2.513  0.00  0.00    +0.003 C 
ATOM      9  C   UNL     1     -35.314  20.756  -2.381  0.00  0.00    +0.031 C 
ATOM     10  C   UNL     1     -37.355  20.998   0.540  0.00  0.00    +0.045 C 
ATOM     11  C   UNL     1     -34.059  19.502   1.946  0.00  0.00    +0.003 C 
ATOM     12  C   UNL     1     -37.241  20.643  -0.748  0.00  0.00    +0.001 C 
ATOM     13  C   UNL     1     -32.870  21.150  -2.889  0.00  0.00    +0.000 C 
ATOM     14  C   UNL     1     -33.914  19.000  -3.587  0.00  0.00    +0.000 C 
ENDROOT
BRANCH   3  15
ATOM     15  O   UNL     1     -36.763  19.838   2.572  0.00  0.00    -0.379 OA
ATOM     16  H   UNL     1     -36.089  19.172   2.774  0.00  0.00    +0.211 HD
ENDBRANCH   3  15
BRANCH   4  17
ATOM     17  O   UNL     1     -36.592  18.744  -1.981  0.00  0.00    -0.383 OA
ATOM     18  H   UNL     1     -37.182  19.007  -2.705  0.00  0.00    +0.211 HD
ENDBRANCH   4  17
BRANCH  10  20
ATOM     19  O   UNL     1     -39.266  21.287   1.895  0.00  0.00    -0.283 OA
ATOM     20  C   UNL     1     -38.586  21.677   0.956  0.00  0.00    +0.232 C 
ENDBRANCH  10  20
BRANCH   6  21
ATOM     21  O   UNL     1     -36.235  23.225   2.038  0.00  0.00    -0.446 OA
BRANCH  21  23
ATOM     22  O   UNL     1     -37.741  23.318   3.777  0.00  0.00    -0.245 OA
ATOM     23  C   UNL     1     -36.704  23.668   3.235  0.00  0.00    +0.344 C 
BRANCH  23  24
ATOM     24  C   UNL     1     -35.770  24.661   3.822  0.00  0.00    +0.105 C 
ATOM     25  C   UNL     1     -35.055  24.354   4.980  0.00  0.00    -0.010 C 
ATOM     26  C   UNL     1     -35.613  25.907   3.216  0.00  0.00    +0.143 C 
ATOM     27  C   UNL     1     -34.181  25.291   5.530  0.00  0.00    +0.033 C 
ATOM     28  C   UNL     1     -34.739  26.846   3.767  0.00  0.00    +0.074 C 
ATOM     29  C   UNL     1     -35.205  23.028   5.652  0.00  0.00    +0.031 C 
ATOM     30  C   UNL     1     -34.024  26.538   4.924  0.00  0.00    +0.141 C 
BRANCH  26  31
ATOM     31  O   UNL     1     -36.301  26.229   2.085  0.00  0.00    -0.505 OA
ATOM     32  H   UNL     1     -36.722  25.557   1.585  0.00  0.00    +0.292 HD
ENDBRANCH  26  31
BRANCH  30  33
ATOM     33  O   UNL     1     -33.172  27.454   5.460  0.00  0.00    -0.471 OA
ATOM     34  C   UNL     1     -32.665  27.182   6.765  0.00  0.00    +0.252 C 
ENDBRANCH  30  33
ENDBRANCH  23  24
ENDBRANCH  21  23
ENDBRANCH   6  21
TORSDOF 8
ENDMDL
MODEL 6
REMARK VINA RESULT:      -6.5      2.942      7.782
REMARK  Name = 21126389
REMARK  8 active torsions:
REMARK  status: ('A' for Active; 'I' for Inactive)
REMARK    1  A    between atoms: C_3  and  O_15
REMARK    2  A    between atoms: C_4  and  O_17
REMARK    3  A    between atoms: C_6  and  O_21
REMARK    4  A    between atoms: C_10  and  C_20
REMARK    5  A    between atoms: O_21  and  C_23
REMARK    6  A    between atoms: C_23  and  C_24
REMARK    7  A    between atoms: C_26  and  O_31
REMARK    8  A    between atoms: C_30  and  O_33
REMARK                            x       y       z     vdW  Elec       q    Type
REMARK                         _______ _______ _______ _____ _____    ______ ____
ROOT
ATOM      1  C   UNL     1     -35.713  21.660   2.599  0.00  0.00    +0.036 C 
ATOM      2  C   UNL     1     -35.614  20.221   2.094  0.00  0.00    +0.031 C 
ATOM      3  C   UNL     1     -37.043  22.400   2.279  0.00  0.00    +0.146 C 
ATOM      4  C   UNL     1     -36.234  20.005   0.703  0.00  0.00    +0.107 C 
ATOM      5  C   UNL     1     -34.966  22.849   1.930  0.00  0.00    +0.049 C 
ATOM      6  C   UNL     1     -36.207  23.710   2.241  0.00  0.00    +0.197 C 
ATOM      7  C   UNL     1     -34.142  19.775   1.998  0.00  0.00    +0.003 C 
ATOM      8  C   UNL     1     -33.871  19.392   0.527  0.00  0.00    +0.003 C 
ATOM      9  C   UNL     1     -35.041  20.014  -0.261  0.00  0.00    +0.031 C 
ATOM     10  C   UNL     1     -37.699  22.041   0.997  0.00  0.00    +0.045 C 
ATOM     11  C   UNL     1     -35.392  21.671   4.099  0.00  0.00    +0.003 C 
ATOM     12  C   UNL     1     -37.317  20.967   0.294  0.00  0.00    +0.001 C 
ATOM     13  C   UNL     1     -32.532  19.967   0.045  0.00  0.00    +0.000 C 
ATOM     14  C   UNL     1     -33.825  17.863   0.365  0.00  0.00    +0.000 C 
ENDROOT
BRANCH   3  15
ATOM     15  O   UNL     1     -37.999  22.369   3.370  0.00  0.00    -0.379 OA
ATOM     16  H   UNL     1     -37.950  23.200   3.866  0.00  0.00    +0.211 HD
ENDBRANCH   3  15
BRANCH   4  17
ATOM     17  O   UNL     1     -36.825  18.699   0.703  0.00  0.00    -0.383 OA
ATOM     18  H   UNL     1     -37.399  18.604   1.480  0.00  0.00    +0.211 HD
ENDBRANCH   4  17
BRANCH  10  20
ATOM     19  O   UNL     1     -39.888  22.923   1.009  0.00  0.00    -0.283 OA
ATOM     20  C   UNL     1     -38.795  22.855   0.464  0.00  0.00    +0.232 C 
ENDBRANCH  10  20
BRANCH   6  21
ATOM     21  O   UNL     1     -36.542  24.697   1.250  0.00  0.00    -0.446 OA
BRANCH  21  23
ATOM     22  O   UNL     1     -36.129  26.811   2.064  0.00  0.00    -0.245 OA
ATOM     23  C   UNL     1     -36.894  25.921   1.728  0.00  0.00    +0.344 C 
BRANCH  23  24
ATOM     24  C   UNL     1     -38.372  26.047   1.794  0.00  0.00    +0.105 C 
ATOM     25  C   UNL     1     -39.089  26.489   0.682  0.00  0.00    -0.010 C 
ATOM     26  C   UNL     1     -39.043  25.726   2.974  0.00  0.00    +0.143 C 
ATOM     27  C   UNL     1     -40.477  26.609   0.749  0.00  0.00    +0.033 C 
ATOM     28  C   UNL     1     -40.432  25.847   3.041  0.00  0.00    +0.074 C 
ATOM     29  C   UNL     1     -38.397  26.842  -0.594  0.00  0.00    +0.031 C 
ATOM     30  C   UNL     1     -41.148  26.289   1.929  0.00  0.00    +0.141 C 
BRANCH  26  31
ATOM     31  O   UNL     1     -38.363  25.292   4.072  0.00  0.00    -0.505 OA
ATOM     32  H   UNL     1     -38.781  25.286   4.910  0.00  0.00    +0.292 HD
ENDBRANCH  26  31
BRANCH  30  33
ATOM     33  O   UNL     1     -42.502  26.406   1.996  0.00  0.00    -0.471 OA
ATOM     34  C   UNL     1     -43.053  26.868   3.229  0.00  0.00    +0.252 C 
ENDBRANCH  30  33
ENDBRANCH  23  24
ENDBRANCH  21  23
ENDBRANCH   6  21
TORSDOF 8
ENDMDL
MODEL 7
REMARK VINA RESULT:      -6.5      2.317      3.618
REMARK  Name = 21126389
REMARK  8 active torsions:
REMARK  status: ('A' for Active; 'I' for Inactive)
REMARK    1  A    between atoms: C_3  and  O_15
REMARK    2  A    between atoms: C_4  and  O_17
REMARK    3  A    between atoms: C_6  and  O_21
REMARK    4  A    between atoms: C_10  and  C_20
REMARK    5  A    between atoms: O_21  and  C_23
REMARK    6  A    between atoms: C_23  and  C_24
REMARK    7  A    between atoms: C_26  and  O_31
REMARK    8  A    between atoms: C_30  and  O_33
REMARK                            x       y       z     vdW  Elec       q    Type
REMARK                         _______ _______ _______ _____ _____    ______ ____
ROOT
ATOM      1  C   UNL     1     -36.039  24.244   1.114  0.00  0.00    +0.036 C 
ATOM      2  C   UNL     1     -36.554  24.949   2.368  0.00  0.00    +0.031 C 
ATOM      3  C   UNL     1     -36.979  23.162   0.510  0.00  0.00    +0.146 C 
ATOM      4  C   UNL     1     -37.293  24.020   3.345  0.00  0.00    +0.107 C 
ATOM      5  C   UNL     1     -34.922  23.162   1.145  0.00  0.00    +0.049 C 
ATOM      6  C   UNL     1     -35.694  22.435   0.026  0.00  0.00    +0.197 C 
ATOM      7  C   UNL     1     -35.393  25.587   3.154  0.00  0.00    +0.003 C 
ATOM      8  C   UNL     1     -35.388  24.956   4.563  0.00  0.00    +0.003 C 
ATOM      9  C   UNL     1     -36.259  23.691   4.428  0.00  0.00    +0.031 C 
ATOM     10  C   UNL     1     -37.802  22.397   1.479  0.00  0.00    +0.045 C 
ATOM     11  C   UNL     1     -35.648  25.311   0.083  0.00  0.00    +0.003 C 
ATOM     12  C   UNL     1     -37.925  22.788   2.754  0.00  0.00    +0.001 C 
ATOM     13  C   UNL     1     -33.964  24.585   4.997  0.00  0.00    +0.000 C 
ATOM     14  C   UNL     1     -35.967  25.938   5.597  0.00  0.00    +0.000 C 
ENDROOT
BRANCH   3  15
ATOM     15  O   UNL     1     -37.799  23.653  -0.582  0.00  0.00    -0.379 OA
ATOM     16  H   UNL     1     -38.212  24.490  -0.324  0.00  0.00    +0.211 HD
ENDBRANCH   3  15
BRANCH   4  17
ATOM     17  O   UNL     1     -38.357  24.784   3.931  0.00  0.00    -0.383 OA
ATOM     18  H   UNL     1     -38.995  24.184   4.347  0.00  0.00    +0.211 HD
ENDBRANCH   4  17
BRANCH  10  20
ATOM     19  O   UNL     1     -38.911  21.015  -0.081  0.00  0.00    -0.283 OA
ATOM     20  C   UNL     1     -38.513  21.184   1.063  0.00  0.00    +0.232 C 
ENDBRANCH  10  20
BRANCH   6  21
ATOM     21  O   UNL     1     -35.667  20.998   0.085  0.00  0.00    -0.446 OA
BRANCH  21  23
ATOM     22  O   UNL     1     -35.071  20.416  -2.061  0.00  0.00    -0.245 OA
ATOM     23  C   UNL     1     -34.900  20.381  -0.853  0.00  0.00    +0.344 C 
BRANCH  23  24
ATOM     24  C   UNL     1     -33.790  19.635  -0.207  0.00  0.00    +0.105 C 
ATOM     25  C   UNL     1     -32.507  20.179  -0.170  0.00  0.00    -0.010 C 
ATOM     26  C   UNL     1     -34.035  18.384   0.359  0.00  0.00    +0.143 C 
ATOM     27  C   UNL     1     -31.467  19.473   0.435  0.00  0.00    +0.033 C 
ATOM     28  C   UNL     1     -32.994  17.677   0.963  0.00  0.00    +0.074 C 
ATOM     29  C   UNL     1     -32.215  21.516  -0.770  0.00  0.00    +0.031 C 
ATOM     30  C   UNL     1     -31.711  18.222   1.001  0.00  0.00    +0.141 C 
BRANCH  26  31
ATOM     31  O   UNL     1     -35.280  17.833   0.334  0.00  0.00    -0.505 OA
ATOM     32  H   UNL     1     -35.985  18.247   0.793  0.00  0.00    +0.292 HD
ENDBRANCH  26  31
BRANCH  30  33
ATOM     33  O   UNL     1     -30.697  17.532   1.591  0.00  0.00    -0.471 OA
ATOM     34  C   UNL     1     -29.420  17.585   0.957  0.00  0.00    +0.252 C 
ENDBRANCH  30  33
ENDBRANCH  23  24
ENDBRANCH  21  23
ENDBRANCH   6  21
TORSDOF 8
ENDMDL
MODEL 8
REMARK VINA RESULT:      -6.4      3.212      6.160
REMARK  Name = 21126389
REMARK  8 active torsions:
REMARK  status: ('A' for Active; 'I' for Inactive)
REMARK    1  A    between atoms: C_3  and  O_15
REMARK    2  A    between atoms: C_4  and  O_17
REMARK    3  A    between atoms: C_6  and  O_21
REMARK    4  A    between atoms: C_10  and  C_20
REMARK    5  A    between atoms: O_21  and  C_23
REMARK    6  A    between atoms: C_23  and  C_24
REMARK    7  A    between atoms: C_26  and  O_31
REMARK    8  A    between atoms: C_30  and  O_33
REMARK                            x       y       z     vdW  Elec       q    Type
REMARK                         _______ _______ _______ _____ _____    ______ ____
ROOT
ATOM      1  C   UNL     1     -31.640  29.014   2.698  0.00  0.00    +0.036 C 
ATOM      2  C   UNL     1     -30.720  30.141   3.165  0.00  0.00    +0.031 C 
ATOM      3  C   UNL     1     -33.071  29.441   2.265  0.00  0.00    +0.146 C 
ATOM      4  C   UNL     1     -31.430  31.214   4.008  0.00  0.00    +0.107 C 
ATOM      5  C   UNL     1     -32.307  28.002   3.673  0.00  0.00    +0.049 C 
ATOM      6  C   UNL     1     -33.546  28.045   2.756  0.00  0.00    +0.197 C 
ATOM      7  C   UNL     1     -29.570  29.588   4.027  0.00  0.00    +0.003 C 
ATOM      8  C   UNL     1     -29.665  30.263   5.412  0.00  0.00    +0.003 C 
ATOM      9  C   UNL     1     -31.087  30.859   5.459  0.00  0.00    +0.031 C 
ATOM     10  C   UNL     1     -33.658  30.592   2.995  0.00  0.00    +0.045 C 
ATOM     11  C   UNL     1     -30.917  28.221   1.600  0.00  0.00    +0.003 C 
ATOM     12  C   UNL     1     -32.909  31.374   3.785  0.00  0.00    +0.001 C 
ATOM     13  C   UNL     1     -29.473  29.240   6.539  0.00  0.00    +0.000 C 
ATOM     14  C   UNL     1     -28.587  31.351   5.559  0.00  0.00    +0.000 C 
ENDROOT
BRANCH   3  15
ATOM     15  O   UNL     1     -33.214  29.618   0.832  0.00  0.00    -0.379 OA
ATOM     16  H   UNL     1     -33.039  28.777   0.384  0.00  0.00    +0.211 HD
ENDBRANCH   3  15
BRANCH   4  17
ATOM     17  O   UNL     1     -30.828  32.474   3.680  0.00  0.00    -0.383 OA
ATOM     18  H   UNL     1     -30.626  32.958   4.495  0.00  0.00    +0.211 HD
ENDBRANCH   4  17
BRANCH  10  20
ATOM     19  O   UNL     1     -35.677  30.849   1.802  0.00  0.00    -0.283 OA
ATOM     20  C   UNL     1     -35.083  30.910   2.868  0.00  0.00    +0.232 C 
ENDBRANCH  10  20
BRANCH   6  21
ATOM     21  O   UNL     1     -34.817  27.959   3.423  0.00  0.00    -0.446 OA
BRANCH  21  23
ATOM     22  O   UNL     1     -36.543  27.493   1.973  0.00  0.00    -0.245 OA
ATOM     23  C   UNL     1     -35.743  27.158   2.832  0.00  0.00    +0.344 C 
BRANCH  23  24
ATOM     24  C   UNL     1     -35.660  25.779   3.377  0.00  0.00    +0.105 C 
ATOM     25  C   UNL     1     -35.190  24.736   2.580  0.00  0.00    -0.010 C 
ATOM     26  C   UNL     1     -36.059  25.528   4.690  0.00  0.00    +0.143 C 
ATOM     27  C   UNL     1     -35.117  23.442   3.094  0.00  0.00    +0.033 C 
ATOM     28  C   UNL     1     -35.987  24.233   5.205  0.00  0.00    +0.074 C 
ATOM     29  C   UNL     1     -34.758  24.975   1.169  0.00  0.00    +0.031 C 
ATOM     30  C   UNL     1     -35.516  23.191   4.407  0.00  0.00    +0.141 C 
BRANCH  26  31
ATOM     31  O   UNL     1     -36.521  26.532   5.487  0.00  0.00    -0.505 OA
ATOM     32  H   UNL     1     -36.976  26.328   6.281  0.00  0.00    +0.292 HD
ENDBRANCH  26  31
BRANCH  30  33
ATOM     33  O   UNL     1     -35.446  21.928   4.911  0.00  0.00    -0.471 OA
ATOM     34  C   UNL     1     -35.254  21.801   6.319  0.00  0.00    +0.252 C 
ENDBRANCH  30  33
ENDBRANCH  23  24
ENDBRANCH  21  23
ENDBRANCH   6  21
TORSDOF 8
ENDMDL
MODEL 9
REMARK VINA RESULT:      -6.4      2.634      7.332
REMARK  Name = 21126389
REMARK  8 active torsions:
REMARK  status: ('A' for Active; 'I' for Inactive)
REMARK    1  A    between atoms: C_3  and  O_15
REMARK    2  A    between atoms: C_4  and  O_17
REMARK    3  A    between atoms: C_6  and  O_21
REMARK    4  A    between atoms: C_10  and  C_20
REMARK    5  A    between atoms: O_21  and  C_23
REMARK    6  A    between atoms: C_23  and  C_24
REMARK    7  A    between atoms: C_26  and  O_31
REMARK    8  A    between atoms: C_30  and  O_33
REMARK                            x       y       z     vdW  Elec       q    Type
REMARK                         _______ _______ _______ _____ _____    ______ ____
ROOT
ATOM      1  C   UNL     1     -36.068  21.422   2.149  0.00  0.00    +0.036 C 
ATOM      2  C   UNL     1     -37.333  20.731   1.641  0.00  0.00    +0.031 C 
ATOM      3  C   UNL     1     -36.287  22.573   3.172  0.00  0.00    +0.146 C 
ATOM      4  C   UNL     1     -38.509  21.691   1.395  0.00  0.00    +0.107 C 
ATOM      5  C   UNL     1     -35.246  22.428   1.292  0.00  0.00    +0.049 C 
ATOM      6  C   UNL     1     -35.000  23.222   2.591  0.00  0.00    +0.197 C 
ATOM      7  C   UNL     1     -37.064  20.006   0.309  0.00  0.00    +0.003 C 
ATOM      8  C   UNL     1     -38.015  20.612  -0.746  0.00  0.00    +0.003 C 
ATOM      9  C   UNL     1     -38.503  21.934  -0.119  0.00  0.00    +0.031 C 
ATOM     10  C   UNL     1     -37.524  23.374   2.998  0.00  0.00    +0.045 C 
ATOM     11  C   UNL     1     -35.110  20.348   2.682  0.00  0.00    +0.003 C 
ATOM     12  C   UNL     1     -38.510  22.970   2.187  0.00  0.00    +0.001 C 
ATOM     13  C   UNL     1     -37.278  20.882  -2.064  0.00  0.00    +0.000 C 
ATOM     14  C   UNL     1     -39.184  19.654  -1.034  0.00  0.00    +0.000 C 
ENDROOT
BRANCH   3  15
ATOM     15  O   UNL     1     -36.138  22.154   4.553  0.00  0.00    -0.379 OA
ATOM     16  H   UNL     1     -36.876  21.576   4.797  0.00  0.00    +0.211 HD
ENDBRANCH   3  15
BRANCH   4  17
ATOM     17  O   UNL     1     -39.708  20.988   1.751  0.00  0.00    -0.383 OA
ATOM     18  H   UNL     1     -40.094  20.585   0.958  0.00  0.00    +0.211 HD
ENDBRANCH   4  17
BRANCH  10  20
ATOM     19  O   UNL     1     -37.144  24.873   4.781  0.00  0.00    -0.283 OA
ATOM     20  C   UNL     1     -37.704  24.637   3.720  0.00  0.00    +0.232 C 
ENDBRANCH  10  20
BRANCH   6  21
ATOM     21  O   UNL     1     -34.970  24.653   2.448  0.00  0.00    -0.446 OA
BRANCH  21  23
ATOM     22  O   UNL     1     -33.450  24.841   4.167  0.00  0.00    -0.245 OA
ATOM     23  C   UNL     1     -34.055  25.305   3.214  0.00  0.00    +0.344 C 
BRANCH  23  24
ATOM     24  C   UNL     1     -33.875  26.698   2.732  0.00  0.00    +0.105 C 
ATOM     25  C   UNL     1     -32.880  26.996   1.801  0.00  0.00    -0.010 C 
ATOM     26  C   UNL     1     -34.701  27.712   3.218  0.00  0.00    +0.143 C 
ATOM     27  C   UNL     1     -32.711  28.306   1.354  0.00  0.00    +0.033 C 
ATOM     28  C   UNL     1     -34.532  29.023   2.771  0.00  0.00    +0.074 C 
ATOM     29  C   UNL     1     -31.979  25.931   1.265  0.00  0.00    +0.031 C 
ATOM     30  C   UNL     1     -33.538  29.320   1.840  0.00  0.00    +0.141 C 
BRANCH  26  31
ATOM     31  O   UNL     1     -35.679  27.444   4.127  0.00  0.00    -0.505 OA
ATOM     32  H   UNL     1     -35.478  26.958   4.903  0.00  0.00    +0.292 HD
ENDBRANCH  26  31
BRANCH  30  33
ATOM     33  O   UNL     1     -33.374  30.599   1.405  0.00  0.00    -0.471 OA
ATOM     34  C   UNL     1     -33.319  31.620   2.400  0.00  0.00    +0.252 C 
ENDBRANCH  30  33
ENDBRANCH  23  24
ENDBRANCH  21  23
ENDBRANCH   6  21
TORSDOF 8
ENDMDL
