MODEL 1
REMARK VINA RESULT:      -6.8      0.000      0.000
REMARK  Name = 196363
REMARK  2 active torsions:
REMARK  status: ('A' for Active; 'I' for Inactive)
REMARK    1  A    between atoms: C_9  and  O_13
REMARK    2  A    between atoms: O_13  and  C_18
REMARK                            x       y       z     vdW  Elec       q    Type
REMARK                         _______ _______ _______ _____ _____    ______ ____
ROOT
ATOM      1  O   UNL     1     -37.308  23.630   3.978  0.00  0.00    -0.446 OA
ATOM      2  O   UNL     1     -39.088  24.814   3.133  0.00  0.00    -0.245 OA
ATOM      3  C   UNL     1     -35.875  23.792   4.002  0.00  0.00    +0.186 C 
ATOM      4  C   UNL     1     -35.418  23.884   5.466  0.00  0.00    +0.048 C 
ATOM      5  C   UNL     1     -35.234  22.598   3.279  0.00  0.00    +0.048 C 
ATOM      6  C   UNL     1     -35.619  22.565   6.214  0.00  0.00    +0.004 C 
ATOM      7  C   UNL     1     -35.438  21.289   4.043  0.00  0.00    +0.004 C 
ATOM      8  C   UNL     1     -34.956  21.398   5.487  0.00  0.00    +0.000 C 
ATOM      9  C   UNL     1     -35.693  25.070   3.267  0.00  0.00    +0.166 C 
ATOM     10  C   UNL     1     -36.845  25.601   2.858  0.00  0.00    +0.087 C 
ATOM     11  C   UNL     1     -37.890  24.674   3.316  0.00  0.00    +0.340 C 
ATOM     12  C   UNL     1     -37.147  26.840   2.106  0.00  0.00    +0.041 C 
ENDROOT
BRANCH   9  13
ATOM     13  O   UNL     1     -34.433  25.565   3.082  0.00  0.00    -0.411 OA
BRANCH  13  18
ATOM     14  S   UNL     1     -30.646  28.569   3.567  0.00  0.00    -0.078 S 
ATOM     15  O   UNL     1     -34.808  27.095   4.779  0.00  0.00    -0.226 OA
ATOM     16  N   UNL     1     -32.844  27.114   3.538  0.00  0.00    -0.230 N 
ATOM     17  N   UNL     1     -32.731  28.841   5.125  0.00  0.00    -0.250 NA
ATOM     18  C   UNL     1     -34.101  26.637   3.886  0.00  0.00    +0.411 C 
ATOM     19  C   UNL     1     -32.228  28.162   4.150  0.00  0.00    +0.160 C 
ATOM     20  C   UNL     1     -30.377  29.557   5.051  0.00  0.00    +0.091 C 
ATOM     21  C   UNL     1     -31.792  29.931   5.470  0.00  0.00    +0.139 C 
ATOM     22  H   UNL     1     -32.368  26.664   2.803  0.00  0.00    +0.160 HD
ENDBRANCH  13  18
ENDBRANCH   9  13
TORSDOF 2
ENDMDL
MODEL 2
REMARK VINA RESULT:      -6.2      4.311      6.528
REMARK  Name = 196363
REMARK  2 active torsions:
REMARK  status: ('A' for Active; 'I' for Inactive)
REMARK    1  A    between atoms: C_9  and  O_13
REMARK    2  A    between atoms: O_13  and  C_18
REMARK                            x       y       z     vdW  Elec       q    Type
REMARK                         _______ _______ _______ _____ _____    ______ ____
ROOT
ATOM      1  O   UNL     1     -34.697  24.182   3.310  0.00  0.00    -0.446 OA
ATOM      2  O   UNL     1     -34.031  25.835   1.859  0.00  0.00    -0.245 OA
ATOM      3  C   UNL     1     -35.911  23.850   4.015  0.00  0.00    +0.186 C 
ATOM      4  C   UNL     1     -36.381  22.462   3.555  0.00  0.00    +0.048 C 
ATOM      5  C   UNL     1     -35.627  23.885   5.524  0.00  0.00    +0.048 C 
ATOM      6  C   UNL     1     -35.422  21.356   4.000  0.00  0.00    +0.004 C 
ATOM      7  C   UNL     1     -34.674  22.769   5.953  0.00  0.00    +0.004 C 
ATOM      8  C   UNL     1     -35.172  21.398   5.505  0.00  0.00    +0.000 C 
ATOM      9  C   UNL     1     -36.829  24.935   3.582  0.00  0.00    +0.166 C 
ATOM     10  C   UNL     1     -36.255  25.795   2.740  0.00  0.00    +0.087 C 
ATOM     11  C   UNL     1     -34.878  25.311   2.562  0.00  0.00    +0.340 C 
ATOM     12  C   UNL     1     -36.772  27.004   2.062  0.00  0.00    +0.041 C 
ENDROOT
BRANCH   9  13
ATOM     13  O   UNL     1     -38.110  24.959   4.054  0.00  0.00    -0.411 OA
BRANCH  13  18
ATOM     14  S   UNL     1     -42.400  27.032   3.101  0.00  0.00    -0.078 S 
ATOM     15  O   UNL     1     -39.066  24.039   2.157  0.00  0.00    -0.226 OA
ATOM     16  N   UNL     1     -40.118  25.735   3.345  0.00  0.00    -0.230 N 
ATOM     17  N   UNL     1     -41.486  25.147   1.530  0.00  0.00    -0.250 NA
ATOM     18  C   UNL     1     -39.093  24.834   3.092  0.00  0.00    +0.411 C 
ATOM     19  C   UNL     1     -41.237  25.854   2.580  0.00  0.00    +0.160 C 
ATOM     20  C   UNL     1     -43.622  26.272   2.014  0.00  0.00    +0.091 C 
ATOM     21  C   UNL     1     -42.762  25.616   0.943  0.00  0.00    +0.139 C 
ATOM     22  H   UNL     1     -40.029  26.325   4.128  0.00  0.00    +0.160 HD
ENDBRANCH  13  18
ENDBRANCH   9  13
TORSDOF 2
ENDMDL
MODEL 3
REMARK VINA RESULT:      -6.0      2.149      3.834
REMARK  Name = 196363
REMARK  2 active torsions:
REMARK  status: ('A' for Active; 'I' for Inactive)
REMARK    1  A    between atoms: C_9  and  O_13
REMARK    2  A    between atoms: O_13  and  C_18
REMARK                            x       y       z     vdW  Elec       q    Type
REMARK                         _______ _______ _______ _____ _____    ______ ____
ROOT
ATOM      1  O   UNL     1     -36.564  21.984   2.404  0.00  0.00    -0.446 OA
ATOM      2  O   UNL     1     -35.204  20.630   3.669  0.00  0.00    -0.245 OA
ATOM      3  C   UNL     1     -37.167  23.285   2.563  0.00  0.00    +0.186 C 
ATOM      4  C   UNL     1     -36.643  24.206   1.450  0.00  0.00    +0.048 C 
ATOM      5  C   UNL     1     -38.693  23.130   2.501  0.00  0.00    +0.048 C 
ATOM      6  C   UNL     1     -37.136  23.775   0.069  0.00  0.00    +0.004 C 
ATOM      7  C   UNL     1     -39.170  22.705   1.111  0.00  0.00    +0.004 C 
ATOM      8  C   UNL     1     -38.656  23.647   0.027  0.00  0.00    +0.000 C 
ATOM      9  C   UNL     1     -36.688  23.688   3.910  0.00  0.00    +0.166 C 
ATOM     10  C   UNL     1     -35.911  22.767   4.481  0.00  0.00    +0.087 C 
ATOM     11  C   UNL     1     -35.829  21.665   3.510  0.00  0.00    +0.340 C 
ATOM     12  C   UNL     1     -35.222  22.734   5.790  0.00  0.00    +0.041 C 
ENDROOT
BRANCH   9  13
ATOM     13  O   UNL     1     -37.061  24.898   4.421  0.00  0.00    -0.411 OA
BRANCH  13  18
ATOM     14  S   UNL     1     -33.312  27.076   2.228  0.00  0.00    -0.078 S 
ATOM     15  O   UNL     1     -35.805  26.108   5.945  0.00  0.00    -0.226 OA
ATOM     16  N   UNL     1     -35.246  26.041   3.691  0.00  0.00    -0.230 N 
ATOM     17  N   UNL     1     -33.671  27.382   4.803  0.00  0.00    -0.250 NA
ATOM     18  C   UNL     1     -36.019  25.722   4.799  0.00  0.00    +0.411 C 
ATOM     19  C   UNL     1     -34.140  26.833   3.733  0.00  0.00    +0.160 C 
ATOM     20  C   UNL     1     -31.885  27.696   3.139  0.00  0.00    +0.091 C 
ATOM     21  C   UNL     1     -32.504  28.212   4.431  0.00  0.00    +0.139 C 
ATOM     22  H   UNL     1     -35.516  25.672   2.819  0.00  0.00    +0.160 HD
ENDBRANCH  13  18
ENDBRANCH   9  13
TORSDOF 2
ENDMDL
MODEL 4
REMARK VINA RESULT:      -5.9      4.453      6.752
REMARK  Name = 196363
REMARK  2 active torsions:
REMARK  status: ('A' for Active; 'I' for Inactive)
REMARK    1  A    between atoms: C_9  and  O_13
REMARK    2  A    between atoms: O_13  and  C_18
REMARK                            x       y       z     vdW  Elec       q    Type
REMARK                         _______ _______ _______ _____ _____    ______ ____
ROOT
ATOM      1  O   UNL     1     -34.958  24.290   3.217  0.00  0.00    -0.446 OA
ATOM      2  O   UNL     1     -34.462  25.980   1.741  0.00  0.00    -0.245 OA
ATOM      3  C   UNL     1     -36.141  23.823   3.897  0.00  0.00    +0.186 C 
ATOM      4  C   UNL     1     -36.417  22.375   3.462  0.00  0.00    +0.048 C 
ATOM      5  C   UNL     1     -35.911  23.928   5.412  0.00  0.00    +0.048 C 
ATOM      6  C   UNL     1     -35.340  21.411   3.963  0.00  0.00    +0.004 C 
ATOM      7  C   UNL     1     -34.837  22.953   5.897  0.00  0.00    +0.004 C 
ATOM      8  C   UNL     1     -35.144  21.520   5.472  0.00  0.00    +0.000 C 
ATOM      9  C   UNL     1     -37.176  24.771   3.410  0.00  0.00    +0.166 C 
ATOM     10  C   UNL     1     -36.690  25.677   2.561  0.00  0.00    +0.087 C 
ATOM     11  C   UNL     1     -35.257  25.369   2.434  0.00  0.00    +0.340 C 
ATOM     12  C   UNL     1     -37.335  26.794   1.837  0.00  0.00    +0.041 C 
ENDROOT
BRANCH   9  13
ATOM     13  O   UNL     1     -38.464  24.642   3.845  0.00  0.00    -0.411 OA
BRANCH  13  18
ATOM     14  S   UNL     1     -39.604  21.328   0.482  0.00  0.00    -0.078 S 
ATOM     15  O   UNL     1     -40.268  25.344   2.576  0.00  0.00    -0.226 OA
ATOM     16  N   UNL     1     -39.241  23.296   2.198  0.00  0.00    -0.230 N 
ATOM     17  N   UNL     1     -40.994  23.539   0.655  0.00  0.00    -0.250 NA
ATOM     18  C   UNL     1     -39.410  24.510   2.849  0.00  0.00    +0.411 C 
ATOM     19  C   UNL     1     -40.014  22.870   1.161  0.00  0.00    +0.160 C 
ATOM     20  C   UNL     1     -40.616  21.719  -0.958  0.00  0.00    +0.091 C 
ATOM     21  C   UNL     1     -41.622  22.718  -0.405  0.00  0.00    +0.139 C 
ATOM     22  H   UNL     1     -38.516  22.705   2.505  0.00  0.00    +0.160 HD
ENDBRANCH  13  18
ENDBRANCH   9  13
TORSDOF 2
ENDMDL
MODEL 5
REMARK VINA RESULT:      -5.9      4.240      6.483
REMARK  Name = 196363
REMARK  2 active torsions:
REMARK  status: ('A' for Active; 'I' for Inactive)
REMARK    1  A    between atoms: C_9  and  O_13
REMARK    2  A    between atoms: O_13  and  C_18
REMARK                            x       y       z     vdW  Elec       q    Type
REMARK                         _______ _______ _______ _____ _____    ______ ____
ROOT
ATOM      1  O   UNL     1     -34.896  23.432   3.073  0.00  0.00    -0.446 OA
ATOM      2  O   UNL     1     -34.967  21.579   1.715  0.00  0.00    -0.245 OA
ATOM      3  C   UNL     1     -35.868  24.269   3.734  0.00  0.00    +0.186 C 
ATOM      4  C   UNL     1     -35.626  24.197   5.250  0.00  0.00    +0.048 C 
ATOM      5  C   UNL     1     -35.723  25.703   3.203  0.00  0.00    +0.048 C 
ATOM      6  C   UNL     1     -34.299  24.843   5.651  0.00  0.00    +0.004 C 
ATOM      7  C   UNL     1     -34.395  26.337   3.618  0.00  0.00    +0.004 C 
ATOM      8  C   UNL     1     -34.188  26.272   5.128  0.00  0.00    +0.000 C 
ATOM      9  C   UNL     1     -37.150  23.637   3.330  0.00  0.00    +0.166 C 
ATOM     10  C   UNL     1     -36.979  22.576   2.542  0.00  0.00    +0.087 C 
ATOM     11  C   UNL     1     -35.524  22.440   2.374  0.00  0.00    +0.340 C 
ATOM     12  C   UNL     1     -37.947  21.652   1.910  0.00  0.00    +0.041 C 
ENDROOT
BRANCH   9  13
ATOM     13  O   UNL     1     -38.329  24.165   3.775  0.00  0.00    -0.411 OA
BRANCH  13  18
ATOM     14  S   UNL     1     -42.228  27.062   3.817  0.00  0.00    -0.078 S 
ATOM     15  O   UNL     1     -38.680  25.103   1.688  0.00  0.00    -0.226 OA
ATOM     16  N   UNL     1     -40.073  25.580   3.484  0.00  0.00    -0.230 N 
ATOM     17  N   UNL     1     -40.853  26.762   1.610  0.00  0.00    -0.250 NA
ATOM     18  C   UNL     1     -38.993  24.964   2.867  0.00  0.00    +0.411 C 
ATOM     19  C   UNL     1     -40.932  26.428   2.854  0.00  0.00    +0.160 C 
ATOM     20  C   UNL     1     -43.069  27.576   2.307  0.00  0.00    +0.091 C 
ATOM     21  C   UNL     1     -41.922  27.743   1.320  0.00  0.00    +0.139 C 
ATOM     22  H   UNL     1     -40.227  25.392   4.438  0.00  0.00    +0.160 HD
ENDBRANCH  13  18
ENDBRANCH   9  13
TORSDOF 2
ENDMDL
MODEL 6
REMARK VINA RESULT:      -5.9      5.022      7.334
REMARK  Name = 196363
REMARK  2 active torsions:
REMARK  status: ('A' for Active; 'I' for Inactive)
REMARK    1  A    between atoms: C_9  and  O_13
REMARK    2  A    between atoms: O_13  and  C_18
REMARK                            x       y       z     vdW  Elec       q    Type
REMARK                         _______ _______ _______ _____ _____    ______ ____
ROOT
ATOM      1  O   UNL     1     -37.440  22.911   3.403  0.00  0.00    -0.446 OA
ATOM      2  O   UNL     1     -39.310  22.205   2.269  0.00  0.00    -0.245 OA
ATOM      3  C   UNL     1     -36.013  22.798   3.220  0.00  0.00    +0.186 C 
ATOM      4  C   UNL     1     -35.424  24.210   3.081  0.00  0.00    +0.048 C 
ATOM      5  C   UNL     1     -35.421  22.050   4.424  0.00  0.00    +0.048 C 
ATOM      6  C   UNL     1     -35.533  25.007   4.382  0.00  0.00    +0.004 C 
ATOM      7  C   UNL     1     -35.531  22.863   5.714  0.00  0.00    +0.004 C 
ATOM      8  C   UNL     1     -34.921  24.253   5.558  0.00  0.00    +0.000 C 
ATOM      9  C   UNL     1     -35.922  22.016   1.960  0.00  0.00    +0.166 C 
ATOM     10  C   UNL     1     -37.116  21.702   1.457  0.00  0.00    +0.087 C 
ATOM     11  C   UNL     1     -38.099  22.279   2.387  0.00  0.00    +0.340 C 
ATOM     12  C   UNL     1     -37.507  20.949   0.245  0.00  0.00    +0.041 C 
ENDROOT
BRANCH   9  13
ATOM     13  O   UNL     1     -34.694  21.702   1.452  0.00  0.00    -0.411 OA
BRANCH  13  18
ATOM     14  S   UNL     1     -33.275  18.434  -1.851  0.00  0.00    -0.078 S 
ATOM     15  O   UNL     1     -34.443  19.613   2.417  0.00  0.00    -0.226 OA
ATOM     16  N   UNL     1     -34.023  19.966   0.160  0.00  0.00    -0.230 N 
ATOM     17  N   UNL     1     -33.636  17.700   0.636  0.00  0.00    -0.250 NA
ATOM     18  C   UNL     1     -34.390  20.356   1.441  0.00  0.00    +0.411 C 
ATOM     19  C   UNL     1     -33.671  18.697  -0.182  0.00  0.00    +0.160 C 
ATOM     20  C   UNL     1     -33.433  16.657  -1.584  0.00  0.00    +0.091 C 
ATOM     21  C   UNL     1     -33.147  16.511  -0.096  0.00  0.00    +0.139 C 
ATOM     22  H   UNL     1     -34.018  20.653  -0.546  0.00  0.00    +0.160 HD
ENDBRANCH  13  18
ENDBRANCH   9  13
TORSDOF 2
ENDMDL
MODEL 7
REMARK VINA RESULT:      -5.8      2.302      3.566
REMARK  Name = 196363
REMARK  2 active torsions:
REMARK  status: ('A' for Active; 'I' for Inactive)
REMARK    1  A    between atoms: C_9  and  O_13
REMARK    2  A    between atoms: O_13  and  C_18
REMARK                            x       y       z     vdW  Elec       q    Type
REMARK                         _______ _______ _______ _____ _____    ______ ____
ROOT
ATOM      1  O   UNL     1     -37.001  23.266   4.028  0.00  0.00    -0.446 OA
ATOM      2  O   UNL     1     -35.814  22.973   5.974  0.00  0.00    -0.245 OA
ATOM      3  C   UNL     1     -37.261  24.364   3.130  0.00  0.00    +0.186 C 
ATOM      4  C   UNL     1     -36.711  24.001   1.741  0.00  0.00    +0.048 C 
ATOM      5  C   UNL     1     -38.776  24.619   3.093  0.00  0.00    +0.048 C 
ATOM      6  C   UNL     1     -37.488  22.851   1.099  0.00  0.00    +0.004 C 
ATOM      7  C   UNL     1     -39.536  23.464   2.441  0.00  0.00    +0.004 C 
ATOM      8  C   UNL     1     -38.986  23.137   1.056  0.00  0.00    +0.000 C 
ATOM      9  C   UNL     1     -36.510  25.474   3.769  0.00  0.00    +0.166 C 
ATOM     10  C   UNL     1     -35.888  25.103   4.888  0.00  0.00    +0.087 C 
ATOM     11  C   UNL     1     -36.203  23.677   5.058  0.00  0.00    +0.340 C 
ATOM     12  C   UNL     1     -35.039  25.854   5.839  0.00  0.00    +0.041 C 
ENDROOT
BRANCH   9  13
ATOM     13  O   UNL     1     -36.518  26.711   3.190  0.00  0.00    -0.411 OA
BRANCH  13  18
ATOM     14  S   UNL     1     -34.294  31.030   3.226  0.00  0.00    -0.078 S 
ATOM     15  O   UNL     1     -34.364  26.535   2.361  0.00  0.00    -0.226 OA
ATOM     16  N   UNL     1     -35.220  28.566   3.095  0.00  0.00    -0.230 N 
ATOM     17  N   UNL     1     -33.021  28.917   2.348  0.00  0.00    -0.250 NA
ATOM     18  C   UNL     1     -35.277  27.203   2.837  0.00  0.00    +0.411 C 
ATOM     19  C   UNL     1     -34.131  29.345   2.850  0.00  0.00    +0.160 C 
ATOM     20  C   UNL     1     -32.820  31.368   2.243  0.00  0.00    +0.091 C 
ATOM     21  C   UNL     1     -32.067  30.047   2.296  0.00  0.00    +0.139 C 
ATOM     22  H   UNL     1     -36.018  28.996   3.479  0.00  0.00    +0.160 HD
ENDBRANCH  13  18
ENDBRANCH   9  13
TORSDOF 2
ENDMDL
MODEL 8
REMARK VINA RESULT:      -5.7      4.087      6.501
REMARK  Name = 196363
REMARK  2 active torsions:
REMARK  status: ('A' for Active; 'I' for Inactive)
REMARK    1  A    between atoms: C_9  and  O_13
REMARK    2  A    between atoms: O_13  and  C_18
REMARK                            x       y       z     vdW  Elec       q    Type
REMARK                         _______ _______ _______ _____ _____    ______ ____
ROOT
ATOM      1  O   UNL     1     -36.690  26.303   2.875  0.00  0.00    -0.446 OA
ATOM      2  O   UNL     1     -38.246  27.311   1.517  0.00  0.00    -0.245 OA
ATOM      3  C   UNL     1     -36.544  25.013   3.503  0.00  0.00    +0.186 C 
ATOM      4  C   UNL     1     -35.262  24.352   2.974  0.00  0.00    +0.048 C 
ATOM      5  C   UNL     1     -36.495  25.211   5.026  0.00  0.00    +0.048 C 
ATOM      6  C   UNL     1     -34.004  25.092   3.431  0.00  0.00    +0.004 C 
ATOM      7  C   UNL     1     -35.228  25.945   5.467  0.00  0.00    +0.004 C 
ATOM      8  C   UNL     1     -33.969  25.258   4.947  0.00  0.00    +0.000 C 
ATOM      9  C   UNL     1     -37.774  24.309   3.059  0.00  0.00    +0.166 C 
ATOM     10  C   UNL     1     -38.549  25.062   2.278  0.00  0.00    +0.087 C 
ATOM     11  C   UNL     1     -37.851  26.351   2.157  0.00  0.00    +0.340 C 
ATOM     12  C   UNL     1     -39.842  24.788   1.614  0.00  0.00    +0.041 C 
ENDROOT
BRANCH   9  13
ATOM     13  O   UNL     1     -37.996  23.023   3.463  0.00  0.00    -0.411 OA
BRANCH  13  18
ATOM     14  S   UNL     1     -34.621  19.969   1.766  0.00  0.00    -0.078 S 
ATOM     15  O   UNL     1     -38.823  21.786   1.690  0.00  0.00    -0.226 OA
ATOM     16  N   UNL     1     -36.653  21.495   2.466  0.00  0.00    -0.230 N 
ATOM     17  N   UNL     1     -36.996  20.026   0.667  0.00  0.00    -0.250 NA
ATOM     18  C   UNL     1     -37.915  22.073   2.466  0.00  0.00    +0.411 C 
ATOM     19  C   UNL     1     -36.255  20.526   1.597  0.00  0.00    +0.160 C 
ATOM     20  C   UNL     1     -34.737  19.207   0.135  0.00  0.00    +0.091 C 
ATOM     21  C   UNL     1     -36.231  18.961  -0.019  0.00  0.00    +0.139 C 
ATOM     22  H   UNL     1     -36.005  21.807   3.138  0.00  0.00    +0.160 HD
ENDBRANCH  13  18
ENDBRANCH   9  13
TORSDOF 2
ENDMDL
MODEL 9
REMARK VINA RESULT:      -5.7      4.506      6.736
REMARK  Name = 196363
REMARK  2 active torsions:
REMARK  status: ('A' for Active; 'I' for Inactive)
REMARK    1  A    between atoms: C_9  and  O_13
REMARK    2  A    between atoms: O_13  and  C_18
REMARK                            x       y       z     vdW  Elec       q    Type
REMARK                         _______ _______ _______ _____ _____    ______ ____
ROOT
ATOM      1  O   UNL     1     -37.195  24.279   3.286  0.00  0.00    -0.446 OA
ATOM      2  O   UNL     1     -39.335  24.389   2.455  0.00  0.00    -0.245 OA
ATOM      3  C   UNL     1     -36.188  23.255   3.420  0.00  0.00    +0.186 C 
ATOM      4  C   UNL     1     -34.948  23.679   2.619  0.00  0.00    +0.048 C 
ATOM      5  C   UNL     1     -35.868  23.074   4.912  0.00  0.00    +0.048 C 
ATOM      6  C   UNL     1     -34.264  24.904   3.228  0.00  0.00    +0.004 C 
ATOM      7  C   UNL     1     -35.178  24.304   5.503  0.00  0.00    +0.004 C 
ATOM      8  C   UNL     1     -33.938  24.693   4.703  0.00  0.00    +0.000 C 
ATOM      9  C   UNL     1     -36.868  22.071   2.834  0.00  0.00    +0.166 C 
ATOM     10  C   UNL     1     -38.102  22.339   2.409  0.00  0.00    +0.087 C 
ATOM     11  C   UNL     1     -38.317  23.765   2.699  0.00  0.00    +0.340 C 
ATOM     12  C   UNL     1     -39.131  21.489   1.771  0.00  0.00    +0.041 C 
ENDROOT
BRANCH   9  13
ATOM     13  O   UNL     1     -36.209  20.875   2.783  0.00  0.00    -0.411 OA
BRANCH  13  18
ATOM     14  S   UNL     1     -32.521  18.092   1.282  0.00  0.00    -0.078 S 
ATOM     15  O   UNL     1     -35.883  21.100   0.502  0.00  0.00    -0.226 OA
ATOM     16  N   UNL     1     -34.561  19.684   1.784  0.00  0.00    -0.230 N 
ATOM     17  N   UNL     1     -33.829  19.562  -0.444  0.00  0.00    -0.250 NA
ATOM     18  C   UNL     1     -35.584  20.601   1.583  0.00  0.00    +0.411 C 
ATOM     19  C   UNL     1     -33.751  19.215   0.796  0.00  0.00    +0.160 C 
ATOM     20  C   UNL     1     -31.688  18.356  -0.296  0.00  0.00    +0.091 C 
ATOM     21  C   UNL     1     -32.825  18.791  -1.210  0.00  0.00    +0.139 C 
ATOM     22  H   UNL     1     -34.413  19.353   2.699  0.00  0.00    +0.160 HD
ENDBRANCH  13  18
ENDBRANCH   9  13
TORSDOF 2
ENDMDL
