MODEL 1
REMARK VINA RESULT:      -7.0      0.000      0.000
REMARK  Name = 190984
REMARK  7 active torsions:
REMARK  status: ('A' for Active; 'I' for Inactive)
REMARK    1  A    between atoms: C_1  and  C_6
REMARK    2  A    between atoms: C_1  and  N_17
REMARK    3  A    between atoms: C_1  and  C_27
REMARK    4  A    between atoms: C_5  and  C_9
REMARK    5  A    between atoms: N_8  and  C_14
REMARK    6  A    between atoms: C_18  and  C_22
REMARK    7  A    between atoms: C_27  and  C_30
REMARK                            x       y       z     vdW  Elec       q    Type
REMARK                         _______ _______ _______ _____ _____    ______ ____
ROOT
ATOM      1  C   UNL     1     -36.687  24.728   4.116  0.00  0.00    +0.151 C 
ENDROOT
BRANCH   1   6
ATOM      2  O   UNL     1     -35.285  20.564   3.841  0.00  0.00    -0.277 OA
ATOM      3  O   UNL     1     -36.015  22.786   5.401  0.00  0.00    -0.273 OA
ATOM      4  N   UNL     1     -35.949  22.670   3.075  0.00  0.00    -0.256 N 
ATOM      5  C   UNL     1     -35.524  21.351   2.929  0.00  0.00    +0.209 C 
ATOM      6  C   UNL     1     -36.168  23.306   4.299  0.00  0.00    +0.246 C 
ATOM      7  H   UNL     1     -36.106  23.192   2.254  0.00  0.00    +0.157 HD
BRANCH   5   9
ATOM      8  N   UNL     1     -35.121  19.523   1.454  0.00  0.00    +0.394 N 
ATOM      9  C   UNL     1     -35.366  20.969   1.493  0.00  0.00    +0.021 C 
ATOM     10  C   UNL     1     -36.662  21.189   0.712  0.00  0.00    -0.014 C 
ATOM     11  C   UNL     1     -37.093  19.797   0.274  0.00  0.00    -0.024 C 
ATOM     12  C   UNL     1     -35.792  19.019   0.256  0.00  0.00    -0.077 C 
ATOM     13  H   UNL     1     -35.497  19.084   2.295  0.00  0.00    -0.079 HD
BRANCH   8  14
ATOM     14  C   UNL     1     -33.706  19.181   1.478  0.00  0.00    -0.077 C 
ATOM     15  C   UNL     1     -32.907  20.058   0.537  0.00  0.00    -0.025 C 
ENDBRANCH   8  14
ENDBRANCH   5   9
ENDBRANCH   1   6
BRANCH   1  17
ATOM     16  O   UNL     1     -38.264  24.585   1.683  0.00  0.00    -0.273 OA
ATOM     17  N   UNL     1     -38.121  24.654   4.006  0.00  0.00    -0.297 N 
ATOM     18  C   UNL     1     -38.790  24.589   2.792  0.00  0.00    +0.241 C 
ATOM     19  H   UNL     1     -38.655  24.650   4.833  0.00  0.00    +0.150 HD
BRANCH  18  22
ATOM     20  O   UNL     1     -41.540  27.617   4.027  0.00  0.00    -0.275 OA
ATOM     21  N   UNL     1     -40.638  25.457   3.961  0.00  0.00    -0.298 N 
ATOM     22  C   UNL     1     -40.272  24.494   2.962  0.00  0.00    +0.149 C 
ATOM     23  C   UNL     1     -41.035  24.944   1.729  0.00  0.00    +0.039 C 
ATOM     24  C   UNL     1     -41.208  26.450   1.922  0.00  0.00    +0.087 C 
ATOM     25  C   UNL     1     -41.181  26.619   3.421  0.00  0.00    +0.223 C 
ATOM     26  H   UNL     1     -40.516  25.312   4.927  0.00  0.00    +0.150 HD
ENDBRANCH  18  22
ENDBRANCH   1  17
BRANCH   1  27
ATOM     27  C   UNL     1     -36.247  25.615   5.284  0.00  0.00    +0.059 C 
BRANCH  27  30
ATOM     28  N   UNL     1     -35.026  26.651   3.413  0.00  0.00    -0.246 NA
ATOM     29  N   UNL     1     -33.027  26.004   4.312  0.00  0.00    -0.225 NA
ATOM     30  C   UNL     1     -35.181  26.626   4.881  0.00  0.00    +0.148 C 
ATOM     31  C   UNL     1     -33.817  26.191   5.307  0.00  0.00    +0.098 C 
ATOM     32  C   UNL     1     -33.794  26.292   3.214  0.00  0.00    +0.194 C 
ENDBRANCH  27  30
ENDBRANCH   1  27
TORSDOF 7
ENDMDL
MODEL 2
REMARK VINA RESULT:      -6.7      1.365      2.075
REMARK  Name = 190984
REMARK  7 active torsions:
REMARK  status: ('A' for Active; 'I' for Inactive)
REMARK    1  A    between atoms: C_1  and  C_6
REMARK    2  A    between atoms: C_1  and  N_17
REMARK    3  A    between atoms: C_1  and  C_27
REMARK    4  A    between atoms: C_5  and  C_9
REMARK    5  A    between atoms: N_8  and  C_14
REMARK    6  A    between atoms: C_18  and  C_22
REMARK    7  A    between atoms: C_27  and  C_30
REMARK                            x       y       z     vdW  Elec       q    Type
REMARK                         _______ _______ _______ _____ _____    ______ ____
ROOT
ATOM      1  C   UNL     1     -36.071  23.879   4.094  0.00  0.00    +0.151 C 
ENDROOT
BRANCH   1   6
ATOM      2  O   UNL     1     -34.785  19.908   2.694  0.00  0.00    -0.277 OA
ATOM      3  O   UNL     1     -35.275  21.703   4.803  0.00  0.00    -0.273 OA
ATOM      4  N   UNL     1     -35.505  22.125   2.523  0.00  0.00    -0.256 N 
ATOM      5  C   UNL     1     -35.124  20.881   2.026  0.00  0.00    +0.209 C 
ATOM      6  C   UNL     1     -35.557  22.461   3.878  0.00  0.00    +0.246 C 
ATOM      7  H   UNL     1     -35.755  22.820   1.871  0.00  0.00    +0.157 HD
BRANCH   5   9
ATOM      8  N   UNL     1     -36.435  21.418   0.110  0.00  0.00    +0.394 N 
ATOM      9  C   UNL     1     -35.154  20.841   0.531  0.00  0.00    +0.021 C 
ATOM     10  C   UNL     1     -34.077  21.743  -0.071  0.00  0.00    -0.014 C 
ATOM     11  C   UNL     1     -34.846  22.825  -0.815  0.00  0.00    -0.024 C 
ATOM     12  C   UNL     1     -36.173  22.157  -1.125  0.00  0.00    -0.077 C 
ATOM     13  H   UNL     1     -36.794  22.038   0.837  0.00  0.00    -0.079 HD
BRANCH   8  14
ATOM     14  C   UNL     1     -37.484  20.422  -0.057  0.00  0.00    -0.077 C 
ATOM     15  C   UNL     1     -38.832  20.957   0.381  0.00  0.00    -0.025 C 
ENDBRANCH   8  14
ENDBRANCH   5   9
ENDBRANCH   1   6
BRANCH   1  17
ATOM     16  O   UNL     1     -37.546  24.059   1.600  0.00  0.00    -0.273 OA
ATOM     17  N   UNL     1     -37.500  23.854   3.919  0.00  0.00    -0.297 N 
ATOM     18  C   UNL     1     -38.119  23.946   2.681  0.00  0.00    +0.241 C 
ATOM     19  H   UNL     1     -38.068  23.766   4.719  0.00  0.00    +0.150 HD
BRANCH  18  22
ATOM     20  O   UNL     1     -40.903  27.044   3.632  0.00  0.00    -0.275 OA
ATOM     21  N   UNL     1     -40.016  24.879   3.713  0.00  0.00    -0.298 N 
ATOM     22  C   UNL     1     -39.608  23.868   2.779  0.00  0.00    +0.149 C 
ATOM     23  C   UNL     1     -40.304  24.263   1.490  0.00  0.00    +0.039 C 
ATOM     24  C   UNL     1     -40.474  25.778   1.604  0.00  0.00    +0.087 C 
ATOM     25  C   UNL     1     -40.521  26.017   3.093  0.00  0.00    +0.223 C 
ATOM     26  H   UNL     1     -39.944  24.778   4.689  0.00  0.00    +0.150 HD
ENDBRANCH  18  22
ENDBRANCH   1  17
BRANCH   1  27
ATOM     27  C   UNL     1     -35.672  24.390   5.481  0.00  0.00    +0.059 C 
BRANCH  27  30
ATOM     28  N   UNL     1     -35.394  26.429   4.129  0.00  0.00    -0.246 NA
ATOM     29  N   UNL     1     -33.357  26.829   5.087  0.00  0.00    -0.225 NA
ATOM     30  C   UNL     1     -35.431  25.893   5.505  0.00  0.00    +0.148 C 
ATOM     31  C   UNL     1     -34.055  26.226   5.981  0.00  0.00    +0.098 C 
ATOM     32  C   UNL     1     -34.199  26.924   4.010  0.00  0.00    +0.194 C 
ENDBRANCH  27  30
ENDBRANCH   1  27
TORSDOF 7
ENDMDL
MODEL 3
REMARK VINA RESULT:      -6.4      3.692      7.289
REMARK  Name = 190984
REMARK  7 active torsions:
REMARK  status: ('A' for Active; 'I' for Inactive)
REMARK    1  A    between atoms: C_1  and  C_6
REMARK    2  A    between atoms: C_1  and  N_17
REMARK    3  A    between atoms: C_1  and  C_27
REMARK    4  A    between atoms: C_5  and  C_9
REMARK    5  A    between atoms: N_8  and  C_14
REMARK    6  A    between atoms: C_18  and  C_22
REMARK    7  A    between atoms: C_27  and  C_30
REMARK                            x       y       z     vdW  Elec       q    Type
REMARK                         _______ _______ _______ _____ _____    ______ ____
ROOT
ATOM      1  C   UNL     1     -34.157  26.469   4.529  0.00  0.00    +0.151 C 
ENDROOT
BRANCH   1   6
ATOM      2  O   UNL     1     -36.879  28.249   1.561  0.00  0.00    -0.277 OA
ATOM      3  O   UNL     1     -34.687  28.493   3.305  0.00  0.00    -0.273 OA
ATOM      4  N   UNL     1     -36.020  26.608   2.987  0.00  0.00    -0.256 N 
ATOM      5  C   UNL     1     -36.898  27.115   2.032  0.00  0.00    +0.209 C 
ATOM      6  C   UNL     1     -34.970  27.326   3.565  0.00  0.00    +0.246 C 
ATOM      7  H   UNL     1     -36.149  25.676   3.277  0.00  0.00    +0.157 HD
BRANCH   5   9
ATOM      8  N   UNL     1     -37.287  24.787   1.700  0.00  0.00    +0.394 N 
ATOM      9  C   UNL     1     -37.923  26.107   1.623  0.00  0.00    +0.021 C 
ATOM     10  C   UNL     1     -39.086  26.062   2.614  0.00  0.00    -0.014 C 
ATOM     11  C   UNL     1     -39.025  24.670   3.224  0.00  0.00    -0.024 C 
ATOM     12  C   UNL     1     -38.316  23.855   2.159  0.00  0.00    -0.077 C 
ATOM     13  H   UNL     1     -36.503  24.817   2.352  0.00  0.00    -0.079 HD
BRANCH   8  14
ATOM     14  C   UNL     1     -36.686  24.368   0.442  0.00  0.00    -0.077 C 
ATOM     15  C   UNL     1     -37.616  24.614  -0.728  0.00  0.00    -0.025 C 
ENDBRANCH   8  14
ENDBRANCH   5   9
ENDBRANCH   1   6
BRANCH   1  17
ATOM     16  O   UNL     1     -31.475  27.577   4.429  0.00  0.00    -0.273 OA
ATOM     17  N   UNL     1     -33.541  27.356   5.482  0.00  0.00    -0.297 N 
ATOM     18  C   UNL     1     -32.246  27.836   5.350  0.00  0.00    +0.241 C 
ATOM     19  H   UNL     1     -34.064  27.636   6.268  0.00  0.00    +0.150 HD
BRANCH  18  22
ATOM     20  O   UNL     1     -28.409  29.483   6.257  0.00  0.00    -0.275 OA
ATOM     21  N   UNL     1     -30.479  28.506   6.751  0.00  0.00    -0.298 N 
ATOM     22  C   UNL     1     -31.863  28.758   6.463  0.00  0.00    +0.149 C 
ATOM     23  C   UNL     1     -31.887  30.218   6.052  0.00  0.00    +0.039 C 
ATOM     24  C   UNL     1     -30.489  30.475   5.489  0.00  0.00    +0.087 C 
ATOM     25  C   UNL     1     -29.630  29.464   6.207  0.00  0.00    +0.223 C 
ATOM     26  H   UNL     1     -30.164  27.737   7.277  0.00  0.00    +0.150 HD
ENDBRANCH  18  22
ENDBRANCH   1  17
BRANCH   1  27
ATOM     27  C   UNL     1     -35.052  25.429   5.208  0.00  0.00    +0.059 C 
BRANCH  27  30
ATOM     28  N   UNL     1     -35.066  23.466   3.722  0.00  0.00    -0.246 NA
ATOM     29  N   UNL     1     -35.882  22.153   5.406  0.00  0.00    -0.225 NA
ATOM     30  C   UNL     1     -34.556  24.005   4.999  0.00  0.00    +0.148 C 
ATOM     31  C   UNL     1     -35.169  23.056   5.977  0.00  0.00    +0.098 C 
ATOM     32  C   UNL     1     -35.785  22.442   4.070  0.00  0.00    +0.194 C 
ENDBRANCH  27  30
ENDBRANCH   1  27
TORSDOF 7
ENDMDL
MODEL 4
REMARK VINA RESULT:      -6.3      2.505      7.327
REMARK  Name = 190984
REMARK  7 active torsions:
REMARK  status: ('A' for Active; 'I' for Inactive)
REMARK    1  A    between atoms: C_1  and  C_6
REMARK    2  A    between atoms: C_1  and  N_17
REMARK    3  A    between atoms: C_1  and  C_27
REMARK    4  A    between atoms: C_5  and  C_9
REMARK    5  A    between atoms: N_8  and  C_14
REMARK    6  A    between atoms: C_18  and  C_22
REMARK    7  A    between atoms: C_27  and  C_30
REMARK                            x       y       z     vdW  Elec       q    Type
REMARK                         _______ _______ _______ _____ _____    ______ ____
ROOT
ATOM      1  C   UNL     1     -37.510  23.919   2.650  0.00  0.00    +0.151 C 
ENDROOT
BRANCH   1   6
ATOM      2  O   UNL     1     -34.986  26.572   5.093  0.00  0.00    -0.277 OA
ATOM      3  O   UNL     1     -37.010  24.629   4.913  0.00  0.00    -0.273 OA
ATOM      4  N   UNL     1     -35.856  25.617   3.146  0.00  0.00    -0.256 N 
ATOM      5  C   UNL     1     -35.020  26.463   3.871  0.00  0.00    +0.209 C 
ATOM      6  C   UNL     1     -36.799  24.753   3.708  0.00  0.00    +0.246 C 
ATOM      7  H   UNL     1     -35.777  25.630   2.164  0.00  0.00    +0.157 HD
BRANCH   5   9
ATOM      8  N   UNL     1     -34.289  28.677   3.380  0.00  0.00    +0.394 N 
ATOM      9  C   UNL     1     -34.135  27.275   2.979  0.00  0.00    +0.021 C 
ATOM     10  C   UNL     1     -32.661  26.941   3.205  0.00  0.00    -0.014 C 
ATOM     11  C   UNL     1     -32.051  28.222   3.752  0.00  0.00    -0.024 C 
ATOM     12  C   UNL     1     -32.975  29.302   3.224  0.00  0.00    -0.077 C 
ATOM     13  H   UNL     1     -34.606  28.730   4.349  0.00  0.00    -0.079 HD
BRANCH   8  14
ATOM     14  C   UNL     1     -35.324  29.377   2.630  0.00  0.00    -0.077 C 
ATOM     15  C   UNL     1     -35.346  30.854   2.961  0.00  0.00    -0.025 C 
ENDBRANCH   8  14
ENDBRANCH   5   9
ENDBRANCH   1   6
BRANCH   1  17
ATOM     16  O   UNL     1     -34.948  22.800   1.869  0.00  0.00    -0.273 OA
ATOM     17  N   UNL     1     -37.067  22.557   2.802  0.00  0.00    -0.297 N 
ATOM     18  C   UNL     1     -35.817  22.112   2.397  0.00  0.00    +0.241 C 
ATOM     19  H   UNL     1     -37.682  21.908   3.215  0.00  0.00    +0.150 HD
BRANCH  18  22
ATOM     20  O   UNL     1     -37.247  18.702   0.254  0.00  0.00    -0.275 OA
ATOM     21  N   UNL     1     -36.736  19.959   2.163  0.00  0.00    -0.298 N 
ATOM     22  C   UNL     1     -35.603  20.663   2.694  0.00  0.00    +0.149 C 
ATOM     23  C   UNL     1     -34.426  20.076   1.939  0.00  0.00    +0.039 C 
ATOM     24  C   UNL     1     -35.023  19.614   0.609  0.00  0.00    +0.087 C 
ATOM     25  C   UNL     1     -36.466  19.334   0.950  0.00  0.00    +0.223 C 
ATOM     26  H   UNL     1     -37.612  19.923   2.610  0.00  0.00    +0.150 HD
ENDBRANCH  18  22
ENDBRANCH   1  17
BRANCH   1  27
ATOM     27  C   UNL     1     -39.028  24.048   2.795  0.00  0.00    +0.059 C 
BRANCH  27  30
ATOM     28  N   UNL     1     -40.239  22.176   1.749  0.00  0.00    -0.246 NA
ATOM     29  N   UNL     1     -38.806  22.197  -0.031  0.00  0.00    -0.225 NA
ATOM     30  C   UNL     1     -39.778  23.566   1.560  0.00  0.00    +0.148 C 
ATOM     31  C   UNL     1     -38.868  23.410   0.386  0.00  0.00    +0.098 C 
ATOM     32  C   UNL     1     -39.638  21.508   0.812  0.00  0.00    +0.194 C 
ENDBRANCH  27  30
ENDBRANCH   1  27
TORSDOF 7
ENDMDL
MODEL 5
REMARK VINA RESULT:      -6.2      3.601      6.053
REMARK  Name = 190984
REMARK  7 active torsions:
REMARK  status: ('A' for Active; 'I' for Inactive)
REMARK    1  A    between atoms: C_1  and  C_6
REMARK    2  A    between atoms: C_1  and  N_17
REMARK    3  A    between atoms: C_1  and  C_27
REMARK    4  A    between atoms: C_5  and  C_9
REMARK    5  A    between atoms: N_8  and  C_14
REMARK    6  A    between atoms: C_18  and  C_22
REMARK    7  A    between atoms: C_27  and  C_30
REMARK                            x       y       z     vdW  Elec       q    Type
REMARK                         _______ _______ _______ _____ _____    ______ ____
ROOT
ATOM      1  C   UNL     1     -36.252  27.516   1.152  0.00  0.00    +0.151 C 
ENDROOT
BRANCH   1   6
ATOM      2  O   UNL     1     -38.451  24.733   3.760  0.00  0.00    -0.277 OA
ATOM      3  O   UNL     1     -38.386  26.425   1.515  0.00  0.00    -0.273 OA
ATOM      4  N   UNL     1     -36.656  26.038   3.028  0.00  0.00    -0.256 N 
ATOM      5  C   UNL     1     -37.298  25.139   3.876  0.00  0.00    +0.209 C 
ATOM      6  C   UNL     1     -37.237  26.626   1.902  0.00  0.00    +0.246 C 
ATOM      7  H   UNL     1     -35.724  26.278   3.239  0.00  0.00    +0.157 HD
BRANCH   5   9
ATOM      8  N   UNL     1     -35.315  23.933   4.415  0.00  0.00    +0.394 N 
ATOM      9  C   UNL     1     -36.416  24.703   5.002  0.00  0.00    +0.021 C 
ATOM     10  C   UNL     1     -35.760  25.900   5.691  0.00  0.00    -0.014 C 
ATOM     11  C   UNL     1     -34.271  25.732   5.429  0.00  0.00    -0.024 C 
ATOM     12  C   UNL     1     -34.123  24.240   5.206  0.00  0.00    -0.077 C 
ATOM     13  H   UNL     1     -35.184  24.201   3.438  0.00  0.00    -0.079 HD
BRANCH   8  14
ATOM     14  C   UNL     1     -35.583  22.502   4.356  0.00  0.00    -0.077 C 
ATOM     15  C   UNL     1     -35.242  21.820   5.665  0.00  0.00    -0.025 C 
ENDBRANCH   8  14
ENDBRANCH   5   9
ENDBRANCH   1   6
BRANCH   1  17
ATOM     16  O   UNL     1     -36.339  30.219   0.097  0.00  0.00    -0.273 OA
ATOM     17  N   UNL     1     -36.134  28.748   1.889  0.00  0.00    -0.297 N 
ATOM     18  C   UNL     1     -36.187  30.000   1.296  0.00  0.00    +0.241 C 
ATOM     19  H   UNL     1     -36.008  28.699   2.865  0.00  0.00    +0.150 HD
BRANCH  18  22
ATOM     20  O   UNL     1     -33.223  30.563   4.321  0.00  0.00    -0.275 OA
ATOM     21  N   UNL     1     -35.390  30.566   3.435  0.00  0.00    -0.298 N 
ATOM     22  C   UNL     1     -36.064  31.109   2.290  0.00  0.00    +0.149 C 
ATOM     23  C   UNL     1     -35.143  32.219   1.821  0.00  0.00    +0.039 C 
ATOM     24  C   UNL     1     -33.755  31.779   2.286  0.00  0.00    +0.087 C 
ATOM     25  C   UNL     1     -34.045  30.913   3.488  0.00  0.00    +0.223 C 
ATOM     26  H   UNL     1     -35.834  30.006   4.112  0.00  0.00    +0.150 HD
ENDBRANCH  18  22
ENDBRANCH   1  17
BRANCH   1  27
ATOM     27  C   UNL     1     -34.903  26.810   0.994  0.00  0.00    +0.059 C 
BRANCH  27  30
ATOM     28  N   UNL     1     -33.032  28.411   1.020  0.00  0.00    -0.246 NA
ATOM     29  N   UNL     1     -31.595  26.776   1.717  0.00  0.00    -0.225 NA
ATOM     30  C   UNL     1     -33.805  27.451   1.833  0.00  0.00    +0.148 C 
ATOM     31  C   UNL     1     -32.744  26.466   2.201  0.00  0.00    +0.098 C 
ATOM     32  C   UNL     1     -31.824  27.937   1.027  0.00  0.00    +0.194 C 
ENDBRANCH  27  30
ENDBRANCH   1  27
TORSDOF 7
ENDMDL
MODEL 6
REMARK VINA RESULT:      -6.1      3.847      6.909
REMARK  Name = 190984
REMARK  7 active torsions:
REMARK  status: ('A' for Active; 'I' for Inactive)
REMARK    1  A    between atoms: C_1  and  C_6
REMARK    2  A    between atoms: C_1  and  N_17
REMARK    3  A    between atoms: C_1  and  C_27
REMARK    4  A    between atoms: C_5  and  C_9
REMARK    5  A    between atoms: N_8  and  C_14
REMARK    6  A    between atoms: C_18  and  C_22
REMARK    7  A    between atoms: C_27  and  C_30
REMARK                            x       y       z     vdW  Elec       q    Type
REMARK                         _______ _______ _______ _____ _____    ______ ____
ROOT
ATOM      1  C   UNL     1     -33.610  26.524   4.324  0.00  0.00    +0.151 C 
ENDROOT
BRANCH   1   6
ATOM      2  O   UNL     1     -32.187  24.800   0.532  0.00  0.00    -0.277 OA
ATOM      3  O   UNL     1     -31.685  26.272   2.874  0.00  0.00    -0.273 OA
ATOM      4  N   UNL     1     -33.721  25.358   2.204  0.00  0.00    -0.256 N 
ATOM      5  C   UNL     1     -33.320  24.776   1.004  0.00  0.00    +0.209 C 
ATOM      6  C   UNL     1     -32.881  26.069   3.065  0.00  0.00    +0.246 C 
ATOM      7  H   UNL     1     -34.666  25.261   2.465  0.00  0.00    +0.157 HD
BRANCH   5   9
ATOM      8  N   UNL     1     -35.273  23.451   1.332  0.00  0.00    +0.394 N 
ATOM      9  C   UNL     1     -34.454  24.100   0.303  0.00  0.00    +0.021 C 
ATOM     10  C   UNL     1     -35.373  25.116  -0.376  0.00  0.00    -0.014 C 
ATOM     11  C   UNL     1     -36.704  24.982   0.348  0.00  0.00    -0.024 C 
ATOM     12  C   UNL     1     -36.663  23.566   0.892  0.00  0.00    -0.077 C 
ATOM     13  H   UNL     1     -35.135  23.915   2.230  0.00  0.00    -0.079 HD
BRANCH   8  14
ATOM     14  C   UNL     1     -34.888  22.069   1.583  0.00  0.00    -0.077 C 
ATOM     15  C   UNL     1     -36.090  21.210   1.914  0.00  0.00    -0.025 C 
ENDBRANCH   8  14
ENDBRANCH   5   9
ENDBRANCH   1   6
BRANCH   1  17
ATOM     16  O   UNL     1     -32.215  27.077   6.810  0.00  0.00    -0.273 OA
ATOM     17  N   UNL     1     -33.021  27.772   4.738  0.00  0.00    -0.297 N 
ATOM     18  C   UNL     1     -32.371  27.942   5.952  0.00  0.00    +0.241 C 
ATOM     19  H   UNL     1     -33.083  28.543   4.130  0.00  0.00    +0.150 HD
BRANCH  18  22
ATOM     20  O   UNL     1     -28.594  29.164   7.531  0.00  0.00    -0.275 OA
ATOM     21  N   UNL     1     -30.912  29.280   7.222  0.00  0.00    -0.298 N 
ATOM     22  C   UNL     1     -31.831  29.326   6.121  0.00  0.00    +0.149 C 
ATOM     23  C   UNL     1     -30.972  29.768   4.951  0.00  0.00    +0.039 C 
ATOM     24  C   UNL     1     -29.568  29.282   5.309  0.00  0.00    +0.087 C 
ATOM     25  C   UNL     1     -29.582  29.246   6.817  0.00  0.00    +0.223 C 
ATOM     26  H   UNL     1     -31.193  29.273   8.165  0.00  0.00    +0.150 HD
ENDBRANCH  18  22
ENDBRANCH   1  17
BRANCH   1  27
ATOM     27  C   UNL     1     -35.111  26.660   4.056  0.00  0.00    +0.059 C 
BRANCH  27  30
ATOM     28  N   UNL     1     -35.121  24.769   5.633  0.00  0.00    -0.246 NA
ATOM     29  N   UNL     1     -36.743  23.715   4.416  0.00  0.00    -0.225 NA
ATOM     30  C   UNL     1     -35.953  25.810   4.998  0.00  0.00    +0.148 C 
ATOM     31  C   UNL     1     -36.943  24.973   4.255  0.00  0.00    +0.098 C 
ATOM     32  C   UNL     1     -35.652  23.650   5.242  0.00  0.00    +0.194 C 
ENDBRANCH  27  30
ENDBRANCH   1  27
TORSDOF 7
ENDMDL
MODEL 7
REMARK VINA RESULT:      -6.1      1.770      4.926
REMARK  Name = 190984
REMARK  7 active torsions:
REMARK  status: ('A' for Active; 'I' for Inactive)
REMARK    1  A    between atoms: C_1  and  C_6
REMARK    2  A    between atoms: C_1  and  N_17
REMARK    3  A    between atoms: C_1  and  C_27
REMARK    4  A    between atoms: C_5  and  C_9
REMARK    5  A    between atoms: N_8  and  C_14
REMARK    6  A    between atoms: C_18  and  C_22
REMARK    7  A    between atoms: C_27  and  C_30
REMARK                            x       y       z     vdW  Elec       q    Type
REMARK                         _______ _______ _______ _____ _____    ______ ____
ROOT
ATOM      1  C   UNL     1     -37.491  24.147   3.214  0.00  0.00    +0.151 C 
ENDROOT
BRANCH   1   6
ATOM      2  O   UNL     1     -35.051  20.495   3.510  0.00  0.00    -0.277 OA
ATOM      3  O   UNL     1     -36.429  22.606   4.754  0.00  0.00    -0.273 OA
ATOM      4  N   UNL     1     -36.181  22.253   2.464  0.00  0.00    -0.256 N 
ATOM      5  C   UNL     1     -35.423  21.084   2.500  0.00  0.00    +0.209 C 
ATOM      6  C   UNL     1     -36.637  22.942   3.591  0.00  0.00    +0.246 C 
ATOM      7  H   UNL     1     -36.412  22.620   1.580  0.00  0.00    +0.157 HD
BRANCH   5   9
ATOM      8  N   UNL     1     -34.771  19.170   1.240  0.00  0.00    +0.394 N 
ATOM      9  C   UNL     1     -35.076  20.600   1.129  0.00  0.00    +0.021 C 
ATOM     10  C   UNL     1     -36.276  20.693   0.185  0.00  0.00    -0.014 C 
ATOM     11  C   UNL     1     -36.595  19.252  -0.183  0.00  0.00    -0.024 C 
ATOM     12  C   UNL     1     -35.270  18.541   0.018  0.00  0.00    -0.077 C 
ATOM     13  H   UNL     1     -35.228  18.779   2.065  0.00  0.00    -0.079 HD
BRANCH   8  14
ATOM     14  C   UNL     1     -33.356  18.902   1.459  0.00  0.00    -0.077 C 
ATOM     15  C   UNL     1     -32.491  19.638   0.457  0.00  0.00    -0.025 C 
ENDBRANCH   8  14
ENDBRANCH   5   9
ENDBRANCH   1   6
BRANCH   1  17
ATOM     16  O   UNL     1     -36.245  26.109   4.954  0.00  0.00    -0.273 OA
ATOM     17  N   UNL     1     -36.596  25.210   2.835  0.00  0.00    -0.297 N 
ATOM     18  C   UNL     1     -36.047  26.104   3.742  0.00  0.00    +0.241 C 
ATOM     19  H   UNL     1     -36.361  25.307   1.883  0.00  0.00    +0.150 HD
BRANCH  18  22
ATOM     20  O   UNL     1     -32.195  27.435   5.024  0.00  0.00    -0.275 OA
ATOM     21  N   UNL     1     -34.346  27.681   4.135  0.00  0.00    -0.298 N 
ATOM     22  C   UNL     1     -35.133  27.091   3.089  0.00  0.00    +0.149 C 
ATOM     23  C   UNL     1     -34.103  26.432   2.190  0.00  0.00    +0.039 C 
ATOM     24  C   UNL     1     -32.935  26.115   3.124  0.00  0.00    +0.087 C 
ATOM     25  C   UNL     1     -33.062  27.153   4.211  0.00  0.00    +0.223 C 
ATOM     26  H   UNL     1     -34.681  28.386   4.735  0.00  0.00    +0.150 HD
ENDBRANCH  18  22
ENDBRANCH   1  17
BRANCH   1  27
ATOM     27  C   UNL     1     -38.462  23.786   2.087  0.00  0.00    +0.059 C 
BRANCH  27  30
ATOM     28  N   UNL     1     -40.811  23.634   1.363  0.00  0.00    -0.246 NA
ATOM     29  N   UNL     1     -41.184  25.798   1.996  0.00  0.00    -0.225 NA
ATOM     30  C   UNL     1     -39.920  23.928   2.503  0.00  0.00    +0.148 C 
ATOM     31  C   UNL     1     -40.279  25.350   2.789  0.00  0.00    +0.098 C 
ATOM     32  C   UNL     1     -41.463  24.740   1.171  0.00  0.00    +0.194 C 
ENDBRANCH  27  30
ENDBRANCH   1  27
TORSDOF 7
ENDMDL
MODEL 8
REMARK VINA RESULT:      -6.1      1.801      2.662
REMARK  Name = 190984
REMARK  7 active torsions:
REMARK  status: ('A' for Active; 'I' for Inactive)
REMARK    1  A    between atoms: C_1  and  C_6
REMARK    2  A    between atoms: C_1  and  N_17
REMARK    3  A    between atoms: C_1  and  C_27
REMARK    4  A    between atoms: C_5  and  C_9
REMARK    5  A    between atoms: N_8  and  C_14
REMARK    6  A    between atoms: C_18  and  C_22
REMARK    7  A    between atoms: C_27  and  C_30
REMARK                            x       y       z     vdW  Elec       q    Type
REMARK                         _______ _______ _______ _____ _____    ______ ____
ROOT
ATOM      1  C   UNL     1     -36.053  22.678   3.590  0.00  0.00    +0.151 C 
ENDROOT
BRANCH   1   6
ATOM      2  O   UNL     1     -35.736  19.046   1.122  0.00  0.00    -0.277 OA
ATOM      3  O   UNL     1     -34.997  20.504   3.410  0.00  0.00    -0.273 OA
ATOM      4  N   UNL     1     -36.435  21.197   1.712  0.00  0.00    -0.256 N 
ATOM      5  C   UNL     1     -36.386  20.064   0.903  0.00  0.00    +0.209 C 
ATOM      6  C   UNL     1     -35.739  21.348   2.914  0.00  0.00    +0.246 C 
ATOM      7  H   UNL     1     -37.001  21.946   1.415  0.00  0.00    +0.157 HD
BRANCH   5   9
ATOM      8  N   UNL     1     -38.184  19.105  -0.332  0.00  0.00    +0.394 N 
ATOM      9  C   UNL     1     -37.227  20.216  -0.325  0.00  0.00    +0.021 C 
ATOM     10  C   UNL     1     -38.072  21.489  -0.266  0.00  0.00    -0.014 C 
ATOM     11  C   UNL     1     -39.511  20.999  -0.230  0.00  0.00    -0.024 C 
ATOM     12  C   UNL     1     -39.431  19.634  -0.886  0.00  0.00    -0.077 C 
ATOM     13  H   UNL     1     -38.324  18.760   0.618  0.00  0.00    -0.079 HD
BRANCH   8  14
ATOM     14  C   UNL     1     -37.706  17.942  -1.066  0.00  0.00    -0.077 C 
ATOM     15  C   UNL     1     -37.947  16.661  -0.294  0.00  0.00    -0.025 C 
ENDBRANCH   8  14
ENDBRANCH   5   9
ENDBRANCH   1   6
BRANCH   1  17
ATOM     16  O   UNL     1     -37.512  24.455   1.817  0.00  0.00    -0.273 OA
ATOM     17  N   UNL     1     -37.479  22.871   3.524  0.00  0.00    -0.297 N 
ATOM     18  C   UNL     1     -38.089  23.748   2.639  0.00  0.00    +0.241 C 
ATOM     19  H   UNL     1     -38.050  22.355   4.138  0.00  0.00    +0.150 HD
BRANCH  18  22
ATOM     20  O   UNL     1     -40.724  26.995   3.516  0.00  0.00    -0.275 OA
ATOM     21  N   UNL     1     -39.928  24.798   3.662  0.00  0.00    -0.298 N 
ATOM     22  C   UNL     1     -39.579  23.737   2.760  0.00  0.00    +0.149 C 
ATOM     23  C   UNL     1     -40.277  24.117   1.468  0.00  0.00    +0.039 C 
ATOM     24  C   UNL     1     -40.381  25.640   1.529  0.00  0.00    +0.087 C 
ATOM     25  C   UNL     1     -40.395  25.933   3.009  0.00  0.00    +0.223 C 
ATOM     26  H   UNL     1     -39.846  24.729   4.640  0.00  0.00    +0.150 HD
ENDBRANCH  18  22
ENDBRANCH   1  17
BRANCH   1  27
ATOM     27  C   UNL     1     -35.540  22.681   5.032  0.00  0.00    +0.059 C 
BRANCH  27  30
ATOM     28  N   UNL     1     -36.120  25.028   5.503  0.00  0.00    -0.246 NA
ATOM     29  N   UNL     1     -34.596  25.751   3.960  0.00  0.00    -0.225 NA
ATOM     30  C   UNL     1     -35.019  24.045   5.464  0.00  0.00    +0.148 C 
ATOM     31  C   UNL     1     -34.128  24.651   4.429  0.00  0.00    +0.098 C 
ATOM     32  C   UNL     1     -35.778  25.928   4.631  0.00  0.00    +0.194 C 
ENDBRANCH  27  30
ENDBRANCH   1  27
TORSDOF 7
ENDMDL
MODEL 9
REMARK VINA RESULT:      -6.0      3.386      7.209
REMARK  Name = 190984
REMARK  7 active torsions:
REMARK  status: ('A' for Active; 'I' for Inactive)
REMARK    1  A    between atoms: C_1  and  C_6
REMARK    2  A    between atoms: C_1  and  N_17
REMARK    3  A    between atoms: C_1  and  C_27
REMARK    4  A    between atoms: C_5  and  C_9
REMARK    5  A    between atoms: N_8  and  C_14
REMARK    6  A    between atoms: C_18  and  C_22
REMARK    7  A    between atoms: C_27  and  C_30
REMARK                            x       y       z     vdW  Elec       q    Type
REMARK                         _______ _______ _______ _____ _____    ______ ____
ROOT
ATOM      1  C   UNL     1     -34.637  26.828   3.444  0.00  0.00    +0.151 C 
ENDROOT
BRANCH   1   6
ATOM      2  O   UNL     1     -38.265  27.462   1.032  0.00  0.00    -0.277 OA
ATOM      3  O   UNL     1     -35.602  28.128   1.640  0.00  0.00    -0.273 OA
ATOM      4  N   UNL     1     -36.927  26.539   2.711  0.00  0.00    -0.256 N 
ATOM      5  C   UNL     1     -38.096  26.685   1.967  0.00  0.00    +0.209 C 
ATOM      6  C   UNL     1     -35.754  27.267   2.503  0.00  0.00    +0.246 C 
ATOM      7  H   UNL     1     -36.929  25.873   3.438  0.00  0.00    +0.157 HD
BRANCH   5   9
ATOM      8  N   UNL     1     -39.744  25.115   1.263  0.00  0.00    +0.394 N 
ATOM      9  C   UNL     1     -39.181  25.774   2.445  0.00  0.00    +0.021 C 
ATOM     10  C   UNL     1     -38.621  24.650   3.318  0.00  0.00    -0.014 C 
ATOM     11  C   UNL     1     -38.902  23.375   2.537  0.00  0.00    -0.024 C 
ATOM     12  C   UNL     1     -40.088  23.752   1.670  0.00  0.00    -0.077 C 
ATOM     13  H   UNL     1     -39.057  25.108   0.508  0.00  0.00    -0.079 HD
BRANCH   8  14
ATOM     14  C   UNL     1     -40.884  25.825   0.699  0.00  0.00    -0.077 C 
ATOM     15  C   UNL     1     -42.147  25.565   1.492  0.00  0.00    -0.025 C 
ENDBRANCH   8  14
ENDBRANCH   5   9
ENDBRANCH   1   6
BRANCH   1  17
ATOM     16  O   UNL     1     -31.750  27.068   3.634  0.00  0.00    -0.273 OA
ATOM     17  N   UNL     1     -33.877  28.002   3.791  0.00  0.00    -0.297 N 
ATOM     18  C   UNL     1     -32.492  28.021   3.857  0.00  0.00    +0.241 C 
ATOM     19  H   UNL     1     -34.366  28.833   3.992  0.00  0.00    +0.150 HD
BRANCH  18  22
ATOM     20  O   UNL     1     -31.711  29.647   7.730  0.00  0.00    -0.275 OA
ATOM     21  N   UNL     1     -32.471  29.689   5.516  0.00  0.00    -0.298 N 
ATOM     22  C   UNL     1     -31.956  29.370   4.215  0.00  0.00    +0.149 C 
ATOM     23  C   UNL     1     -30.452  29.372   4.411  0.00  0.00    +0.039 C 
ATOM     24  C   UNL     1     -30.263  29.014   5.885  0.00  0.00    +0.087 C 
ATOM     25  C   UNL     1     -31.539  29.497   6.530  0.00  0.00    +0.223 C 
ATOM     26  H   UNL     1     -33.388  30.009   5.675  0.00  0.00    +0.150 HD
ENDBRANCH  18  22
ENDBRANCH   1  17
BRANCH   1  27
ATOM     27  C   UNL     1     -35.216  26.134   4.678  0.00  0.00    +0.059 C 
BRANCH  27  30
ATOM     28  N   UNL     1     -34.663  23.995   3.591  0.00  0.00    -0.246 NA
ATOM     29  N   UNL     1     -36.026  22.865   5.036  0.00  0.00    -0.225 NA
ATOM     30  C   UNL     1     -34.664  24.728   4.872  0.00  0.00    +0.148 C 
ATOM     31  C   UNL     1     -35.583  23.879   5.688  0.00  0.00    +0.098 C 
ATOM     32  C   UNL     1     -35.449  22.983   3.799  0.00  0.00    +0.194 C 
ENDBRANCH  27  30
ENDBRANCH   1  27
TORSDOF 7
ENDMDL
