MODEL 1
REMARK VINA RESULT:      -5.8      0.000      0.000
REMARK  Name = 20632028
REMARK  6 active torsions:
REMARK  status: ('A' for Active; 'I' for Inactive)
REMARK    1  A    between atoms: C_2  and  O_17
REMARK    2  A    between atoms: C_3  and  O_19
REMARK    3  A    between atoms: C_4  and  O_21
REMARK    4  A    between atoms: C_5  and  N_10
REMARK    5  A    between atoms: C_6  and  C_23
REMARK    6  A    between atoms: C_23  and  O_24
REMARK                            x       y       z     vdW  Elec       q    Type
REMARK                         _______ _______ _______ _____ _____    ______ ____
ROOT
ATOM      1  O   UNL     1     -36.362  22.556   1.886  0.00  0.00    -0.333 OA
ATOM      2  C   UNL     1     -35.169  21.511   4.279  0.00  0.00    +0.171 C 
ATOM      3  C   UNL     1     -36.255  22.590   4.329  0.00  0.00    +0.187 C 
ATOM      4  C   UNL     1     -35.244  20.702   2.983  0.00  0.00    +0.169 C 
ATOM      5  C   UNL     1     -36.272  23.402   3.030  0.00  0.00    +0.229 C 
ATOM      6  C   UNL     1     -35.261  21.645   1.774  0.00  0.00    +0.175 C 
ENDROOT
BRANCH   5  10
ATOM      7  F   UNL     1     -40.871  24.094   1.952  0.00  0.00    -0.198 F 
ATOM      8  O   UNL     1     -36.252  26.118   3.904  0.00  0.00    -0.252 OA
ATOM      9  O   UNL     1     -40.705  26.665   2.819  0.00  0.00    -0.267 OA
ATOM     10  N   UNL     1     -37.402  24.297   2.996  0.00  0.00    -0.214 N 
ATOM     11  N   UNL     1     -38.468  26.390   3.363  0.00  0.00    -0.234 N 
ATOM     12  C   UNL     1     -37.291  25.630   3.453  0.00  0.00    +0.316 C 
ATOM     13  C   UNL     1     -38.607  23.818   2.503  0.00  0.00    +0.106 C 
ATOM     14  C   UNL     1     -39.707  24.566   2.431  0.00  0.00    +0.208 C 
ATOM     15  C   UNL     1     -39.699  25.967   2.879  0.00  0.00    +0.282 C 
ATOM     16  H   UNL     1     -38.414  27.323   3.675  0.00  0.00    +0.159 HD
ENDBRANCH   5  10
BRANCH   2  17
ATOM     17  O   UNL     1     -35.307  20.651   5.406  0.00  0.00    -0.379 OA
ATOM     18  H   UNL     1     -35.429  19.738   5.104  0.00  0.00    +0.211 HD
ENDBRANCH   2  17
BRANCH   3  19
ATOM     19  O   UNL     1     -36.002  23.456   5.435  0.00  0.00    -0.378 OA
ATOM     20  H   UNL     1     -35.046  23.519   5.584  0.00  0.00    +0.211 HD
ENDBRANCH   3  19
BRANCH   4  21
ATOM     21  O   UNL     1     -36.421  19.890   2.986  0.00  0.00    -0.379 OA
ATOM     22  H   UNL     1     -36.637  19.631   2.076  0.00  0.00    +0.211 HD
ENDBRANCH   4  21
BRANCH   6  23
ATOM     23  C   UNL     1     -35.420  20.897   0.456  0.00  0.00    +0.169 C 
BRANCH  23  24
ATOM     24  O   UNL     1     -34.861  19.604   0.599  0.00  0.00    -0.379 OA
ATOM     25  H   UNL     1     -35.152  19.042  -0.135  0.00  0.00    +0.211 HD
ENDBRANCH  23  24
ENDBRANCH   6  23
TORSDOF 6
ENDMDL
MODEL 2
REMARK VINA RESULT:      -5.5      2.373      4.854
REMARK  Name = 20632028
REMARK  6 active torsions:
REMARK  status: ('A' for Active; 'I' for Inactive)
REMARK    1  A    between atoms: C_2  and  O_17
REMARK    2  A    between atoms: C_3  and  O_19
REMARK    3  A    between atoms: C_4  and  O_21
REMARK    4  A    between atoms: C_5  and  N_10
REMARK    5  A    between atoms: C_6  and  C_23
REMARK    6  A    between atoms: C_23  and  O_24
REMARK                            x       y       z     vdW  Elec       q    Type
REMARK                         _______ _______ _______ _____ _____    ______ ____
ROOT
ATOM      1  O   UNL     1     -36.083  24.332   4.091  0.00  0.00    -0.333 OA
ATOM      2  C   UNL     1     -33.892  24.902   2.328  0.00  0.00    +0.171 C 
ATOM      3  C   UNL     1     -35.084  24.055   1.876  0.00  0.00    +0.187 C 
ATOM      4  C   UNL     1     -34.268  25.826   3.488  0.00  0.00    +0.169 C 
ATOM      5  C   UNL     1     -35.757  23.383   3.078  0.00  0.00    +0.229 C 
ATOM      6  C   UNL     1     -34.936  25.018   4.607  0.00  0.00    +0.175 C 
ENDROOT
BRANCH   5  10
ATOM      7  F   UNL     1     -40.440  23.722   2.213  0.00  0.00    -0.198 F 
ATOM      8  O   UNL     1     -36.013  20.623   2.403  0.00  0.00    -0.252 OA
ATOM      9  O   UNL     1     -40.535  21.076   1.599  0.00  0.00    -0.267 OA
ATOM     10  N   UNL     1     -36.981  22.731   2.685  0.00  0.00    -0.214 N 
ATOM     11  N   UNL     1     -38.264  20.848   2.003  0.00  0.00    -0.234 N 
ATOM     12  C   UNL     1     -37.006  21.353   2.370  0.00  0.00    +0.316 C 
ATOM     13  C   UNL     1     -38.141  23.490   2.623  0.00  0.00    +0.106 C 
ATOM     14  C   UNL     1     -39.321  22.980   2.272  0.00  0.00    +0.208 C 
ATOM     15  C   UNL     1     -39.456  21.557   1.925  0.00  0.00    +0.282 C 
ATOM     16  H   UNL     1     -38.305  19.890   1.780  0.00  0.00    +0.159 HD
ENDBRANCH   5  10
BRANCH   2  17
ATOM     17  O   UNL     1     -33.412  25.666   1.225  0.00  0.00    -0.379 OA
ATOM     18  H   UNL     1     -32.666  25.206   0.813  0.00  0.00    +0.211 HD
ENDBRANCH   2  17
BRANCH   3  19
ATOM     19  O   UNL     1     -34.629  23.058   0.961  0.00  0.00    -0.378 OA
ATOM     20  H   UNL     1     -35.355  22.448   0.760  0.00  0.00    +0.211 HD
ENDBRANCH   3  19
BRANCH   4  21
ATOM     21  O   UNL     1     -35.156  26.846   3.026  0.00  0.00    -0.379 OA
ATOM     22  H   UNL     1     -35.761  27.097   3.742  0.00  0.00    +0.211 HD
ENDBRANCH   4  21
BRANCH   6  23
ATOM     23  C   UNL     1     -35.410  25.899   5.757  0.00  0.00    +0.169 C 
BRANCH  23  24
ATOM     24  O   UNL     1     -36.606  26.548   5.364  0.00  0.00    -0.379 OA
ATOM     25  H   UNL     1     -37.367  25.998   5.607  0.00  0.00    +0.211 HD
ENDBRANCH  23  24
ENDBRANCH   6  23
TORSDOF 6
ENDMDL
MODEL 3
REMARK VINA RESULT:      -5.4      2.234      4.510
REMARK  Name = 20632028
REMARK  6 active torsions:
REMARK  status: ('A' for Active; 'I' for Inactive)
REMARK    1  A    between atoms: C_2  and  O_17
REMARK    2  A    between atoms: C_3  and  O_19
REMARK    3  A    between atoms: C_4  and  O_21
REMARK    4  A    between atoms: C_5  and  N_10
REMARK    5  A    between atoms: C_6  and  C_23
REMARK    6  A    between atoms: C_23  and  O_24
REMARK                            x       y       z     vdW  Elec       q    Type
REMARK                         _______ _______ _______ _____ _____    ______ ____
ROOT
ATOM      1  O   UNL     1     -36.402  22.968   4.255  0.00  0.00    -0.333 OA
ATOM      2  C   UNL     1     -35.454  25.574   3.514  0.00  0.00    +0.171 C 
ATOM      3  C   UNL     1     -36.554  24.865   2.719  0.00  0.00    +0.187 C 
ATOM      4  C   UNL     1     -35.380  25.056   4.952  0.00  0.00    +0.169 C 
ATOM      5  C   UNL     1     -36.446  23.345   2.881  0.00  0.00    +0.229 C 
ATOM      6  C   UNL     1     -35.282  23.525   4.954  0.00  0.00    +0.175 C 
ENDROOT
BRANCH   5  10
ATOM      7  F   UNL     1     -40.998  23.570   1.462  0.00  0.00    -0.198 F 
ATOM      8  O   UNL     1     -36.477  20.646   1.956  0.00  0.00    -0.252 OA
ATOM      9  O   UNL     1     -40.884  20.986   0.627  0.00  0.00    -0.267 OA
ATOM     10  N   UNL     1     -37.578  22.681   2.285  0.00  0.00    -0.214 N 
ATOM     11  N   UNL     1     -38.670  20.815   1.296  0.00  0.00    -0.234 N 
ATOM     12  C   UNL     1     -37.494  21.336   1.858  0.00  0.00    +0.316 C 
ATOM     13  C   UNL     1     -38.758  23.395   2.139  0.00  0.00    +0.106 C 
ATOM     14  C   UNL     1     -39.859  22.871   1.601  0.00  0.00    +0.208 C 
ATOM     15  C   UNL     1     -39.878  21.479   1.125  0.00  0.00    +0.282 C 
ATOM     16  H   UNL     1     -38.635  19.879   0.992  0.00  0.00    +0.159 HD
ENDBRANCH   5  10
BRANCH   2  17
ATOM     17  O   UNL     1     -35.698  26.977   3.507  0.00  0.00    -0.379 OA
ATOM     18  H   UNL     1     -36.647  27.141   3.613  0.00  0.00    +0.211 HD
ENDBRANCH   2  17
BRANCH   3  19
ATOM     19  O   UNL     1     -36.431  25.212   1.340  0.00  0.00    -0.378 OA
ATOM     20  H   UNL     1     -37.038  25.940   1.134  0.00  0.00    +0.211 HD
ENDBRANCH   3  19
BRANCH   4  21
ATOM     21  O   UNL     1     -36.538  25.473   5.677  0.00  0.00    -0.379 OA
ATOM     22  H   UNL     1     -37.096  26.025   5.105  0.00  0.00    +0.211 HD
ENDBRANCH   4  21
BRANCH   6  23
ATOM     23  C   UNL     1     -35.290  22.945   6.364  0.00  0.00    +0.169 C 
BRANCH  23  24
ATOM     24  O   UNL     1     -36.137  21.810   6.381  0.00  0.00    -0.379 OA
ATOM     25  H   UNL     1     -36.253  21.507   7.295  0.00  0.00    +0.211 HD
ENDBRANCH  23  24
ENDBRANCH   6  23
TORSDOF 6
ENDMDL
MODEL 4
REMARK VINA RESULT:      -5.4      2.525      4.219
REMARK  Name = 20632028
REMARK  6 active torsions:
REMARK  status: ('A' for Active; 'I' for Inactive)
REMARK    1  A    between atoms: C_2  and  O_17
REMARK    2  A    between atoms: C_3  and  O_19
REMARK    3  A    between atoms: C_4  and  O_21
REMARK    4  A    between atoms: C_5  and  N_10
REMARK    5  A    between atoms: C_6  and  C_23
REMARK    6  A    between atoms: C_23  and  O_24
REMARK                            x       y       z     vdW  Elec       q    Type
REMARK                         _______ _______ _______ _____ _____    ______ ____
ROOT
ATOM      1  O   UNL     1     -36.884  22.551   2.455  0.00  0.00    -0.333 OA
ATOM      2  C   UNL     1     -39.703  23.030   2.210  0.00  0.00    +0.171 C 
ATOM      3  C   UNL     1     -38.767  24.061   2.847  0.00  0.00    +0.187 C 
ATOM      4  C   UNL     1     -38.947  22.100   1.260  0.00  0.00    +0.169 C 
ATOM      5  C   UNL     1     -37.523  23.379   3.424  0.00  0.00    +0.229 C 
ATOM      6  C   UNL     1     -37.729  21.499   1.971  0.00  0.00    +0.175 C 
ENDROOT
BRANCH   5  10
ATOM      7  F   UNL     1     -35.262  27.505   2.614  0.00  0.00    -0.198 F 
ATOM      8  O   UNL     1     -35.994  23.219   5.828  0.00  0.00    -0.252 OA
ATOM      9  O   UNL     1     -33.874  27.220   4.933  0.00  0.00    -0.267 OA
ATOM     10  N   UNL     1     -36.557  24.354   3.864  0.00  0.00    -0.214 N 
ATOM     11  N   UNL     1     -34.939  25.209   5.383  0.00  0.00    -0.234 N 
ATOM     12  C   UNL     1     -35.847  24.184   5.076  0.00  0.00    +0.316 C 
ATOM     13  C   UNL     1     -36.338  25.470   3.070  0.00  0.00    +0.106 C 
ATOM     14  C   UNL     1     -35.468  26.426   3.389  0.00  0.00    +0.208 C 
ATOM     15  C   UNL     1     -34.678  26.345   4.628  0.00  0.00    +0.282 C 
ATOM     16  H   UNL     1     -34.432  25.112   6.221  0.00  0.00    +0.159 HD
ENDBRANCH   5  10
BRANCH   2  17
ATOM     17  O   UNL     1     -40.744  23.708   1.513  0.00  0.00    -0.379 OA
ATOM     18  H   UNL     1     -40.511  24.643   1.412  0.00  0.00    +0.211 HD
ENDBRANCH   2  17
BRANCH   3  19
ATOM     19  O   UNL     1     -39.465  24.746   3.887  0.00  0.00    -0.378 OA
ATOM     20  H   UNL     1     -39.799  25.592   3.549  0.00  0.00    +0.211 HD
ENDBRANCH   3  19
BRANCH   4  21
ATOM     21  O   UNL     1     -38.529  22.826   0.102  0.00  0.00    -0.379 OA
ATOM     22  H   UNL     1     -39.304  23.045  -0.439  0.00  0.00    +0.211 HD
ENDBRANCH   4  21
BRANCH   6  23
ATOM     23  C   UNL     1     -36.888  20.628   1.046  0.00  0.00    +0.169 C 
BRANCH  23  24
ATOM     24  O   UNL     1     -36.754  19.345   1.631  0.00  0.00    -0.379 OA
ATOM     25  H   UNL     1     -35.832  19.052   1.561  0.00  0.00    +0.211 HD
ENDBRANCH  23  24
ENDBRANCH   6  23
TORSDOF 6
ENDMDL
MODEL 5
REMARK VINA RESULT:      -5.3      2.196      3.771
REMARK  Name = 20632028
REMARK  6 active torsions:
REMARK  status: ('A' for Active; 'I' for Inactive)
REMARK    1  A    between atoms: C_2  and  O_17
REMARK    2  A    between atoms: C_3  and  O_19
REMARK    3  A    between atoms: C_4  and  O_21
REMARK    4  A    between atoms: C_5  and  N_10
REMARK    5  A    between atoms: C_6  and  C_23
REMARK    6  A    between atoms: C_23  and  O_24
REMARK                            x       y       z     vdW  Elec       q    Type
REMARK                         _______ _______ _______ _____ _____    ______ ____
ROOT
ATOM      1  O   UNL     1     -36.539  23.063   4.219  0.00  0.00    -0.333 OA
ATOM      2  C   UNL     1     -34.367  24.798   3.505  0.00  0.00    +0.171 C 
ATOM      3  C   UNL     1     -35.743  24.923   2.845  0.00  0.00    +0.187 C 
ATOM      4  C   UNL     1     -34.463  24.133   4.879  0.00  0.00    +0.169 C 
ATOM      5  C   UNL     1     -36.490  23.586   2.894  0.00  0.00    +0.229 C 
ATOM      6  C   UNL     1     -35.240  22.816   4.772  0.00  0.00    +0.175 C 
ENDROOT
BRANCH   5  10
ATOM      7  F   UNL     1     -40.757  25.649   3.467  0.00  0.00    -0.198 F 
ATOM      8  O   UNL     1     -37.637  22.246   0.651  0.00  0.00    -0.252 OA
ATOM      9  O   UNL     1     -41.717  24.303   1.309  0.00  0.00    -0.267 OA
ATOM     10  N   UNL     1     -37.849  23.738   2.438  0.00  0.00    -0.214 N 
ATOM     11  N   UNL     1     -39.667  23.270   0.979  0.00  0.00    -0.234 N 
ATOM     12  C   UNL     1     -38.325  23.027   1.312  0.00  0.00    +0.316 C 
ATOM     13  C   UNL     1     -38.684  24.602   3.132  0.00  0.00    +0.106 C 
ATOM     14  C   UNL     1     -39.954  24.809   2.789  0.00  0.00    +0.208 C 
ATOM     15  C   UNL     1     -40.549  24.119   1.635  0.00  0.00    +0.282 C 
ATOM     16  H   UNL     1     -40.022  22.785   0.199  0.00  0.00    +0.159 HD
ENDBRANCH   5  10
BRANCH   2  17
ATOM     17  O   UNL     1     -33.783  26.092   3.622  0.00  0.00    -0.379 OA
ATOM     18  H   UNL     1     -32.946  26.026   4.107  0.00  0.00    +0.211 HD
ENDBRANCH   2  17
BRANCH   3  19
ATOM     19  O   UNL     1     -35.575  25.331   1.488  0.00  0.00    -0.378 OA
ATOM     20  H   UNL     1     -35.872  26.248   1.386  0.00  0.00    +0.211 HD
ENDBRANCH   3  19
BRANCH   4  21
ATOM     21  O   UNL     1     -35.117  25.012   5.797  0.00  0.00    -0.379 OA
ATOM     22  H   UNL     1     -36.076  24.876   5.748  0.00  0.00    +0.211 HD
ENDBRANCH   4  21
BRANCH   6  23
ATOM     23  C   UNL     1     -35.441  22.148   6.128  0.00  0.00    +0.169 C 
BRANCH  23  24
ATOM     24  O   UNL     1     -35.458  20.744   5.943  0.00  0.00    -0.379 OA
ATOM     25  H   UNL     1     -36.180  20.506   5.341  0.00  0.00    +0.211 HD
ENDBRANCH  23  24
ENDBRANCH   6  23
TORSDOF 6
ENDMDL
MODEL 6
REMARK VINA RESULT:      -5.3      2.804      5.504
REMARK  Name = 20632028
REMARK  6 active torsions:
REMARK  status: ('A' for Active; 'I' for Inactive)
REMARK    1  A    between atoms: C_2  and  O_17
REMARK    2  A    between atoms: C_3  and  O_19
REMARK    3  A    between atoms: C_4  and  O_21
REMARK    4  A    between atoms: C_5  and  N_10
REMARK    5  A    between atoms: C_6  and  C_23
REMARK    6  A    between atoms: C_23  and  O_24
REMARK                            x       y       z     vdW  Elec       q    Type
REMARK                         _______ _______ _______ _____ _____    ______ ____
ROOT
ATOM      1  O   UNL     1     -36.962  24.433   2.193  0.00  0.00    -0.333 OA
ATOM      2  C   UNL     1     -36.175  24.886   4.915  0.00  0.00    +0.171 C 
ATOM      3  C   UNL     1     -36.063  23.503   4.269  0.00  0.00    +0.187 C 
ATOM      4  C   UNL     1     -36.161  25.998   3.865  0.00  0.00    +0.169 C 
ATOM      5  C   UNL     1     -37.070  23.358   3.123  0.00  0.00    +0.229 C 
ATOM      6  C   UNL     1     -37.211  25.714   2.785  0.00  0.00    +0.175 C 
ENDROOT
BRANCH   5  10
ATOM      7  F   UNL     1     -33.971  20.247   1.251  0.00  0.00    -0.198 F 
ATOM      8  O   UNL     1     -39.121  21.641   2.129  0.00  0.00    -0.252 OA
ATOM      9  O   UNL     1     -36.027  18.708   0.361  0.00  0.00    -0.267 OA
ATOM     10  N   UNL     1     -36.852  22.133   2.396  0.00  0.00    -0.214 N 
ATOM     11  N   UNL     1     -37.581  20.181   1.249  0.00  0.00    -0.234 N 
ATOM     12  C   UNL     1     -37.938  21.349   1.943  0.00  0.00    +0.316 C 
ATOM     13  C   UNL     1     -35.545  21.738   2.148  0.00  0.00    +0.106 C 
ATOM     14  C   UNL     1     -35.240  20.623   1.485  0.00  0.00    +0.208 C 
ATOM     15  C   UNL     1     -36.295  19.737   0.971  0.00  0.00    +0.282 C 
ATOM     16  H   UNL     1     -38.321  19.620   0.923  0.00  0.00    +0.159 HD
ENDBRANCH   5  10
BRANCH   2  17
ATOM     17  O   UNL     1     -35.102  25.062   5.836  0.00  0.00    -0.379 OA
ATOM     18  H   UNL     1     -34.688  24.205   6.019  0.00  0.00    +0.211 HD
ENDBRANCH   2  17
BRANCH   3  19
ATOM     19  O   UNL     1     -36.311  22.503   5.256  0.00  0.00    -0.378 OA
ATOM     20  H   UNL     1     -37.213  22.162   5.151  0.00  0.00    +0.211 HD
ENDBRANCH   3  19
BRANCH   4  21
ATOM     21  O   UNL     1     -34.863  26.089   3.274  0.00  0.00    -0.379 OA
ATOM     22  H   UNL     1     -34.487  26.966   3.451  0.00  0.00    +0.211 HD
ENDBRANCH   4  21
BRANCH   6  23
ATOM     23  C   UNL     1     -37.185  26.748   1.665  0.00  0.00    +0.169 C 
BRANCH  23  24
ATOM     24  O   UNL     1     -36.719  27.976   2.193  0.00  0.00    -0.379 OA
ATOM     25  H   UNL     1     -37.283  28.699   1.877  0.00  0.00    +0.211 HD
ENDBRANCH  23  24
ENDBRANCH   6  23
TORSDOF 6
ENDMDL
MODEL 7
REMARK VINA RESULT:      -5.2      3.336      4.728
REMARK  Name = 20632028
REMARK  6 active torsions:
REMARK  status: ('A' for Active; 'I' for Inactive)
REMARK    1  A    between atoms: C_2  and  O_17
REMARK    2  A    between atoms: C_3  and  O_19
REMARK    3  A    between atoms: C_4  and  O_21
REMARK    4  A    between atoms: C_5  and  N_10
REMARK    5  A    between atoms: C_6  and  C_23
REMARK    6  A    between atoms: C_23  and  O_24
REMARK                            x       y       z     vdW  Elec       q    Type
REMARK                         _______ _______ _______ _____ _____    ______ ____
ROOT
ATOM      1  O   UNL     1     -35.476  23.156   3.291  0.00  0.00    -0.333 OA
ATOM      2  C   UNL     1     -38.250  23.767   2.880  0.00  0.00    +0.171 C 
ATOM      3  C   UNL     1     -37.203  24.871   3.049  0.00  0.00    +0.187 C 
ATOM      4  C   UNL     1     -37.617  22.466   2.381  0.00  0.00    +0.169 C 
ATOM      5  C   UNL     1     -36.001  24.359   3.848  0.00  0.00    +0.229 C 
ATOM      6  C   UNL     1     -36.428  22.085   3.271  0.00  0.00    +0.175 C 
ENDROOT
BRANCH   5  10
ATOM      7  F   UNL     1     -32.129  26.161   1.716  0.00  0.00    -0.198 F 
ATOM      8  O   UNL     1     -35.595  26.339   5.862  0.00  0.00    -0.252 OA
ATOM      9  O   UNL     1     -31.863  27.993   3.707  0.00  0.00    -0.267 OA
ATOM     10  N   UNL     1     -34.936  25.331   3.859  0.00  0.00    -0.214 N 
ATOM     11  N   UNL     1     -33.737  27.162   4.790  0.00  0.00    -0.234 N 
ATOM     12  C   UNL     1     -34.819  26.274   4.906  0.00  0.00    +0.316 C 
ATOM     13  C   UNL     1     -34.025  25.321   2.814  0.00  0.00    +0.106 C 
ATOM     14  C   UNL     1     -33.007  26.177   2.733  0.00  0.00    +0.208 C 
ATOM     15  C   UNL     1     -32.795  27.198   3.770  0.00  0.00    +0.282 C 
ATOM     16  H   UNL     1     -33.635  27.827   5.508  0.00  0.00    +0.159 HD
ENDBRANCH   5  10
BRANCH   2  17
ATOM     17  O   UNL     1     -39.255  24.207   1.971  0.00  0.00    -0.379 OA
ATOM     18  H   UNL     1     -39.293  23.604   1.213  0.00  0.00    +0.211 HD
ENDBRANCH   2  17
BRANCH   3  19
ATOM     19  O   UNL     1     -37.796  25.977   3.727  0.00  0.00    -0.378 OA
ATOM     20  H   UNL     1     -38.704  25.752   3.981  0.00  0.00    +0.211 HD
ENDBRANCH   3  19
BRANCH   4  21
ATOM     21  O   UNL     1     -37.184  22.626   1.029  0.00  0.00    -0.379 OA
ATOM     22  H   UNL     1     -36.356  23.132   1.013  0.00  0.00    +0.211 HD
ENDBRANCH   4  21
BRANCH   6  23
ATOM     23  C   UNL     1     -35.705  20.840   2.772  0.00  0.00    +0.169 C 
BRANCH  23  24
ATOM     24  O   UNL     1     -36.663  19.825   2.534  0.00  0.00    -0.379 OA
ATOM     25  H   UNL     1     -37.416  20.198   2.049  0.00  0.00    +0.211 HD
ENDBRANCH  23  24
ENDBRANCH   6  23
TORSDOF 6
ENDMDL
MODEL 8
REMARK VINA RESULT:      -5.2      2.683      3.984
REMARK  Name = 20632028
REMARK  6 active torsions:
REMARK  status: ('A' for Active; 'I' for Inactive)
REMARK    1  A    between atoms: C_2  and  O_17
REMARK    2  A    between atoms: C_3  and  O_19
REMARK    3  A    between atoms: C_4  and  O_21
REMARK    4  A    between atoms: C_5  and  N_10
REMARK    5  A    between atoms: C_6  and  C_23
REMARK    6  A    between atoms: C_23  and  O_24
REMARK                            x       y       z     vdW  Elec       q    Type
REMARK                         _______ _______ _______ _____ _____    ______ ____
ROOT
ATOM      1  O   UNL     1     -34.567  20.804   2.067  0.00  0.00    -0.333 OA
ATOM      2  C   UNL     1     -36.819  19.651   0.712  0.00  0.00    +0.171 C 
ATOM      3  C   UNL     1     -36.982  20.826   1.680  0.00  0.00    +0.187 C 
ATOM      4  C   UNL     1     -35.402  19.589   0.139  0.00  0.00    +0.169 C 
ATOM      5  C   UNL     1     -35.842  20.846   2.704  0.00  0.00    +0.229 C 
ATOM      6  C   UNL     1     -34.374  19.625   1.276  0.00  0.00    +0.175 C 
ENDROOT
BRANCH   5  10
ATOM      7  F   UNL     1     -36.687  25.538   2.937  0.00  0.00    -0.198 F 
ATOM      8  O   UNL     1     -35.232  20.998   5.487  0.00  0.00    -0.252 OA
ATOM      9  O   UNL     1     -36.076  25.534   5.586  0.00  0.00    -0.267 OA
ATOM     10  N   UNL     1     -35.887  22.045   3.503  0.00  0.00    -0.214 N 
ATOM     11  N   UNL     1     -35.651  23.255   5.536  0.00  0.00    -0.234 N 
ATOM     12  C   UNL     1     -35.565  22.017   4.880  0.00  0.00    +0.316 C 
ATOM     13  C   UNL     1     -36.256  23.232   2.888  0.00  0.00    +0.106 C 
ATOM     14  C   UNL     1     -36.327  24.392   3.540  0.00  0.00    +0.208 C 
ATOM     15  C   UNL     1     -36.012  24.473   4.975  0.00  0.00    +0.282 C 
ATOM     16  H   UNL     1     -35.430  23.261   6.495  0.00  0.00    +0.159 HD
ENDBRANCH   5  10
BRANCH   2  17
ATOM     17  O   UNL     1     -37.772  19.772  -0.339  0.00  0.00    -0.379 OA
ATOM     18  H   UNL     1     -37.324  19.683  -1.194  0.00  0.00    +0.211 HD
ENDBRANCH   2  17
BRANCH   3  19
ATOM     19  O   UNL     1     -38.233  20.705   2.356  0.00  0.00    -0.378 OA
ATOM     20  H   UNL     1     -38.842  20.178   1.817  0.00  0.00    +0.211 HD
ENDBRANCH   3  19
BRANCH   4  21
ATOM     21  O   UNL     1     -35.190  20.690  -0.747  0.00  0.00    -0.379 OA
ATOM     22  H   UNL     1     -34.738  21.405  -0.271  0.00  0.00    +0.211 HD
ENDBRANCH   4  21
BRANCH   6  23
ATOM     23  C   UNL     1     -32.939  19.651   0.760  0.00  0.00    +0.169 C 
BRANCH  23  24
ATOM     24  O   UNL     1     -32.654  20.954   0.284  0.00  0.00    -0.379 OA
ATOM     25  H   UNL     1     -31.810  20.946  -0.194  0.00  0.00    +0.211 HD
ENDBRANCH  23  24
ENDBRANCH   6  23
TORSDOF 6
ENDMDL
MODEL 9
REMARK VINA RESULT:      -5.2      3.863      5.456
REMARK  Name = 20632028
REMARK  6 active torsions:
REMARK  status: ('A' for Active; 'I' for Inactive)
REMARK    1  A    between atoms: C_2  and  O_17
REMARK    2  A    between atoms: C_3  and  O_19
REMARK    3  A    between atoms: C_4  and  O_21
REMARK    4  A    between atoms: C_5  and  N_10
REMARK    5  A    between atoms: C_6  and  C_23
REMARK    6  A    between atoms: C_23  and  O_24
REMARK                            x       y       z     vdW  Elec       q    Type
REMARK                         _______ _______ _______ _____ _____    ______ ____
ROOT
ATOM      1  O   UNL     1     -34.465  23.918   3.556  0.00  0.00    -0.333 OA
ATOM      2  C   UNL     1     -35.543  25.915   5.314  0.00  0.00    +0.171 C 
ATOM      3  C   UNL     1     -34.990  26.277   3.933  0.00  0.00    +0.187 C 
ATOM      4  C   UNL     1     -35.981  24.451   5.375  0.00  0.00    +0.169 C 
ATOM      5  C   UNL     1     -33.952  25.246   3.478  0.00  0.00    +0.229 C 
ATOM      6  C   UNL     1     -34.847  23.542   4.885  0.00  0.00    +0.175 C 
ENDROOT
BRANCH   5  10
ATOM      7  F   UNL     1     -35.206  25.478  -1.122  0.00  0.00    -0.198 F 
ATOM      8  O   UNL     1     -31.315  25.905   2.609  0.00  0.00    -0.252 OA
ATOM      9  O   UNL     1     -32.649  26.098  -1.806  0.00  0.00    -0.267 OA
ATOM     10  N   UNL     1     -33.559  25.478   2.111  0.00  0.00    -0.214 N 
ATOM     11  N   UNL     1     -31.979  26.000   0.412  0.00  0.00    -0.234 N 
ATOM     12  C   UNL     1     -32.222  25.800   1.780  0.00  0.00    +0.316 C 
ATOM     13  C   UNL     1     -34.526  25.379   1.121  0.00  0.00    +0.106 C 
ATOM     14  C   UNL     1     -34.262  25.575  -0.170  0.00  0.00    +0.208 C 
ATOM     15  C   UNL     1     -32.904  25.914  -0.621  0.00  0.00    +0.282 C 
ATOM     16  H   UNL     1     -31.055  26.224   0.157  0.00  0.00    +0.159 HD
ENDBRANCH   5  10
BRANCH   2  17
ATOM     17  O   UNL     1     -36.639  26.771   5.620  0.00  0.00    -0.379 OA
ATOM     18  H   UNL     1     -37.472  26.296   5.478  0.00  0.00    +0.211 HD
ENDBRANCH   2  17
BRANCH   3  19
ATOM     19  O   UNL     1     -34.388  27.570   3.995  0.00  0.00    -0.378 OA
ATOM     20  H   UNL     1     -35.080  28.247   4.045  0.00  0.00    +0.211 HD
ENDBRANCH   3  19
BRANCH   4  21
ATOM     21  O   UNL     1     -37.144  24.259   4.567  0.00  0.00    -0.379 OA
ATOM     22  H   UNL     1     -37.858  24.834   4.887  0.00  0.00    +0.211 HD
ENDBRANCH   4  21
BRANCH   6  23
ATOM     23  C   UNL     1     -35.256  22.074   4.844  0.00  0.00    +0.169 C 
BRANCH  23  24
ATOM     24  O   UNL     1     -36.044  21.792   5.987  0.00  0.00    -0.379 OA
ATOM     25  H   UNL     1     -35.608  22.150   6.776  0.00  0.00    +0.211 HD
ENDBRANCH  23  24
ENDBRANCH   6  23
TORSDOF 6
ENDMDL
