MODEL 1
REMARK VINA RESULT:      -5.7      0.000      0.000
REMARK  Name = 20112083
REMARK  11 active torsions:
REMARK  status: ('A' for Active; 'I' for Inactive)
REMARK    1  A    between atoms: C_1  and  O_14
REMARK    2  A    between atoms: C_2  and  N_9
REMARK    3  A    between atoms: C_4  and  C_11
REMARK    4  A    between atoms: C_11  and  O_12
REMARK    5  A    between atoms: O_14  and  C_16
REMARK    6  A    between atoms: C_16  and  C_17
REMARK    7  A    between atoms: C_17  and  C_18
REMARK    8  A    between atoms: C_18  and  C_19
REMARK    9  A    between atoms: C_19  and  C_20
REMARK   10  A    between atoms: C_20  and  C_21
REMARK   11  A    between atoms: C_21  and  C_22
REMARK                            x       y       z     vdW  Elec       q    Type
REMARK                         _______ _______ _______ _____ _____    ______ ____
ROOT
ATOM      1  C   UNL     1     -36.102  24.146   4.599  0.00  0.00    +0.171 C 
ATOM      2  C   UNL     1     -36.807  24.874   3.640  0.00  0.00    +0.177 C 
ATOM      3  C   UNL     1     -35.000  24.717   5.236  0.00  0.00    +0.046 C 
ATOM      4  C   UNL     1     -34.603  26.014   4.913  0.00  0.00    +0.079 C 
ATOM      5  C   UNL     1     -36.409  26.170   3.317  0.00  0.00    +0.027 C 
ATOM      6  C   UNL     1     -35.307  26.741   3.954  0.00  0.00    +0.008 C 
ENDROOT
BRANCH   2   9
ATOM      7  O   UNL     1     -37.768  23.749   1.870  0.00  0.00    -0.126 OA
ATOM      8  O   UNL     1     -39.058  24.384   3.530  0.00  0.00    -0.126 OA
ATOM      9  N   UNL     1     -37.933  24.308   2.981  0.00  0.00    +0.061 N 
ENDBRANCH   2   9
BRANCH   4  11
ATOM     10  O   UNL     1     -33.328  26.752   6.799  0.00  0.00    -0.245 OA
ATOM     11  C   UNL     1     -33.455  26.609   5.578  0.00  0.00    +0.338 C 
BRANCH  11  12
ATOM     12  O   UNL     1     -32.493  27.007   4.701  0.00  0.00    -0.477 OA
ATOM     13  H   UNL     1     -32.161  26.405   4.065  0.00  0.00    +0.295 HD
ENDBRANCH  11  12
ENDBRANCH   4  11
BRANCH   1  14
ATOM     14  O   UNL     1     -36.481  22.845   4.939  0.00  0.00    -0.422 OA
BRANCH  14  16
ATOM     15  O   UNL     1     -34.890  21.209   5.447  0.00  0.00    -0.250 OA
ATOM     16  C   UNL     1     -35.501  21.900   4.644  0.00  0.00    +0.322 C 
BRANCH  16  17
ATOM     17  C   UNL     1     -35.289  21.896   3.145  0.00  0.00    +0.110 C 
BRANCH  17  18
ATOM     18  C   UNL     1     -35.728  20.590   2.480  0.00  0.00    +0.012 C 
BRANCH  18  19
ATOM     19  C   UNL     1     -34.543  19.790   1.930  0.00  0.00    +0.001 C 
BRANCH  19  20
ATOM     20  C   UNL     1     -33.861  20.459   0.733  0.00  0.00    +0.000 C 
BRANCH  20  21
ATOM     21  C   UNL     1     -32.439  19.954   0.481  0.00  0.00    +0.000 C 
BRANCH  21  22
ATOM     22  C   UNL     1     -32.261  18.522   0.988  0.00  0.00    +0.000 C 
ATOM     23  C   UNL     1     -30.838  18.029   0.779  0.00  0.00    +0.000 C 
ENDBRANCH  21  22
ENDBRANCH  20  21
ENDBRANCH  19  20
ENDBRANCH  18  19
ENDBRANCH  17  18
ENDBRANCH  16  17
ENDBRANCH  14  16
ENDBRANCH   1  14
TORSDOF 11
ENDMDL
MODEL 2
REMARK VINA RESULT:      -5.7      1.691      2.876
REMARK  Name = 20112083
REMARK  11 active torsions:
REMARK  status: ('A' for Active; 'I' for Inactive)
REMARK    1  A    between atoms: C_1  and  O_14
REMARK    2  A    between atoms: C_2  and  N_9
REMARK    3  A    between atoms: C_4  and  C_11
REMARK    4  A    between atoms: C_11  and  O_12
REMARK    5  A    between atoms: O_14  and  C_16
REMARK    6  A    between atoms: C_16  and  C_17
REMARK    7  A    between atoms: C_17  and  C_18
REMARK    8  A    between atoms: C_18  and  C_19
REMARK    9  A    between atoms: C_19  and  C_20
REMARK   10  A    between atoms: C_20  and  C_21
REMARK   11  A    between atoms: C_21  and  C_22
REMARK                            x       y       z     vdW  Elec       q    Type
REMARK                         _______ _______ _______ _____ _____    ______ ____
ROOT
ATOM      1  C   UNL     1     -36.166  23.620   3.972  0.00  0.00    +0.171 C 
ATOM      2  C   UNL     1     -35.466  23.352   5.149  0.00  0.00    +0.177 C 
ATOM      3  C   UNL     1     -36.096  24.887   3.393  0.00  0.00    +0.046 C 
ATOM      4  C   UNL     1     -35.328  25.886   3.991  0.00  0.00    +0.079 C 
ATOM      5  C   UNL     1     -34.699  24.350   5.747  0.00  0.00    +0.027 C 
ATOM      6  C   UNL     1     -34.629  25.618   5.168  0.00  0.00    +0.008 C 
ENDROOT
BRANCH   2   9
ATOM      7  O   UNL     1     -34.905  21.116   5.218  0.00  0.00    -0.126 OA
ATOM      8  O   UNL     1     -36.197  21.918   6.801  0.00  0.00    -0.126 OA
ATOM      9  N   UNL     1     -35.525  22.065   5.752  0.00  0.00    +0.061 N 
ENDBRANCH   2   9
BRANCH   4  11
ATOM     10  O   UNL     1     -34.375  28.045   3.603  0.00  0.00    -0.245 OA
ATOM     11  C   UNL     1     -35.255  27.206   3.387  0.00  0.00    +0.338 C 
BRANCH  11  12
ATOM     12  O   UNL     1     -36.283  27.442   2.527  0.00  0.00    -0.477 OA
ATOM     13  H   UNL     1     -36.281  27.052   1.675  0.00  0.00    +0.295 HD
ENDBRANCH  11  12
ENDBRANCH   4  11
BRANCH   1  14
ATOM     14  O   UNL     1     -36.942  22.636   3.354  0.00  0.00    -0.422 OA
BRANCH  14  16
ATOM     15  O   UNL     1     -37.299  22.764   1.047  0.00  0.00    -0.250 OA
ATOM     16  C   UNL     1     -36.616  22.451   2.013  0.00  0.00    +0.322 C 
BRANCH  16  17
ATOM     17  C   UNL     1     -35.271  21.759   1.947  0.00  0.00    +0.110 C 
BRANCH  17  18
ATOM     18  C   UNL     1     -35.383  20.234   1.893  0.00  0.00    +0.012 C 
BRANCH  18  19
ATOM     19  C   UNL     1     -34.035  19.561   1.621  0.00  0.00    +0.001 C 
BRANCH  19  20
ATOM     20  C   UNL     1     -33.219  20.253   0.526  0.00  0.00    +0.000 C 
BRANCH  20  21
ATOM     21  C   UNL     1     -31.796  19.707   0.388  0.00  0.00    +0.000 C 
BRANCH  21  22
ATOM     22  C   UNL     1     -31.711  18.256   0.864  0.00  0.00    +0.000 C 
ATOM     23  C   UNL     1     -30.272  17.765   0.904  0.00  0.00    +0.000 C 
ENDBRANCH  21  22
ENDBRANCH  20  21
ENDBRANCH  19  20
ENDBRANCH  18  19
ENDBRANCH  17  18
ENDBRANCH  16  17
ENDBRANCH  14  16
ENDBRANCH   1  14
TORSDOF 11
ENDMDL
MODEL 3
REMARK VINA RESULT:      -5.5      2.236      3.643
REMARK  Name = 20112083
REMARK  11 active torsions:
REMARK  status: ('A' for Active; 'I' for Inactive)
REMARK    1  A    between atoms: C_1  and  O_14
REMARK    2  A    between atoms: C_2  and  N_9
REMARK    3  A    between atoms: C_4  and  C_11
REMARK    4  A    between atoms: C_11  and  O_12
REMARK    5  A    between atoms: O_14  and  C_16
REMARK    6  A    between atoms: C_16  and  C_17
REMARK    7  A    between atoms: C_17  and  C_18
REMARK    8  A    between atoms: C_18  and  C_19
REMARK    9  A    between atoms: C_19  and  C_20
REMARK   10  A    between atoms: C_20  and  C_21
REMARK   11  A    between atoms: C_21  and  C_22
REMARK                            x       y       z     vdW  Elec       q    Type
REMARK                         _______ _______ _______ _____ _____    ______ ____
ROOT
ATOM      1  C   UNL     1     -37.263  23.812   2.879  0.00  0.00    +0.171 C 
ATOM      2  C   UNL     1     -37.226  25.118   3.368  0.00  0.00    +0.177 C 
ATOM      3  C   UNL     1     -36.644  22.783   3.590  0.00  0.00    +0.046 C 
ATOM      4  C   UNL     1     -35.989  23.062   4.790  0.00  0.00    +0.079 C 
ATOM      5  C   UNL     1     -36.572  25.396   4.567  0.00  0.00    +0.027 C 
ATOM      6  C   UNL     1     -35.953  24.367   5.278  0.00  0.00    +0.008 C 
ENDROOT
BRANCH   2   9
ATOM      7  O   UNL     1     -39.074  26.393   2.838  0.00  0.00    -0.126 OA
ATOM      8  O   UNL     1     -37.164  26.866   1.865  0.00  0.00    -0.126 OA
ATOM      9  N   UNL     1     -37.852  26.178   2.655  0.00  0.00    +0.061 N 
ENDBRANCH   2   9
BRANCH   4  11
ATOM     10  O   UNL     1     -34.906  22.078   6.683  0.00  0.00    -0.245 OA
ATOM     11  C   UNL     1     -35.346  21.990   5.532  0.00  0.00    +0.338 C 
BRANCH  11  12
ATOM     12  O   UNL     1     -35.271  20.834   4.816  0.00  0.00    -0.477 OA
ATOM     13  H   UNL     1     -34.709  20.141   5.102  0.00  0.00    +0.295 HD
ENDBRANCH  11  12
ENDBRANCH   4  11
BRANCH   1  14
ATOM     14  O   UNL     1     -37.912  23.508   1.679  0.00  0.00    -0.422 OA
BRANCH  14  16
ATOM     15  O   UNL     1     -40.098  23.130   2.417  0.00  0.00    -0.250 OA
ATOM     16  C   UNL     1     -39.071  22.759   1.865  0.00  0.00    +0.322 C 
BRANCH  16  17
ATOM     17  C   UNL     1     -38.834  21.377   1.294  0.00  0.00    +0.110 C 
BRANCH  17  18
ATOM     18  C   UNL     1     -38.025  21.396  -0.004  0.00  0.00    +0.012 C 
BRANCH  18  19
ATOM     19  C   UNL     1     -36.729  20.587   0.106  0.00  0.00    +0.001 C 
BRANCH  19  20
ATOM     20  C   UNL     1     -35.466  21.439  -0.040  0.00  0.00    +0.000 C 
BRANCH  20  21
ATOM     21  C   UNL     1     -34.465  21.247   1.101  0.00  0.00    +0.000 C 
BRANCH  21  22
ATOM     22  C   UNL     1     -34.546  19.832   1.677  0.00  0.00    +0.000 C 
ATOM     23  C   UNL     1     -33.338  18.998   1.280  0.00  0.00    +0.000 C 
ENDBRANCH  21  22
ENDBRANCH  20  21
ENDBRANCH  19  20
ENDBRANCH  18  19
ENDBRANCH  17  18
ENDBRANCH  16  17
ENDBRANCH  14  16
ENDBRANCH   1  14
TORSDOF 11
ENDMDL
MODEL 4
REMARK VINA RESULT:      -5.5      2.775      5.895
REMARK  Name = 20112083
REMARK  11 active torsions:
REMARK  status: ('A' for Active; 'I' for Inactive)
REMARK    1  A    between atoms: C_1  and  O_14
REMARK    2  A    between atoms: C_2  and  N_9
REMARK    3  A    between atoms: C_4  and  C_11
REMARK    4  A    between atoms: C_11  and  O_12
REMARK    5  A    between atoms: O_14  and  C_16
REMARK    6  A    between atoms: C_16  and  C_17
REMARK    7  A    between atoms: C_17  and  C_18
REMARK    8  A    between atoms: C_18  and  C_19
REMARK    9  A    between atoms: C_19  and  C_20
REMARK   10  A    between atoms: C_20  and  C_21
REMARK   11  A    between atoms: C_21  and  C_22
REMARK                            x       y       z     vdW  Elec       q    Type
REMARK                         _______ _______ _______ _____ _____    ______ ____
ROOT
ATOM      1  C   UNL     1     -34.882  24.283   3.254  0.00  0.00    +0.171 C 
ATOM      2  C   UNL     1     -34.955  24.335   4.646  0.00  0.00    +0.177 C 
ATOM      3  C   UNL     1     -35.075  23.071   2.590  0.00  0.00    +0.046 C 
ATOM      4  C   UNL     1     -35.339  21.912   3.319  0.00  0.00    +0.079 C 
ATOM      5  C   UNL     1     -35.219  23.176   5.374  0.00  0.00    +0.027 C 
ATOM      6  C   UNL     1     -35.411  21.964   4.711  0.00  0.00    +0.008 C 
ENDROOT
BRANCH   2   9
ATOM      7  O   UNL     1     -35.764  26.256   5.633  0.00  0.00    -0.126 OA
ATOM      8  O   UNL     1     -33.596  25.915   5.633  0.00  0.00    -0.126 OA
ATOM      9  N   UNL     1     -34.762  25.562   5.338  0.00  0.00    +0.061 N 
ENDBRANCH   2   9
BRANCH   4  11
ATOM     10  O   UNL     1     -34.692  20.060   1.950  0.00  0.00    -0.245 OA
ATOM     11  C   UNL     1     -35.541  20.649   2.627  0.00  0.00    +0.338 C 
BRANCH  11  12
ATOM     12  O   UNL     1     -36.797  20.154   2.802  0.00  0.00    -0.477 OA
ATOM     13  H   UNL     1     -36.928  19.232   2.901  0.00  0.00    +0.295 HD
ENDBRANCH  11  12
ENDBRANCH   4  11
BRANCH   1  14
ATOM     14  O   UNL     1     -34.619  25.431   2.502  0.00  0.00    -0.422 OA
BRANCH  14  16
ATOM     15  O   UNL     1     -35.731  25.413   0.445  0.00  0.00    -0.250 OA
ATOM     16  C   UNL     1     -35.648  25.749   1.619  0.00  0.00    +0.322 C 
BRANCH  16  17
ATOM     17  C   UNL     1     -36.645  26.621   2.354  0.00  0.00    +0.110 C 
BRANCH  17  18
ATOM     18  C   UNL     1     -38.089  26.142   2.199  0.00  0.00    +0.012 C 
BRANCH  18  19
ATOM     19  C   UNL     1     -38.452  25.049   3.209  0.00  0.00    +0.001 C 
BRANCH  19  20
ATOM     20  C   UNL     1     -39.512  24.072   2.694  0.00  0.00    +0.000 C 
BRANCH  20  21
ATOM     21  C   UNL     1     -38.961  22.678   2.390  0.00  0.00    +0.000 C 
BRANCH  21  22
ATOM     22  C   UNL     1     -39.088  22.344   0.902  0.00  0.00    +0.000 C 
ATOM     23  C   UNL     1     -37.790  22.614   0.157  0.00  0.00    +0.000 C 
ENDBRANCH  21  22
ENDBRANCH  20  21
ENDBRANCH  19  20
ENDBRANCH  18  19
ENDBRANCH  17  18
ENDBRANCH  16  17
ENDBRANCH  14  16
ENDBRANCH   1  14
TORSDOF 11
ENDMDL
MODEL 5
REMARK VINA RESULT:      -5.4      3.144      6.866
REMARK  Name = 20112083
REMARK  11 active torsions:
REMARK  status: ('A' for Active; 'I' for Inactive)
REMARK    1  A    between atoms: C_1  and  O_14
REMARK    2  A    between atoms: C_2  and  N_9
REMARK    3  A    between atoms: C_4  and  C_11
REMARK    4  A    between atoms: C_11  and  O_12
REMARK    5  A    between atoms: O_14  and  C_16
REMARK    6  A    between atoms: C_16  and  C_17
REMARK    7  A    between atoms: C_17  and  C_18
REMARK    8  A    between atoms: C_18  and  C_19
REMARK    9  A    between atoms: C_19  and  C_20
REMARK   10  A    between atoms: C_20  and  C_21
REMARK   11  A    between atoms: C_21  and  C_22
REMARK                            x       y       z     vdW  Elec       q    Type
REMARK                         _______ _______ _______ _____ _____    ______ ____
ROOT
ATOM      1  C   UNL     1     -35.101  25.478   4.363  0.00  0.00    +0.171 C 
ATOM      2  C   UNL     1     -35.466  25.244   3.037  0.00  0.00    +0.177 C 
ATOM      3  C   UNL     1     -35.038  24.416   5.266  0.00  0.00    +0.046 C 
ATOM      4  C   UNL     1     -35.341  23.122   4.844  0.00  0.00    +0.079 C 
ATOM      5  C   UNL     1     -35.770  23.950   2.615  0.00  0.00    +0.027 C 
ATOM      6  C   UNL     1     -35.707  22.889   3.518  0.00  0.00    +0.008 C 
ENDROOT
BRANCH   2   9
ATOM      7  O   UNL     1     -34.601  26.460   1.279  0.00  0.00    -0.126 OA
ATOM      8  O   UNL     1     -36.526  27.080   2.131  0.00  0.00    -0.126 OA
ATOM      9  N   UNL     1     -35.535  26.314   2.103  0.00  0.00    +0.061 N 
ENDBRANCH   2   9
BRANCH   4  11
ATOM     10  O   UNL     1     -35.345  22.117   7.014  0.00  0.00    -0.245 OA
ATOM     11  C   UNL     1     -35.275  22.016   5.785  0.00  0.00    +0.338 C 
BRANCH  11  12
ATOM     12  O   UNL     1     -35.125  20.814   5.166  0.00  0.00    -0.477 OA
ATOM     13  H   UNL     1     -34.937  20.047   5.670  0.00  0.00    +0.295 HD
ENDBRANCH  11  12
ENDBRANCH   4  11
BRANCH   1  14
ATOM     14  O   UNL     1     -34.793  26.765   4.810  0.00  0.00    -0.422 OA
BRANCH  14  16
ATOM     15  O   UNL     1     -32.986  26.683   6.291  0.00  0.00    -0.250 OA
ATOM     16  C   UNL     1     -33.458  26.904   5.184  0.00  0.00    +0.322 C 
BRANCH  16  17
ATOM     17  C   UNL     1     -32.685  27.413   3.987  0.00  0.00    +0.110 C 
BRANCH  17  18
ATOM     18  C   UNL     1     -33.057  28.845   3.598  0.00  0.00    +0.012 C 
BRANCH  18  19
ATOM     19  C   UNL     1     -32.018  29.866   4.073  0.00  0.00    +0.001 C 
BRANCH  19  20
ATOM     20  C   UNL     1     -32.345  30.476   5.438  0.00  0.00    +0.000 C 
BRANCH  20  21
ATOM     21  C   UNL     1     -31.529  29.876   6.586  0.00  0.00    +0.000 C 
BRANCH  21  22
ATOM     22  C   UNL     1     -30.068  29.671   6.179  0.00  0.00    +0.000 C 
ATOM     23  C   UNL     1     -29.645  28.219   6.332  0.00  0.00    +0.000 C 
ENDBRANCH  21  22
ENDBRANCH  20  21
ENDBRANCH  19  20
ENDBRANCH  18  19
ENDBRANCH  17  18
ENDBRANCH  16  17
ENDBRANCH  14  16
ENDBRANCH   1  14
TORSDOF 11
ENDMDL
MODEL 6
REMARK VINA RESULT:      -5.4      3.243      7.195
REMARK  Name = 20112083
REMARK  11 active torsions:
REMARK  status: ('A' for Active; 'I' for Inactive)
REMARK    1  A    between atoms: C_1  and  O_14
REMARK    2  A    between atoms: C_2  and  N_9
REMARK    3  A    between atoms: C_4  and  C_11
REMARK    4  A    between atoms: C_11  and  O_12
REMARK    5  A    between atoms: O_14  and  C_16
REMARK    6  A    between atoms: C_16  and  C_17
REMARK    7  A    between atoms: C_17  and  C_18
REMARK    8  A    between atoms: C_18  and  C_19
REMARK    9  A    between atoms: C_19  and  C_20
REMARK   10  A    between atoms: C_20  and  C_21
REMARK   11  A    between atoms: C_21  and  C_22
REMARK                            x       y       z     vdW  Elec       q    Type
REMARK                         _______ _______ _______ _____ _____    ______ ____
ROOT
ATOM      1  C   UNL     1     -35.132  25.540   4.443  0.00  0.00    +0.171 C 
ATOM      2  C   UNL     1     -35.666  25.406   3.162  0.00  0.00    +0.177 C 
ATOM      3  C   UNL     1     -35.021  24.423   5.273  0.00  0.00    +0.046 C 
ATOM      4  C   UNL     1     -35.446  23.174   4.820  0.00  0.00    +0.079 C 
ATOM      5  C   UNL     1     -36.091  24.158   2.710  0.00  0.00    +0.027 C 
ATOM      6  C   UNL     1     -35.980  23.041   3.539  0.00  0.00    +0.008 C 
ENDROOT
BRANCH   2   9
ATOM      7  O   UNL     1     -34.778  26.918   1.663  0.00  0.00    -0.126 OA
ATOM      8  O   UNL     1     -36.894  27.111   2.212  0.00  0.00    -0.126 OA
ATOM      9  N   UNL     1     -35.785  26.534   2.303  0.00  0.00    +0.061 N 
ENDBRANCH   2   9
BRANCH   4  11
ATOM     10  O   UNL     1     -35.296  22.035   6.918  0.00  0.00    -0.245 OA
ATOM     11  C   UNL     1     -35.330  22.010   5.684  0.00  0.00    +0.338 C 
BRANCH  11  12
ATOM     12  O   UNL     1     -35.260  20.846   4.982  0.00  0.00    -0.477 OA
ATOM     13  H   UNL     1     -35.219  20.027   5.436  0.00  0.00    +0.295 HD
ENDBRANCH  11  12
ENDBRANCH   4  11
BRANCH   1  14
ATOM     14  O   UNL     1     -34.700  26.780   4.919  0.00  0.00    -0.422 OA
BRANCH  14  16
ATOM     15  O   UNL     1     -32.547  26.733   4.007  0.00  0.00    -0.250 OA
ATOM     16  C   UNL     1     -33.312  26.896   4.948  0.00  0.00    +0.322 C 
BRANCH  16  17
ATOM     17  C   UNL     1     -32.898  27.229   6.366  0.00  0.00    +0.110 C 
BRANCH  17  18
ATOM     18  C   UNL     1     -31.590  28.019   6.439  0.00  0.00    +0.012 C 
BRANCH  18  19
ATOM     19  C   UNL     1     -31.825  29.532   6.490  0.00  0.00    +0.001 C 
BRANCH  19  20
ATOM     20  C   UNL     1     -30.823  30.332   5.653  0.00  0.00    +0.000 C 
BRANCH  20  21
ATOM     21  C   UNL     1     -31.482  31.216   4.593  0.00  0.00    +0.000 C 
BRANCH  21  22
ATOM     22  C   UNL     1     -32.843  30.657   4.173  0.00  0.00    +0.000 C 
ATOM     23  C   UNL     1     -33.433  31.439   3.010  0.00  0.00    +0.000 C 
ENDBRANCH  21  22
ENDBRANCH  20  21
ENDBRANCH  19  20
ENDBRANCH  18  19
ENDBRANCH  17  18
ENDBRANCH  16  17
ENDBRANCH  14  16
ENDBRANCH   1  14
TORSDOF 11
ENDMDL
MODEL 7
REMARK VINA RESULT:      -5.3      2.050      3.323
REMARK  Name = 20112083
REMARK  11 active torsions:
REMARK  status: ('A' for Active; 'I' for Inactive)
REMARK    1  A    between atoms: C_1  and  O_14
REMARK    2  A    between atoms: C_2  and  N_9
REMARK    3  A    between atoms: C_4  and  C_11
REMARK    4  A    between atoms: C_11  and  O_12
REMARK    5  A    between atoms: O_14  and  C_16
REMARK    6  A    between atoms: C_16  and  C_17
REMARK    7  A    between atoms: C_17  and  C_18
REMARK    8  A    between atoms: C_18  and  C_19
REMARK    9  A    between atoms: C_19  and  C_20
REMARK   10  A    between atoms: C_20  and  C_21
REMARK   11  A    between atoms: C_21  and  C_22
REMARK                            x       y       z     vdW  Elec       q    Type
REMARK                         _______ _______ _______ _____ _____    ______ ____
ROOT
ATOM      1  C   UNL     1     -36.673  23.878   2.907  0.00  0.00    +0.171 C 
ATOM      2  C   UNL     1     -36.696  25.177   3.414  0.00  0.00    +0.177 C 
ATOM      3  C   UNL     1     -36.227  22.825   3.706  0.00  0.00    +0.046 C 
ATOM      4  C   UNL     1     -35.803  23.072   5.012  0.00  0.00    +0.079 C 
ATOM      5  C   UNL     1     -36.272  25.424   4.719  0.00  0.00    +0.027 C 
ATOM      6  C   UNL     1     -35.826  24.371   5.518  0.00  0.00    +0.008 C 
ENDROOT
BRANCH   2   9
ATOM      7  O   UNL     1     -38.380  26.487   2.538  0.00  0.00    -0.126 OA
ATOM      8  O   UNL     1     -36.303  26.961   2.007  0.00  0.00    -0.126 OA
ATOM      9  N   UNL     1     -37.149  26.262   2.613  0.00  0.00    +0.061 N 
ENDBRANCH   2   9
BRANCH   4  11
ATOM     10  O   UNL     1     -35.100  22.044   7.054  0.00  0.00    -0.245 OA
ATOM     11  C   UNL     1     -35.339  21.974   5.845  0.00  0.00    +0.338 C 
BRANCH  11  12
ATOM     12  O   UNL     1     -35.188  20.817   5.144  0.00  0.00    -0.477 OA
ATOM     13  H   UNL     1     -34.365  20.614   4.745  0.00  0.00    +0.295 HD
ENDBRANCH  11  12
ENDBRANCH   4  11
BRANCH   1  14
ATOM     14  O   UNL     1     -37.092  23.606   1.602  0.00  0.00    -0.422 OA
BRANCH  14  16
ATOM     15  O   UNL     1     -35.283  24.286   0.287  0.00  0.00    -0.250 OA
ATOM     16  C   UNL     1     -36.031  23.420   0.719  0.00  0.00    +0.322 C 
BRANCH  16  17
ATOM     17  C   UNL     1     -35.977  21.952   0.352  0.00  0.00    +0.110 C 
BRANCH  17  18
ATOM     18  C   UNL     1     -34.606  21.321   0.602  0.00  0.00    +0.012 C 
BRANCH  18  19
ATOM     19  C   UNL     1     -34.647  20.258   1.705  0.00  0.00    +0.001 C 
BRANCH  19  20
ATOM     20  C   UNL     1     -33.698  19.084   1.453  0.00  0.00    +0.000 C 
BRANCH  20  21
ATOM     21  C   UNL     1     -32.452  19.467   0.651  0.00  0.00    +0.000 C 
BRANCH  21  22
ATOM     22  C   UNL     1     -31.405  18.352   0.688  0.00  0.00    +0.000 C 
ATOM     23  C   UNL     1     -30.053  18.839   0.190  0.00  0.00    +0.000 C 
ENDBRANCH  21  22
ENDBRANCH  20  21
ENDBRANCH  19  20
ENDBRANCH  18  19
ENDBRANCH  17  18
ENDBRANCH  16  17
ENDBRANCH  14  16
ENDBRANCH   1  14
TORSDOF 11
ENDMDL
MODEL 8
REMARK VINA RESULT:      -5.3      2.545      4.771
REMARK  Name = 20112083
REMARK  11 active torsions:
REMARK  status: ('A' for Active; 'I' for Inactive)
REMARK    1  A    between atoms: C_1  and  O_14
REMARK    2  A    between atoms: C_2  and  N_9
REMARK    3  A    between atoms: C_4  and  C_11
REMARK    4  A    between atoms: C_11  and  O_12
REMARK    5  A    between atoms: O_14  and  C_16
REMARK    6  A    between atoms: C_16  and  C_17
REMARK    7  A    between atoms: C_17  and  C_18
REMARK    8  A    between atoms: C_18  and  C_19
REMARK    9  A    between atoms: C_19  and  C_20
REMARK   10  A    between atoms: C_20  and  C_21
REMARK   11  A    between atoms: C_21  and  C_22
REMARK                            x       y       z     vdW  Elec       q    Type
REMARK                         _______ _______ _______ _____ _____    ______ ____
ROOT
ATOM      1  C   UNL     1     -35.143  24.364   3.504  0.00  0.00    +0.171 C 
ATOM      2  C   UNL     1     -35.199  24.422   4.896  0.00  0.00    +0.177 C 
ATOM      3  C   UNL     1     -35.278  23.138   2.851  0.00  0.00    +0.046 C 
ATOM      4  C   UNL     1     -35.468  21.972   3.592  0.00  0.00    +0.079 C 
ATOM      5  C   UNL     1     -35.389  23.257   5.636  0.00  0.00    +0.027 C 
ATOM      6  C   UNL     1     -35.524  22.031   4.984  0.00  0.00    +0.008 C 
ENDROOT
BRANCH   2   9
ATOM      7  O   UNL     1     -36.072  26.399   5.704  0.00  0.00    -0.126 OA
ATOM      8  O   UNL     1     -33.941  25.987   6.031  0.00  0.00    -0.126 OA
ATOM      9  N   UNL     1     -35.064  25.664   5.578  0.00  0.00    +0.061 N 
ENDBRANCH   2   9
BRANCH   4  11
ATOM     10  O   UNL     1     -34.680  19.947   2.590  0.00  0.00    -0.245 OA
ATOM     11  C   UNL     1     -35.609  20.695   2.911  0.00  0.00    +0.338 C 
BRANCH  11  12
ATOM     12  O   UNL     1     -36.909  20.384   2.652  0.00  0.00    -0.477 OA
ATOM     13  H   UNL     1     -37.539  20.388   3.346  0.00  0.00    +0.295 HD
ENDBRANCH  11  12
ENDBRANCH   4  11
BRANCH   1  14
ATOM     14  O   UNL     1     -34.953  25.519   2.740  0.00  0.00    -0.422 OA
BRANCH  14  16
ATOM     15  O   UNL     1     -32.628  25.643   2.950  0.00  0.00    -0.250 OA
ATOM     16  C   UNL     1     -33.647  25.652   2.274  0.00  0.00    +0.322 C 
BRANCH  16  17
ATOM     17  C   UNL     1     -33.703  25.846   0.773  0.00  0.00    +0.110 C 
BRANCH  17  18
ATOM     18  C   UNL     1     -33.640  24.531  -0.005  0.00  0.00    +0.012 C 
BRANCH  18  19
ATOM     19  C   UNL     1     -32.200  24.094  -0.295  0.00  0.00    +0.001 C 
BRANCH  19  20
ATOM     20  C   UNL     1     -32.096  22.671  -0.850  0.00  0.00    +0.000 C 
BRANCH  20  21
ATOM     21  C   UNL     1     -33.029  21.676  -0.156  0.00  0.00    +0.000 C 
BRANCH  21  22
ATOM     22  C   UNL     1     -32.292  20.383   0.201  0.00  0.00    +0.000 C 
ATOM     23  C   UNL     1     -30.928  20.315  -0.468  0.00  0.00    +0.000 C 
ENDBRANCH  21  22
ENDBRANCH  20  21
ENDBRANCH  19  20
ENDBRANCH  18  19
ENDBRANCH  17  18
ENDBRANCH  16  17
ENDBRANCH  14  16
ENDBRANCH   1  14
TORSDOF 11
ENDMDL
MODEL 9
REMARK VINA RESULT:      -5.3      3.169      5.981
REMARK  Name = 20112083
REMARK  11 active torsions:
REMARK  status: ('A' for Active; 'I' for Inactive)
REMARK    1  A    between atoms: C_1  and  O_14
REMARK    2  A    between atoms: C_2  and  N_9
REMARK    3  A    between atoms: C_4  and  C_11
REMARK    4  A    between atoms: C_11  and  O_12
REMARK    5  A    between atoms: O_14  and  C_16
REMARK    6  A    between atoms: C_16  and  C_17
REMARK    7  A    between atoms: C_17  and  C_18
REMARK    8  A    between atoms: C_18  and  C_19
REMARK    9  A    between atoms: C_19  and  C_20
REMARK   10  A    between atoms: C_20  and  C_21
REMARK   11  A    between atoms: C_21  and  C_22
REMARK                            x       y       z     vdW  Elec       q    Type
REMARK                         _______ _______ _______ _____ _____    ______ ____
ROOT
ATOM      1  C   UNL     1     -36.385  23.579   3.831  0.00  0.00    +0.171 C 
ATOM      2  C   UNL     1     -35.496  23.319   4.874  0.00  0.00    +0.177 C 
ATOM      3  C   UNL     1     -36.335  24.802   3.161  0.00  0.00    +0.046 C 
ATOM      4  C   UNL     1     -35.397  25.764   3.535  0.00  0.00    +0.079 C 
ATOM      5  C   UNL     1     -34.558  24.281   5.248  0.00  0.00    +0.027 C 
ATOM      6  C   UNL     1     -34.508  25.503   4.577  0.00  0.00    +0.008 C 
ENDROOT
BRANCH   2   9
ATOM      7  O   UNL     1     -36.091  22.026   6.689  0.00  0.00    -0.126 OA
ATOM      8  O   UNL     1     -35.004  21.072   5.037  0.00  0.00    -0.126 OA
ATOM      9  N   UNL     1     -35.532  22.078   5.567  0.00  0.00    +0.061 N 
ENDBRANCH   2   9
BRANCH   4  11
ATOM     10  O   UNL     1     -35.421  27.186   1.612  0.00  0.00    -0.245 OA
ATOM     11  C   UNL     1     -35.345  27.037   2.835  0.00  0.00    +0.338 C 
BRANCH  11  12
ATOM     12  O   UNL     1     -35.201  28.092   3.684  0.00  0.00    -0.477 OA
ATOM     13  H   UNL     1     -34.928  27.948   4.569  0.00  0.00    +0.295 HD
ENDBRANCH  11  12
ENDBRANCH   4  11
BRANCH   1  14
ATOM     14  O   UNL     1     -37.334  22.632   3.439  0.00  0.00    -0.422 OA
BRANCH  14  16
ATOM     15  O   UNL     1     -35.947  21.625   1.849  0.00  0.00    -0.250 OA
ATOM     16  C   UNL     1     -37.038  22.044   2.212  0.00  0.00    +0.322 C 
BRANCH  16  17
ATOM     17  C   UNL     1     -38.300  22.040   1.376  0.00  0.00    +0.110 C 
BRANCH  17  18
ATOM     18  C   UNL     1     -39.552  22.397   2.179  0.00  0.00    +0.012 C 
BRANCH  18  19
ATOM     19  C   UNL     1     -40.240  23.661   1.654  0.00  0.00    +0.001 C 
BRANCH  19  20
ATOM     20  C   UNL     1     -39.984  24.897   2.520  0.00  0.00    +0.000 C 
BRANCH  20  21
ATOM     21  C   UNL     1     -40.318  26.215   1.817  0.00  0.00    +0.000 C 
BRANCH  21  22
ATOM     22  C   UNL     1     -41.681  26.749   2.261  0.00  0.00    +0.000 C 
ATOM     23  C   UNL     1     -41.824  26.722   3.775  0.00  0.00    +0.000 C 
ENDBRANCH  21  22
ENDBRANCH  20  21
ENDBRANCH  19  20
ENDBRANCH  18  19
ENDBRANCH  17  18
ENDBRANCH  16  17
ENDBRANCH  14  16
ENDBRANCH   1  14
TORSDOF 11
ENDMDL
