MODEL 1
REMARK VINA RESULT:      -5.6      0.000      0.000
REMARK  Name = 56842738
REMARK  12 active torsions:
REMARK  status: ('A' for Active; 'I' for Inactive)
REMARK    1  A    between atoms: C_2  and  O_7
REMARK    2  A    between atoms: C_3  and  O_9
REMARK    3  A    between atoms: C_4  and  O_11
REMARK    4  A    between atoms: C_5  and  C_14
REMARK    5  A    between atoms: C_6  and  O_17
REMARK    6  A    between atoms: C_14  and  O_15
REMARK    7  A    between atoms: O_17  and  C_18
REMARK    8  A    between atoms: C_19  and  N_24
REMARK    9  A    between atoms: N_24  and  C_25
REMARK   10  A    between atoms: N_24  and  C_28
REMARK   11  A    between atoms: C_25  and  C_27
REMARK   12  A    between atoms: C_28  and  C_30
REMARK                            x       y       z     vdW  Elec       q    Type
REMARK                         _______ _______ _______ _____ _____    ______ ____
ROOT
ATOM      1  O   UNL     1     -38.323  24.293   2.740  0.00  0.00    -0.307 OA
ATOM      2  C   UNL     1     -39.396  22.003   1.377  0.00  0.00    +0.173 C 
ATOM      3  C   UNL     1     -40.110  23.355   1.387  0.00  0.00    +0.178 C 
ATOM      4  C   UNL     1     -38.425  21.877   2.551  0.00  0.00    +0.210 C 
ATOM      5  C   UNL     1     -39.112  24.491   1.573  0.00  0.00    +0.246 C 
ATOM      6  C   UNL     1     -37.530  23.112   2.665  0.00  0.00    +0.318 C 
ENDROOT
BRANCH   2   7
ATOM      7  O   UNL     1     -40.388  20.979   1.466  0.00  0.00    -0.379 OA
ATOM      8  H   UNL     1     -40.983  21.038   0.702  0.00  0.00    +0.211 HD
ENDBRANCH   2   7
BRANCH   3   9
ATOM      9  O   UNL     1     -40.783  23.536   0.142  0.00  0.00    -0.379 OA
ATOM     10  H   UNL     1     -40.190  23.290  -0.585  0.00  0.00    +0.211 HD
ENDBRANCH   3   9
BRANCH   4  11
ATOM     11  O   UNL     1     -37.591  20.735   2.354  0.00  0.00    -0.377 OA
ATOM     12  H   UNL     1     -37.552  20.219   3.174  0.00  0.00    +0.211 HD
ENDBRANCH   4  11
BRANCH   5  14
ATOM     13  O   UNL     1     -39.326  26.884   1.652  0.00  0.00    -0.247 OA
ATOM     14  C   UNL     1     -39.816  25.781   1.849  0.00  0.00    +0.347 C 
BRANCH  14  15
ATOM     15  O   UNL     1     -41.061  25.524   2.341  0.00  0.00    -0.443 OA
ATOM     16  C   UNL     1     -41.518  26.424   3.356  0.00  0.00    +0.256 C 
ENDBRANCH  14  15
ENDBRANCH   5  14
BRANCH   6  17
ATOM     17  O   UNL     1     -36.747  22.979   3.850  0.00  0.00    -0.451 OA
BRANCH  17  18
ATOM     18  C   UNL     1     -35.856  23.985   4.111  0.00  0.00    +0.141 C 
ATOM     19  C   UNL     1     -34.041  26.035   4.641  0.00  0.00    +0.048 C 
ATOM     20  C   UNL     1     -34.851  24.281   3.191  0.00  0.00    +0.038 C 
ATOM     21  C   UNL     1     -35.955  24.714   5.296  0.00  0.00    +0.038 C 
ATOM     22  C   UNL     1     -33.943  25.307   3.456  0.00  0.00    +0.018 C 
ATOM     23  C   UNL     1     -35.047  25.738   5.561  0.00  0.00    +0.018 C 
BRANCH  19  24
ATOM     24  N   UNL     1     -33.124  27.073   4.910  0.00  0.00    -0.305 N 
BRANCH  24  25
ATOM     25  C   UNL     1     -32.582  27.870   3.827  0.00  0.00    +0.108 C 
BRANCH  25  27
ATOM     26 CL   UNL     1     -32.978  30.573   3.868  0.00  0.00    -0.112 Cl
ATOM     27  C   UNL     1     -33.560  28.955   3.403  0.00  0.00    +0.116 C 
ENDBRANCH  25  27
ENDBRANCH  24  25
BRANCH  24  28
ATOM     28  C   UNL     1     -32.718  27.360   6.271  0.00  0.00    +0.108 C 
BRANCH  28  30
ATOM     29 CL   UNL     1     -31.657  29.743   7.084  0.00  0.00    -0.112 Cl
ATOM     30  C   UNL     1     -31.426  28.163   6.296  0.00  0.00    +0.116 C 
ENDBRANCH  28  30
ENDBRANCH  24  28
ENDBRANCH  19  24
ENDBRANCH  17  18
ENDBRANCH   6  17
TORSDOF 12
ENDMDL
MODEL 2
REMARK VINA RESULT:      -5.5      5.576      9.573
REMARK  Name = 56842738
REMARK  12 active torsions:
REMARK  status: ('A' for Active; 'I' for Inactive)
REMARK    1  A    between atoms: C_2  and  O_7
REMARK    2  A    between atoms: C_3  and  O_9
REMARK    3  A    between atoms: C_4  and  O_11
REMARK    4  A    between atoms: C_5  and  C_14
REMARK    5  A    between atoms: C_6  and  O_17
REMARK    6  A    between atoms: C_14  and  O_15
REMARK    7  A    between atoms: O_17  and  C_18
REMARK    8  A    between atoms: C_19  and  N_24
REMARK    9  A    between atoms: N_24  and  C_25
REMARK   10  A    between atoms: N_24  and  C_28
REMARK   11  A    between atoms: C_25  and  C_27
REMARK   12  A    between atoms: C_28  and  C_30
REMARK                            x       y       z     vdW  Elec       q    Type
REMARK                         _______ _______ _______ _____ _____    ______ ____
ROOT
ATOM      1  O   UNL     1     -30.653  27.817   6.322  0.00  0.00    -0.307 OA
ATOM      2  C   UNL     1     -30.738  30.305   4.888  0.00  0.00    +0.173 C 
ATOM      3  C   UNL     1     -29.506  29.860   5.676  0.00  0.00    +0.178 C 
ATOM      4  C   UNL     1     -32.001  29.602   5.385  0.00  0.00    +0.210 C 
ATOM      5  C   UNL     1     -29.448  28.340   5.775  0.00  0.00    +0.246 C 
ATOM      6  C   UNL     1     -31.786  28.093   5.503  0.00  0.00    +0.318 C 
ENDROOT
BRANCH   2   7
ATOM      7  O   UNL     1     -30.881  31.717   5.052  0.00  0.00    -0.379 OA
ATOM      8  H   UNL     1     -31.275  32.098   4.252  0.00  0.00    +0.211 HD
ENDBRANCH   2   7
BRANCH   3   9
ATOM      9  O   UNL     1     -28.333  30.320   5.007  0.00  0.00    -0.379 OA
ATOM     10  H   UNL     1     -28.567  30.621   4.114  0.00  0.00    +0.211 HD
ENDBRANCH   3   9
BRANCH   4  11
ATOM     11  O   UNL     1     -33.065  29.832   4.461  0.00  0.00    -0.377 OA
ATOM     12  H   UNL     1     -33.813  30.238   4.924  0.00  0.00    +0.211 HD
ENDBRANCH   4  11
BRANCH   5  14
ATOM     13  O   UNL     1     -27.713  28.681   7.403  0.00  0.00    -0.247 OA
ATOM     14  C   UNL     1     -28.408  27.908   6.757  0.00  0.00    +0.347 C 
BRANCH  14  15
ATOM     15  O   UNL     1     -28.367  26.546   6.808  0.00  0.00    -0.443 OA
ATOM     16  C   UNL     1     -27.190  25.988   7.400  0.00  0.00    +0.256 C 
ENDBRANCH  14  15
ENDBRANCH   5  14
BRANCH   6  17
ATOM     17  O   UNL     1     -32.956  27.526   6.091  0.00  0.00    -0.451 OA
BRANCH  17  18
ATOM     18  C   UNL     1     -33.648  26.624   5.329  0.00  0.00    +0.141 C 
ATOM     19  C   UNL     1     -35.057  24.784   3.778  0.00  0.00    +0.048 C 
ATOM     20  C   UNL     1     -33.258  26.380   4.012  0.00  0.00    +0.038 C 
ATOM     21  C   UNL     1     -34.741  25.948   5.870  0.00  0.00    +0.038 C 
ATOM     22  C   UNL     1     -33.964  25.459   3.237  0.00  0.00    +0.018 C 
ATOM     23  C   UNL     1     -35.446  25.029   5.094  0.00  0.00    +0.018 C 
BRANCH  19  24
ATOM     24  N   UNL     1     -35.770  23.852   2.993  0.00  0.00    -0.305 N 
BRANCH  24  25
ATOM     25  C   UNL     1     -36.425  22.719   3.616  0.00  0.00    +0.108 C 
BRANCH  25  27
ATOM     26 CL   UNL     1     -35.098  21.458   5.644  0.00  0.00    -0.112 Cl
ATOM     27  C   UNL     1     -35.432  21.603   3.901  0.00  0.00    +0.116 C 
ENDBRANCH  25  27
ENDBRANCH  24  25
BRANCH  24  28
ATOM     28  C   UNL     1     -35.861  24.020   1.557  0.00  0.00    +0.108 C 
BRANCH  28  30
ATOM     29 CL   UNL     1     -37.789  25.904   2.007  0.00  0.00    -0.112 Cl
ATOM     30  C   UNL     1     -37.265  24.436   1.145  0.00  0.00    +0.116 C 
ENDBRANCH  28  30
ENDBRANCH  24  28
ENDBRANCH  19  24
ENDBRANCH  17  18
ENDBRANCH   6  17
TORSDOF 12
ENDMDL
MODEL 3
REMARK VINA RESULT:      -5.5      5.527      7.881
REMARK  Name = 56842738
REMARK  12 active torsions:
REMARK  status: ('A' for Active; 'I' for Inactive)
REMARK    1  A    between atoms: C_2  and  O_7
REMARK    2  A    between atoms: C_3  and  O_9
REMARK    3  A    between atoms: C_4  and  O_11
REMARK    4  A    between atoms: C_5  and  C_14
REMARK    5  A    between atoms: C_6  and  O_17
REMARK    6  A    between atoms: C_14  and  O_15
REMARK    7  A    between atoms: O_17  and  C_18
REMARK    8  A    between atoms: C_19  and  N_24
REMARK    9  A    between atoms: N_24  and  C_25
REMARK   10  A    between atoms: N_24  and  C_28
REMARK   11  A    between atoms: C_25  and  C_27
REMARK   12  A    between atoms: C_28  and  C_30
REMARK                            x       y       z     vdW  Elec       q    Type
REMARK                         _______ _______ _______ _____ _____    ______ ____
ROOT
ATOM      1  O   UNL     1     -36.641  23.100   3.744  0.00  0.00    -0.307 OA
ATOM      2  C   UNL     1     -38.068  25.511   3.109  0.00  0.00    +0.173 C 
ATOM      3  C   UNL     1     -37.241  25.365   4.387  0.00  0.00    +0.178 C 
ATOM      4  C   UNL     1     -38.474  24.148   2.550  0.00  0.00    +0.210 C 
ATOM      5  C   UNL     1     -36.124  24.347   4.193  0.00  0.00    +0.246 C 
ATOM      6  C   UNL     1     -37.275  23.202   2.472  0.00  0.00    +0.318 C 
ENDROOT
BRANCH   2   7
ATOM      7  O   UNL     1     -39.240  26.265   3.426  0.00  0.00    -0.379 OA
ATOM      8  H   UNL     1     -39.918  25.673   3.787  0.00  0.00    +0.211 HD
ENDBRANCH   2   7
BRANCH   3   9
ATOM      9  O   UNL     1     -36.659  26.627   4.711  0.00  0.00    -0.379 OA
ATOM     10  H   UNL     1     -35.761  26.673   4.347  0.00  0.00    +0.211 HD
ENDBRANCH   3   9
BRANCH   4  11
ATOM     11  O   UNL     1     -38.999  24.314   1.233  0.00  0.00    -0.377 OA
ATOM     12  H   UNL     1     -39.729  23.691   1.095  0.00  0.00    +0.211 HD
ENDBRANCH   4  11
BRANCH   5  14
ATOM     13  O   UNL     1     -34.633  24.693   6.046  0.00  0.00    -0.247 OA
ATOM     14  C   UNL     1     -35.482  24.004   5.499  0.00  0.00    +0.347 C 
BRANCH  14  15
ATOM     15  O   UNL     1     -35.991  22.827   5.961  0.00  0.00    -0.443 OA
ATOM     16  C   UNL     1     -35.029  21.799   6.217  0.00  0.00    +0.256 C 
ENDBRANCH  14  15
ENDBRANCH   5  14
BRANCH   6  17
ATOM     17  O   UNL     1     -37.751  21.920   2.066  0.00  0.00    -0.451 OA
BRANCH  17  18
ATOM     18  C   UNL     1     -36.807  21.015   1.664  0.00  0.00    +0.141 C 
ATOM     19  C   UNL     1     -34.883  19.169   0.843  0.00  0.00    +0.048 C 
ATOM     20  C   UNL     1     -35.630  20.863   2.396  0.00  0.00    +0.038 C 
ATOM     21  C   UNL     1     -37.023  20.244   0.521  0.00  0.00    +0.038 C 
ATOM     22  C   UNL     1     -34.668  19.939   1.985  0.00  0.00    +0.018 C 
ATOM     23  C   UNL     1     -36.060  19.322   0.111  0.00  0.00    +0.018 C 
BRANCH  19  24
ATOM     24  N   UNL     1     -33.911  18.235   0.428  0.00  0.00    -0.305 N 
BRANCH  24  25
ATOM     25  C   UNL     1     -32.727  18.002   1.233  0.00  0.00    +0.108 C 
BRANCH  25  27
ATOM     26 CL   UNL     1     -31.563  20.186   0.077  0.00  0.00    -0.112 Cl
ATOM     27  C   UNL     1     -31.474  18.460   0.505  0.00  0.00    +0.116 C 
ENDBRANCH  25  27
ENDBRANCH  24  25
BRANCH  24  28
ATOM     28  C   UNL     1     -34.086  17.491  -0.803  0.00  0.00    +0.108 C 
BRANCH  28  30
ATOM     29 CL   UNL     1     -35.735  15.449  -0.043  0.00  0.00    -0.112 Cl
ATOM     30  C   UNL     1     -34.113  15.994  -0.537  0.00  0.00    +0.116 C 
ENDBRANCH  28  30
ENDBRANCH  24  28
ENDBRANCH  19  24
ENDBRANCH  17  18
ENDBRANCH   6  17
TORSDOF 12
ENDMDL
MODEL 4
REMARK VINA RESULT:      -5.5      0.246      1.838
REMARK  Name = 56842738
REMARK  12 active torsions:
REMARK  status: ('A' for Active; 'I' for Inactive)
REMARK    1  A    between atoms: C_2  and  O_7
REMARK    2  A    between atoms: C_3  and  O_9
REMARK    3  A    between atoms: C_4  and  O_11
REMARK    4  A    between atoms: C_5  and  C_14
REMARK    5  A    between atoms: C_6  and  O_17
REMARK    6  A    between atoms: C_14  and  O_15
REMARK    7  A    between atoms: O_17  and  C_18
REMARK    8  A    between atoms: C_19  and  N_24
REMARK    9  A    between atoms: N_24  and  C_25
REMARK   10  A    between atoms: N_24  and  C_28
REMARK   11  A    between atoms: C_25  and  C_27
REMARK   12  A    between atoms: C_28  and  C_30
REMARK                            x       y       z     vdW  Elec       q    Type
REMARK                         _______ _______ _______ _____ _____    ______ ____
ROOT
ATOM      1  O   UNL     1     -38.218  24.305   2.906  0.00  0.00    -0.307 OA
ATOM      2  C   UNL     1     -39.336  22.041   1.536  0.00  0.00    +0.173 C 
ATOM      3  C   UNL     1     -40.069  23.379   1.632  0.00  0.00    +0.178 C 
ATOM      4  C   UNL     1     -38.295  21.894   2.645  0.00  0.00    +0.210 C 
ATOM      5  C   UNL     1     -39.079  24.526   1.795  0.00  0.00    +0.246 C 
ATOM      6  C   UNL     1     -37.413  23.140   2.745  0.00  0.00    +0.318 C 
ENDROOT
BRANCH   2   7
ATOM      7  O   UNL     1     -40.306  20.997   1.651  0.00  0.00    -0.379 OA
ATOM      8  H   UNL     1     -39.856  20.138   1.669  0.00  0.00    +0.211 HD
ENDBRANCH   2   7
BRANCH   3   9
ATOM      9  O   UNL     1     -40.818  23.587   0.436  0.00  0.00    -0.379 OA
ATOM     10  H   UNL     1     -40.339  24.199  -0.144  0.00  0.00    +0.211 HD
ENDBRANCH   3   9
BRANCH   4  11
ATOM     11  O   UNL     1     -37.457  20.774   2.363  0.00  0.00    -0.377 OA
ATOM     12  H   UNL     1     -36.645  21.079   1.929  0.00  0.00    +0.211 HD
ENDBRANCH   4  11
BRANCH   5  14
ATOM     13  O   UNL     1     -39.406  26.907   1.816  0.00  0.00    -0.247 OA
ATOM     14  C   UNL     1     -39.784  25.794   2.153  0.00  0.00    +0.347 C 
BRANCH  14  15
ATOM     15  O   UNL     1     -40.890  25.506   2.898  0.00  0.00    -0.443 OA
ATOM     16  C   UNL     1     -41.591  26.638   3.421  0.00  0.00    +0.256 C 
ENDBRANCH  14  15
ENDBRANCH   5  14
BRANCH   6  17
ATOM     17  O   UNL     1     -36.558  22.984   3.877  0.00  0.00    -0.451 OA
BRANCH  17  18
ATOM     18  C   UNL     1     -35.692  24.011   4.136  0.00  0.00    +0.141 C 
ATOM     19  C   UNL     1     -33.926  26.104   4.664  0.00  0.00    +0.048 C 
ATOM     20  C   UNL     1     -35.835  24.767   5.299  0.00  0.00    +0.038 C 
ATOM     21  C   UNL     1     -34.666  24.301   3.237  0.00  0.00    +0.038 C 
ATOM     22  C   UNL     1     -34.951  25.813   5.564  0.00  0.00    +0.018 C 
ATOM     23  C   UNL     1     -33.783  25.349   3.501  0.00  0.00    +0.018 C 
BRANCH  19  24
ATOM     24  N   UNL     1     -33.031  27.162   4.932  0.00  0.00    -0.305 N 
BRANCH  24  25
ATOM     25  C   UNL     1     -32.591  27.425   6.289  0.00  0.00    +0.108 C 
BRANCH  25  27
ATOM     26 CL   UNL     1     -31.785  29.996   6.738  0.00  0.00    -0.112 Cl
ATOM     27  C   UNL     1     -31.363  28.322   6.300  0.00  0.00    +0.116 C 
ENDBRANCH  25  27
ENDBRANCH  24  25
BRANCH  24  28
ATOM     28  C   UNL     1     -32.535  27.994   3.854  0.00  0.00    +0.108 C 
BRANCH  28  30
ATOM     29 CL   UNL     1     -33.068  30.630   3.369  0.00  0.00    -0.112 Cl
ATOM     30  C   UNL     1     -33.618  28.936   3.351  0.00  0.00    +0.116 C 
ENDBRANCH  28  30
ENDBRANCH  24  28
ENDBRANCH  19  24
ENDBRANCH  17  18
ENDBRANCH   6  17
TORSDOF 12
ENDMDL
MODEL 5
REMARK VINA RESULT:      -5.5      5.544      7.857
REMARK  Name = 56842738
REMARK  12 active torsions:
REMARK  status: ('A' for Active; 'I' for Inactive)
REMARK    1  A    between atoms: C_2  and  O_7
REMARK    2  A    between atoms: C_3  and  O_9
REMARK    3  A    between atoms: C_4  and  O_11
REMARK    4  A    between atoms: C_5  and  C_14
REMARK    5  A    between atoms: C_6  and  O_17
REMARK    6  A    between atoms: C_14  and  O_15
REMARK    7  A    between atoms: O_17  and  C_18
REMARK    8  A    between atoms: C_19  and  N_24
REMARK    9  A    between atoms: N_24  and  C_25
REMARK   10  A    between atoms: N_24  and  C_28
REMARK   11  A    between atoms: C_25  and  C_27
REMARK   12  A    between atoms: C_28  and  C_30
REMARK                            x       y       z     vdW  Elec       q    Type
REMARK                         _______ _______ _______ _____ _____    ______ ____
ROOT
ATOM      1  O   UNL     1     -36.668  23.064   3.751  0.00  0.00    -0.307 OA
ATOM      2  C   UNL     1     -38.074  25.479   3.087  0.00  0.00    +0.173 C 
ATOM      3  C   UNL     1     -37.243  25.344   4.363  0.00  0.00    +0.178 C 
ATOM      4  C   UNL     1     -38.495  24.112   2.548  0.00  0.00    +0.210 C 
ATOM      5  C   UNL     1     -36.137  24.312   4.179  0.00  0.00    +0.246 C 
ATOM      6  C   UNL     1     -37.306  23.153   2.480  0.00  0.00    +0.318 C 
ENDROOT
BRANCH   2   7
ATOM      7  O   UNL     1     -39.237  26.249   3.396  0.00  0.00    -0.379 OA
ATOM      8  H   UNL     1     -39.232  27.067   2.875  0.00  0.00    +0.211 HD
ENDBRANCH   2   7
BRANCH   3   9
ATOM      9  O   UNL     1     -36.647  26.604   4.666  0.00  0.00    -0.379 OA
ATOM     10  H   UNL     1     -36.630  27.155   3.868  0.00  0.00    +0.211 HD
ENDBRANCH   3   9
BRANCH   4  11
ATOM     11  O   UNL     1     -39.024  24.265   1.231  0.00  0.00    -0.377 OA
ATOM     12  H   UNL     1     -38.937  25.190   0.953  0.00  0.00    +0.211 HD
ENDBRANCH   4  11
BRANCH   5  14
ATOM     13  O   UNL     1     -34.640  24.673   6.025  0.00  0.00    -0.247 OA
ATOM     14  C   UNL     1     -35.494  23.981   5.487  0.00  0.00    +0.347 C 
BRANCH  14  15
ATOM     15  O   UNL     1     -36.006  22.811   5.964  0.00  0.00    -0.443 OA
ATOM     16  C   UNL     1     -35.044  21.789   6.248  0.00  0.00    +0.256 C 
ENDBRANCH  14  15
ENDBRANCH   5  14
BRANCH   6  17
ATOM     17  O   UNL     1     -37.797  21.870   2.095  0.00  0.00    -0.451 OA
BRANCH  17  18
ATOM     18  C   UNL     1     -36.870  20.971   1.642  0.00  0.00    +0.141 C 
ATOM     19  C   UNL     1     -34.982  19.135   0.722  0.00  0.00    +0.048 C 
ATOM     20  C   UNL     1     -35.656  20.825   2.312  0.00  0.00    +0.038 C 
ATOM     21  C   UNL     1     -37.142  20.198   0.514  0.00  0.00    +0.038 C 
ATOM     22  C   UNL     1     -34.711  19.907   1.851  0.00  0.00    +0.018 C 
ATOM     23  C   UNL     1     -36.197  19.281   0.053  0.00  0.00    +0.018 C 
BRANCH  19  24
ATOM     24  N   UNL     1     -34.028  18.206   0.257  0.00  0.00    -0.305 N 
BRANCH  24  25
ATOM     25  C   UNL     1     -34.201  17.558  -1.029  0.00  0.00    +0.108 C 
BRANCH  25  27
ATOM     26 CL   UNL     1     -35.633  15.462  -0.021  0.00  0.00    -0.112 Cl
ATOM     27  C   UNL     1     -34.188  16.045  -0.885  0.00  0.00    +0.116 C 
ENDBRANCH  25  27
ENDBRANCH  24  25
BRANCH  24  28
ATOM     28  C   UNL     1     -32.861  17.891   1.055  0.00  0.00    +0.108 C 
BRANCH  28  30
ATOM     29 CL   UNL     1     -31.567  20.112   0.129  0.00  0.00    -0.112 Cl
ATOM     30  C   UNL     1     -31.586  18.347   0.360  0.00  0.00    +0.116 C 
ENDBRANCH  28  30
ENDBRANCH  24  28
ENDBRANCH  19  24
ENDBRANCH  17  18
ENDBRANCH   6  17
TORSDOF 12
ENDMDL
MODEL 6
REMARK VINA RESULT:      -5.5      5.536      9.424
REMARK  Name = 56842738
REMARK  12 active torsions:
REMARK  status: ('A' for Active; 'I' for Inactive)
REMARK    1  A    between atoms: C_2  and  O_7
REMARK    2  A    between atoms: C_3  and  O_9
REMARK    3  A    between atoms: C_4  and  O_11
REMARK    4  A    between atoms: C_5  and  C_14
REMARK    5  A    between atoms: C_6  and  O_17
REMARK    6  A    between atoms: C_14  and  O_15
REMARK    7  A    between atoms: O_17  and  C_18
REMARK    8  A    between atoms: C_19  and  N_24
REMARK    9  A    between atoms: N_24  and  C_25
REMARK   10  A    between atoms: N_24  and  C_28
REMARK   11  A    between atoms: C_25  and  C_27
REMARK   12  A    between atoms: C_28  and  C_30
REMARK                            x       y       z     vdW  Elec       q    Type
REMARK                         _______ _______ _______ _____ _____    ______ ____
ROOT
ATOM      1  O   UNL     1     -30.676  27.758   6.371  0.00  0.00    -0.307 OA
ATOM      2  C   UNL     1     -30.741  30.227   4.903  0.00  0.00    +0.173 C 
ATOM      3  C   UNL     1     -29.509  29.777   5.689  0.00  0.00    +0.178 C 
ATOM      4  C   UNL     1     -32.010  29.547   5.419  0.00  0.00    +0.210 C 
ATOM      5  C   UNL     1     -29.470  28.258   5.808  0.00  0.00    +0.246 C 
ATOM      6  C   UNL     1     -31.812  28.037   5.557  0.00  0.00    +0.318 C 
ENDROOT
BRANCH   2   7
ATOM      7  O   UNL     1     -30.865  31.643   5.049  0.00  0.00    -0.379 OA
ATOM      8  H   UNL     1     -30.956  31.864   5.989  0.00  0.00    +0.211 HD
ENDBRANCH   2   7
BRANCH   3   9
ATOM      9  O   UNL     1     -28.336  30.213   5.004  0.00  0.00    -0.379 OA
ATOM     10  H   UNL     1     -27.685  30.534   5.648  0.00  0.00    +0.211 HD
ENDBRANCH   3   9
BRANCH   4  11
ATOM     11  O   UNL     1     -33.077  29.777   4.500  0.00  0.00    -0.377 OA
ATOM     12  H   UNL     1     -32.953  29.222   3.715  0.00  0.00    +0.211 HD
ENDBRANCH   4  11
BRANCH   5  14
ATOM     13  O   UNL     1     -27.989  28.540   7.680  0.00  0.00    -0.247 OA
ATOM     14  C   UNL     1     -28.427  27.827   6.788  0.00  0.00    +0.347 C 
BRANCH  14  15
ATOM     15  O   UNL     1     -28.061  26.540   6.527  0.00  0.00    -0.443 OA
ATOM     16  C   UNL     1     -26.950  26.051   7.285  0.00  0.00    +0.256 C 
ENDBRANCH  14  15
ENDBRANCH   5  14
BRANCH   6  17
ATOM     17  O   UNL     1     -32.985  27.493   6.161  0.00  0.00    -0.451 OA
BRANCH  17  18
ATOM     18  C   UNL     1     -33.689  26.584   5.421  0.00  0.00    +0.141 C 
ATOM     19  C   UNL     1     -35.125  24.728   3.912  0.00  0.00    +0.048 C 
ATOM     20  C   UNL     1     -33.353  26.361   4.086  0.00  0.00    +0.038 C 
ATOM     21  C   UNL     1     -34.743  25.878   6.002  0.00  0.00    +0.038 C 
ATOM     22  C   UNL     1     -34.071  25.433   3.331  0.00  0.00    +0.018 C 
ATOM     23  C   UNL     1     -35.461  24.951   5.247  0.00  0.00    +0.018 C 
BRANCH  19  24
ATOM     24  N   UNL     1     -35.851  23.789   3.150  0.00  0.00    -0.305 N 
BRANCH  24  25
ATOM     25  C   UNL     1     -37.271  23.971   2.920  0.00  0.00    +0.108 C 
BRANCH  25  27
ATOM     26 CL   UNL     1     -37.372  26.616   2.249  0.00  0.00    -0.112 Cl
ATOM     27  C   UNL     1     -37.519  24.913   1.752  0.00  0.00    +0.116 C 
ENDBRANCH  25  27
ENDBRANCH  24  25
BRANCH  24  28
ATOM     28  C   UNL     1     -35.185  22.634   2.582  0.00  0.00    +0.108 C 
BRANCH  28  30
ATOM     29 CL   UNL     1     -35.187  21.421   5.030  0.00  0.00    -0.112 Cl
ATOM     30  C   UNL     1     -35.600  21.358   3.299  0.00  0.00    +0.116 C 
ENDBRANCH  28  30
ENDBRANCH  24  28
ENDBRANCH  19  24
ENDBRANCH  17  18
ENDBRANCH   6  17
TORSDOF 12
ENDMDL
MODEL 7
REMARK VINA RESULT:      -5.5      5.576      7.837
REMARK  Name = 56842738
REMARK  12 active torsions:
REMARK  status: ('A' for Active; 'I' for Inactive)
REMARK    1  A    between atoms: C_2  and  O_7
REMARK    2  A    between atoms: C_3  and  O_9
REMARK    3  A    between atoms: C_4  and  O_11
REMARK    4  A    between atoms: C_5  and  C_14
REMARK    5  A    between atoms: C_6  and  O_17
REMARK    6  A    between atoms: C_14  and  O_15
REMARK    7  A    between atoms: O_17  and  C_18
REMARK    8  A    between atoms: C_19  and  N_24
REMARK    9  A    between atoms: N_24  and  C_25
REMARK   10  A    between atoms: N_24  and  C_28
REMARK   11  A    between atoms: C_25  and  C_27
REMARK   12  A    between atoms: C_28  and  C_30
REMARK                            x       y       z     vdW  Elec       q    Type
REMARK                         _______ _______ _______ _____ _____    ______ ____
ROOT
ATOM      1  O   UNL     1     -36.717  22.757   3.701  0.00  0.00    -0.307 OA
ATOM      2  C   UNL     1     -38.393  24.993   3.033  0.00  0.00    +0.173 C 
ATOM      3  C   UNL     1     -37.531  24.968   4.295  0.00  0.00    +0.178 C 
ATOM      4  C   UNL     1     -38.669  23.580   2.519  0.00  0.00    +0.210 C 
ATOM      5  C   UNL     1     -36.321  24.063   4.105  0.00  0.00    +0.246 C 
ATOM      6  C   UNL     1     -37.381  22.758   2.441  0.00  0.00    +0.318 C 
ENDROOT
BRANCH   2   7
ATOM      7  O   UNL     1     -39.629  25.633   3.354  0.00  0.00    -0.379 OA
ATOM      8  H   UNL     1     -40.197  25.654   2.567  0.00  0.00    +0.211 HD
ENDBRANCH   2   7
BRANCH   3   9
ATOM      9  O   UNL     1     -37.075  26.291   4.573  0.00  0.00    -0.379 OA
ATOM     10  H   UNL     1     -37.312  26.876   3.837  0.00  0.00    +0.211 HD
ENDBRANCH   3   9
BRANCH   4  11
ATOM     11  O   UNL     1     -39.233  23.654   1.209  0.00  0.00    -0.377 OA
ATOM     12  H   UNL     1     -39.533  22.773   0.937  0.00  0.00    +0.211 HD
ENDBRANCH   4  11
BRANCH   5  14
ATOM     13  O   UNL     1     -35.872  22.889   6.154  0.00  0.00    -0.247 OA
ATOM     14  C   UNL     1     -35.623  23.824   5.405  0.00  0.00    +0.347 C 
BRANCH  14  15
ATOM     15  O   UNL     1     -34.689  24.796   5.607  0.00  0.00    -0.443 OA
ATOM     16  C   UNL     1     -33.836  25.070   4.491  0.00  0.00    +0.256 C 
ENDBRANCH  14  15
ENDBRANCH   5  14
BRANCH   6  17
ATOM     17  O   UNL     1     -37.733  21.423   2.080  0.00  0.00    -0.451 OA
BRANCH  17  18
ATOM     18  C   UNL     1     -36.711  20.610   1.672  0.00  0.00    +0.141 C 
ATOM     19  C   UNL     1     -34.627  18.953   0.839  0.00  0.00    +0.048 C 
ATOM     20  C   UNL     1     -36.886  19.768   0.574  0.00  0.00    +0.038 C 
ATOM     21  C   UNL     1     -35.494  20.624   2.353  0.00  0.00    +0.038 C 
ATOM     22  C   UNL     1     -35.843  18.940   0.157  0.00  0.00    +0.018 C 
ATOM     23  C   UNL     1     -34.453  19.794   1.938  0.00  0.00    +0.018 C 
BRANCH  19  24
ATOM     24  N   UNL     1     -33.572  18.116   0.418  0.00  0.00    -0.305 N 
BRANCH  24  25
ATOM     25  C   UNL     1     -32.339  18.051   1.178  0.00  0.00    +0.108 C 
BRANCH  25  27
ATOM     26 CL   UNL     1     -31.408  20.300  -0.062  0.00  0.00    -0.112 Cl
ATOM     27  C   UNL     1     -31.170  18.588   0.368  0.00  0.00    +0.116 C 
ENDBRANCH  25  27
ENDBRANCH  24  25
BRANCH  24  28
ATOM     28  C   UNL     1     -33.710  17.307  -0.777  0.00  0.00    +0.108 C 
BRANCH  28  30
ATOM     29 CL   UNL     1     -35.470  15.329  -0.102  0.00  0.00    -0.112 Cl
ATOM     30  C   UNL     1     -33.792  15.829  -0.427  0.00  0.00    +0.116 C 
ENDBRANCH  28  30
ENDBRANCH  24  28
ENDBRANCH  19  24
ENDBRANCH  17  18
ENDBRANCH   6  17
TORSDOF 12
ENDMDL
MODEL 8
REMARK VINA RESULT:      -5.4      5.410      7.377
REMARK  Name = 56842738
REMARK  12 active torsions:
REMARK  status: ('A' for Active; 'I' for Inactive)
REMARK    1  A    between atoms: C_2  and  O_7
REMARK    2  A    between atoms: C_3  and  O_9
REMARK    3  A    between atoms: C_4  and  O_11
REMARK    4  A    between atoms: C_5  and  C_14
REMARK    5  A    between atoms: C_6  and  O_17
REMARK    6  A    between atoms: C_14  and  O_15
REMARK    7  A    between atoms: O_17  and  C_18
REMARK    8  A    between atoms: C_19  and  N_24
REMARK    9  A    between atoms: N_24  and  C_25
REMARK   10  A    between atoms: N_24  and  C_28
REMARK   11  A    between atoms: C_25  and  C_27
REMARK   12  A    between atoms: C_28  and  C_30
REMARK                            x       y       z     vdW  Elec       q    Type
REMARK                         _______ _______ _______ _____ _____    ______ ____
ROOT
ATOM      1  O   UNL     1     -37.283  23.047   3.431  0.00  0.00    -0.307 OA
ATOM      2  C   UNL     1     -39.336  24.597   2.152  0.00  0.00    +0.173 C 
ATOM      3  C   UNL     1     -38.571  25.107   3.374  0.00  0.00    +0.178 C 
ATOM      4  C   UNL     1     -39.281  23.073   2.055  0.00  0.00    +0.210 C 
ATOM      5  C   UNL     1     -37.191  24.466   3.452  0.00  0.00    +0.246 C 
ATOM      6  C   UNL     1     -37.850  22.558   2.218  0.00  0.00    +0.318 C 
ENDROOT
BRANCH   2   7
ATOM      7  O   UNL     1     -40.695  25.019   2.274  0.00  0.00    -0.379 OA
ATOM      8  H   UNL     1     -40.953  25.514   1.480  0.00  0.00    +0.211 HD
ENDBRANCH   2   7
BRANCH   3   9
ATOM      9  O   UNL     1     -38.415  26.521   3.270  0.00  0.00    -0.379 OA
ATOM     10  H   UNL     1     -38.645  26.935   4.116  0.00  0.00    +0.211 HD
ENDBRANCH   3   9
BRANCH   4  11
ATOM     11  O   UNL     1     -39.762  22.662   0.776  0.00  0.00    -0.377 OA
ATOM     12  H   UNL     1     -40.693  22.400   0.850  0.00  0.00    +0.211 HD
ENDBRANCH   4  11
BRANCH   5  14
ATOM     13  O   UNL     1     -36.353  25.875   5.211  0.00  0.00    -0.247 OA
ATOM     14  C   UNL     1     -36.545  24.750   4.770  0.00  0.00    +0.347 C 
BRANCH  14  15
ATOM     15  O   UNL     1     -36.217  23.575   5.378  0.00  0.00    -0.443 OA
ATOM     16  C   UNL     1     -34.816  23.352   5.570  0.00  0.00    +0.256 C 
ENDBRANCH  14  15
ENDBRANCH   5  14
BRANCH   6  17
ATOM     17  O   UNL     1     -37.896  21.133   2.247  0.00  0.00    -0.451 OA
BRANCH  17  18
ATOM     18  C   UNL     1     -36.794  20.475   1.772  0.00  0.00    +0.141 C 
ATOM     19  C   UNL     1     -34.547  19.137   0.802  0.00  0.00    +0.048 C 
ATOM     20  C   UNL     1     -36.877  19.739   0.590  0.00  0.00    +0.038 C 
ATOM     21  C   UNL     1     -35.587  20.544   2.467  0.00  0.00    +0.038 C 
ATOM     22  C   UNL     1     -35.753  19.069   0.106  0.00  0.00    +0.018 C 
ATOM     23  C   UNL     1     -34.464  19.873   1.983  0.00  0.00    +0.018 C 
BRANCH  19  24
ATOM     24  N   UNL     1     -33.410  18.461   0.311  0.00  0.00    -0.305 N 
BRANCH  24  25
ATOM     25  C   UNL     1     -33.518  17.581  -0.837  0.00  0.00    +0.108 C 
BRANCH  25  27
ATOM     26 CL   UNL     1     -35.109  15.489  -0.094  0.00  0.00    -0.112 Cl
ATOM     27  C   UNL     1     -33.475  16.122  -0.412  0.00  0.00    +0.116 C 
ENDBRANCH  25  27
ENDBRANCH  24  25
BRANCH  24  28
ATOM     28  C   UNL     1     -32.119  18.642   0.943  0.00  0.00    +0.108 C 
BRANCH  28  30
ATOM     29 CL   UNL     1     -31.744  21.047  -0.298  0.00  0.00    -0.112 Cl
ATOM     30  C   UNL     1     -31.165  19.395   0.029  0.00  0.00    +0.116 C 
ENDBRANCH  28  30
ENDBRANCH  24  28
ENDBRANCH  19  24
ENDBRANCH  17  18
ENDBRANCH   6  17
TORSDOF 12
ENDMDL
MODEL 9
REMARK VINA RESULT:      -5.4      1.360      2.491
REMARK  Name = 56842738
REMARK  12 active torsions:
REMARK  status: ('A' for Active; 'I' for Inactive)
REMARK    1  A    between atoms: C_2  and  O_7
REMARK    2  A    between atoms: C_3  and  O_9
REMARK    3  A    between atoms: C_4  and  O_11
REMARK    4  A    between atoms: C_5  and  C_14
REMARK    5  A    between atoms: C_6  and  O_17
REMARK    6  A    between atoms: C_14  and  O_15
REMARK    7  A    between atoms: O_17  and  C_18
REMARK    8  A    between atoms: C_19  and  N_24
REMARK    9  A    between atoms: N_24  and  C_25
REMARK   10  A    between atoms: N_24  and  C_28
REMARK   11  A    between atoms: C_25  and  C_27
REMARK   12  A    between atoms: C_28  and  C_30
REMARK                            x       y       z     vdW  Elec       q    Type
REMARK                         _______ _______ _______ _____ _____    ______ ____
ROOT
ATOM      1  O   UNL     1     -37.710  23.314   3.367  0.00  0.00    -0.307 OA
ATOM      2  C   UNL     1     -36.912  20.940   1.959  0.00  0.00    +0.173 C 
ATOM      3  C   UNL     1     -38.336  21.493   1.885  0.00  0.00    +0.178 C 
ATOM      4  C   UNL     1     -36.188  21.431   3.213  0.00  0.00    +0.210 C 
ATOM      5  C   UNL     1     -38.345  22.996   2.135  0.00  0.00    +0.246 C 
ATOM      6  C   UNL     1     -36.334  22.944   3.380  0.00  0.00    +0.318 C 
ENDROOT
BRANCH   2   7
ATOM      7  O   UNL     1     -36.993  19.514   1.982  0.00  0.00    -0.379 OA
ATOM      8  H   UNL     1     -36.105  19.142   2.103  0.00  0.00    +0.211 HD
ENDBRANCH   2   7
BRANCH   3   9
ATOM      9  O   UNL     1     -38.866  21.241   0.585  0.00  0.00    -0.379 OA
ATOM     10  H   UNL     1     -39.321  20.385   0.581  0.00  0.00    +0.211 HD
ENDBRANCH   3   9
BRANCH   4  11
ATOM     11  O   UNL     1     -34.798  21.123   3.108  0.00  0.00    -0.377 OA
ATOM     12  H   UNL     1     -34.530  21.153   2.176  0.00  0.00    +0.211 HD
ENDBRANCH   4  11
BRANCH   5  14
ATOM     13  O   UNL     1     -40.686  23.174   1.622  0.00  0.00    -0.247 OA
ATOM     14  C   UNL     1     -39.740  23.497   2.327  0.00  0.00    +0.347 C 
BRANCH  14  15
ATOM     15  O   UNL     1     -39.776  24.348   3.391  0.00  0.00    -0.443 OA
ATOM     16  C   UNL     1     -40.380  25.621   3.140  0.00  0.00    +0.256 C 
ENDBRANCH  14  15
ENDBRANCH   5  14
BRANCH   6  17
ATOM     17  O   UNL     1     -35.748  23.307   4.629  0.00  0.00    -0.451 OA
BRANCH  17  18
ATOM     18  C   UNL     1     -34.959  24.425   4.634  0.00  0.00    +0.141 C 
ATOM     19  C   UNL     1     -33.353  26.706   4.642  0.00  0.00    +0.048 C 
ATOM     20  C   UNL     1     -34.309  24.825   3.466  0.00  0.00    +0.038 C 
ATOM     21  C   UNL     1     -34.807  25.167   5.805  0.00  0.00    +0.038 C 
ATOM     22  C   UNL     1     -33.506  25.965   3.471  0.00  0.00    +0.018 C 
ATOM     23  C   UNL     1     -34.003  26.306   5.810  0.00  0.00    +0.018 C 
BRANCH  19  24
ATOM     24  N   UNL     1     -32.542  27.860   4.647  0.00  0.00    -0.305 N 
BRANCH  24  25
ATOM     25  C   UNL     1     -31.985  28.360   5.889  0.00  0.00    +0.108 C 
BRANCH  25  27
ATOM     26 CL   UNL     1     -30.085  30.314   5.710  0.00  0.00    -0.112 Cl
ATOM     27  C   UNL     1     -30.485  28.580   5.765  0.00  0.00    +0.116 C 
ENDBRANCH  25  27
ENDBRANCH  24  25
BRANCH  24  28
ATOM     28  C   UNL     1     -32.250  28.557   3.410  0.00  0.00    +0.108 C 
BRANCH  28  30
ATOM     29 CL   UNL     1     -32.974  31.164   3.790  0.00  0.00    -0.112 Cl
ATOM     30  C   UNL     1     -33.338  29.570   3.086  0.00  0.00    +0.116 C 
ENDBRANCH  28  30
ENDBRANCH  24  28
ENDBRANCH  19  24
ENDBRANCH  17  18
ENDBRANCH   6  17
TORSDOF 12
ENDMDL
