MODEL 1
REMARK VINA RESULT:      -5.4      0.000      0.000
REMARK  Name = 5280877
REMARK  19 active torsions:
REMARK  status: ('A' for Active; 'I' for Inactive)
REMARK    1  A    between atoms: C_1  and  C_17
REMARK    2  A    between atoms: C_2  and  C_4
REMARK    3  A    between atoms: C_3  and  C_6
REMARK    4  A    between atoms: C_5  and  C_7
REMARK    5  A    between atoms: C_7  and  O_8
REMARK    6  A    between atoms: C_7  and  C_10
REMARK    7  A    between atoms: C_10  and  C_11
REMARK    8  A    between atoms: C_11  and  C_12
REMARK    9  A    between atoms: C_12  and  C_14
REMARK   10  A    between atoms: C_14  and  O_15
REMARK   11  A    between atoms: C_17  and  O_18
REMARK   12  A    between atoms: C_17  and  C_20
REMARK   13  A    between atoms: C_20  and  C_22
REMARK   14  A    between atoms: C_21  and  C_23
REMARK   15  A    between atoms: C_23  and  C_24
REMARK   16  A    between atoms: C_24  and  C_25
REMARK   17  A    between atoms: C_25  and  C_26
REMARK   18  A    between atoms: C_26  and  C_28
REMARK   19  A    between atoms: C_28  and  O_29
REMARK                            x       y       z     vdW  Elec       q    Type
REMARK                         _______ _______ _______ _____ _____    ______ ____
ROOT
ATOM      1  C   UNL     1     -36.386  22.142   1.851  0.00  0.00    +0.003 C 
ATOM      2  C   UNL     1     -35.405  22.972   1.468  0.00  0.00    -0.002 C 
ENDROOT
BRANCH   2   4
ATOM      3  C   UNL     1     -34.245  25.055   2.038  0.00  0.00    -0.000 C 
ATOM      4  C   UNL     1     -35.381  24.378   1.807  0.00  0.00    -0.000 C 
BRANCH   3   6
ATOM      5  C   UNL     1     -34.180  26.980   3.621  0.00  0.00    +0.003 C 
ATOM      6  C   UNL     1     -34.228  26.459   2.385  0.00  0.00    -0.002 C 
BRANCH   5   7
ATOM      7  C   UNL     1     -34.101  26.246   4.933  0.00  0.00    +0.132 C 
BRANCH   7   8
ATOM      8  O   UNL     1     -33.381  27.039   5.875  0.00  0.00    -0.380 OA
ATOM      9  H   UNL     1     -32.606  27.431   5.444  0.00  0.00    +0.211 HD
ENDBRANCH   7   8
BRANCH   7  10
ATOM     10  C   UNL     1     -35.474  25.876   5.515  0.00  0.00    +0.034 C 
BRANCH  10  11
ATOM     11  C   UNL     1     -35.991  24.447   5.272  0.00  0.00    +0.014 C 
BRANCH  11  12
ATOM     12  C   UNL     1     -34.947  23.331   5.309  0.00  0.00    +0.109 C 
BRANCH  12  14
ATOM     13  O   UNL     1     -36.102  21.862   6.869  0.00  0.00    -0.250 OA
ATOM     14  C   UNL     1     -35.488  22.016   5.821  0.00  0.00    +0.314 C 
BRANCH  14  15
ATOM     15  O   UNL     1     -35.179  20.988   4.989  0.00  0.00    -0.480 OA
ATOM     16  H   UNL     1     -34.282  20.784   4.810  0.00  0.00    +0.295 HD
ENDBRANCH  14  15
ENDBRANCH  12  14
ENDBRANCH  11  12
ENDBRANCH  10  11
ENDBRANCH   7  10
ENDBRANCH   5   7
ENDBRANCH   3   6
ENDBRANCH   2   4
BRANCH   1  17
ATOM     17  C   UNL     1     -36.413  20.677   1.508  0.00  0.00    +0.137 C 
BRANCH  17  18
ATOM     18  O   UNL     1     -36.569  19.934   2.717  0.00  0.00    -0.380 OA
ATOM     19  H   UNL     1     -36.064  19.108   2.659  0.00  0.00    +0.211 HD
ENDBRANCH  17  18
BRANCH  17  20
ATOM     20  C   UNL     1     -35.116  20.202   0.837  0.00  0.00    +0.059 C 
BRANCH  20  22
ATOM     21  C   UNL     1     -33.230  18.641   1.387  0.00  0.00    -0.031 C 
ATOM     22  C   UNL     1     -34.195  19.484   1.782  0.00  0.00    -0.028 C 
BRANCH  21  23
ATOM     23  C   UNL     1     -32.950  18.310  -0.051  0.00  0.00    +0.026 C 
BRANCH  23  24
ATOM     24  C   UNL     1     -33.426  16.898  -0.395  0.00  0.00    +0.005 C 
BRANCH  24  25
ATOM     25  C   UNL     1     -34.897  16.818  -0.825  0.00  0.00    +0.012 C 
BRANCH  25  26
ATOM     26  C   UNL     1     -35.702  15.725  -0.122  0.00  0.00    +0.109 C 
BRANCH  26  28
ATOM     27  O   UNL     1     -38.102  15.319  -0.275  0.00  0.00    -0.250 OA
ATOM     28  C   UNL     1     -37.169  16.051   0.021  0.00  0.00    +0.314 C 
BRANCH  28  29
ATOM     29  O   UNL     1     -37.325  17.312   0.498  0.00  0.00    -0.480 OA
ATOM     30  H   UNL     1     -36.859  17.585   1.264  0.00  0.00    +0.295 HD
ENDBRANCH  28  29
ENDBRANCH  26  28
ENDBRANCH  25  26
ENDBRANCH  24  25
ENDBRANCH  23  24
ENDBRANCH  21  23
ENDBRANCH  20  22
ENDBRANCH  17  20
ENDBRANCH   1  17
TORSDOF 19
ENDMDL
MODEL 2
REMARK VINA RESULT:      -5.3      3.949     10.298
REMARK  Name = 5280877
REMARK  19 active torsions:
REMARK  status: ('A' for Active; 'I' for Inactive)
REMARK    1  A    between atoms: C_1  and  C_17
REMARK    2  A    between atoms: C_2  and  C_4
REMARK    3  A    between atoms: C_3  and  C_6
REMARK    4  A    between atoms: C_5  and  C_7
REMARK    5  A    between atoms: C_7  and  O_8
REMARK    6  A    between atoms: C_7  and  C_10
REMARK    7  A    between atoms: C_10  and  C_11
REMARK    8  A    between atoms: C_11  and  C_12
REMARK    9  A    between atoms: C_12  and  C_14
REMARK   10  A    between atoms: C_14  and  O_15
REMARK   11  A    between atoms: C_17  and  O_18
REMARK   12  A    between atoms: C_17  and  C_20
REMARK   13  A    between atoms: C_20  and  C_22
REMARK   14  A    between atoms: C_21  and  C_23
REMARK   15  A    between atoms: C_23  and  C_24
REMARK   16  A    between atoms: C_24  and  C_25
REMARK   17  A    between atoms: C_25  and  C_26
REMARK   18  A    between atoms: C_26  and  C_28
REMARK   19  A    between atoms: C_28  and  O_29
REMARK                            x       y       z     vdW  Elec       q    Type
REMARK                         _______ _______ _______ _____ _____    ______ ____
ROOT
ATOM      1  C   UNL     1     -35.052  24.569   4.976  0.00  0.00    +0.003 C 
ATOM      2  C   UNL     1     -35.416  23.440   5.600  0.00  0.00    -0.002 C 
ENDROOT
BRANCH   2   4
ATOM      3  C   UNL     1     -35.438  22.008   3.611  0.00  0.00    -0.000 C 
ATOM      4  C   UNL     1     -35.449  22.150   4.945  0.00  0.00    -0.000 C 
BRANCH   3   6
ATOM      5  C   UNL     1     -36.369  20.307   2.043  0.00  0.00    +0.003 C 
ATOM      6  C   UNL     1     -35.479  20.716   2.961  0.00  0.00    -0.002 C 
BRANCH   5   7
ATOM      7  C   UNL     1     -37.508  21.089   1.445  0.00  0.00    +0.132 C 
BRANCH   7   8
ATOM      8  O   UNL     1     -38.482  21.350   2.455  0.00  0.00    -0.380 OA
ATOM      9  H   UNL     1     -39.225  21.839   2.068  0.00  0.00    +0.211 HD
ENDBRANCH   7   8
BRANCH   7  10
ATOM     10  C   UNL     1     -37.072  22.413   0.798  0.00  0.00    +0.034 C 
BRANCH  10  11
ATOM     11  C   UNL     1     -38.005  23.626   0.958  0.00  0.00    +0.014 C 
BRANCH  11  12
ATOM     12  C   UNL     1     -37.542  24.718   1.922  0.00  0.00    +0.109 C 
BRANCH  12  14
ATOM     13  O   UNL     1     -39.369  24.165   3.432  0.00  0.00    -0.250 OA
ATOM     14  C   UNL     1     -38.485  24.936   3.084  0.00  0.00    +0.314 C 
BRANCH  14  15
ATOM     15  O   UNL     1     -38.262  26.129   3.693  0.00  0.00    -0.480 OA
ATOM     16  H   UNL     1     -38.810  26.864   3.498  0.00  0.00    +0.295 HD
ENDBRANCH  14  15
ENDBRANCH  12  14
ENDBRANCH  11  12
ENDBRANCH  10  11
ENDBRANCH   7  10
ENDBRANCH   5   7
ENDBRANCH   3   6
ENDBRANCH   2   4
BRANCH   1  17
ATOM     17  C   UNL     1     -35.010  25.913   5.653  0.00  0.00    +0.137 C 
BRANCH  17  18
ATOM     18  O   UNL     1     -36.016  26.742   5.069  0.00  0.00    -0.380 OA
ATOM     19  H   UNL     1     -35.775  26.949   4.153  0.00  0.00    +0.211 HD
ENDBRANCH  17  18
BRANCH  17  20
ATOM     20  C   UNL     1     -33.662  26.625   5.472  0.00  0.00    +0.059 C 
BRANCH  20  22
ATOM     21  C   UNL     1     -32.154  27.944   6.983  0.00  0.00    -0.031 C 
ATOM     22  C   UNL     1     -32.961  26.893   6.774  0.00  0.00    -0.028 C 
BRANCH  21  23
ATOM     23  C   UNL     1     -31.852  28.983   5.943  0.00  0.00    +0.026 C 
BRANCH  23  24
ATOM     24  C   UNL     1     -30.516  29.674   6.224  0.00  0.00    +0.005 C 
BRANCH  24  25
ATOM     25  C   UNL     1     -29.297  28.747   6.120  0.00  0.00    +0.012 C 
BRANCH  25  26
ATOM     26  C   UNL     1     -28.386  28.764   7.348  0.00  0.00    +0.109 C 
BRANCH  26  28
ATOM     27  O   UNL     1     -27.193  30.776   6.659  0.00  0.00    -0.250 OA
ATOM     28  C   UNL     1     -27.657  30.071   7.543  0.00  0.00    +0.314 C 
BRANCH  28  29
ATOM     29  O   UNL     1     -27.545  30.352   8.866  0.00  0.00    -0.480 OA
ATOM     30  H   UNL     1     -27.523  31.244   9.156  0.00  0.00    +0.295 HD
ENDBRANCH  28  29
ENDBRANCH  26  28
ENDBRANCH  25  26
ENDBRANCH  24  25
ENDBRANCH  23  24
ENDBRANCH  21  23
ENDBRANCH  20  22
ENDBRANCH  17  20
ENDBRANCH   1  17
TORSDOF 19
ENDMDL
MODEL 3
REMARK VINA RESULT:      -5.1      4.365     10.624
REMARK  Name = 5280877
REMARK  19 active torsions:
REMARK  status: ('A' for Active; 'I' for Inactive)
REMARK    1  A    between atoms: C_1  and  C_17
REMARK    2  A    between atoms: C_2  and  C_4
REMARK    3  A    between atoms: C_3  and  C_6
REMARK    4  A    between atoms: C_5  and  C_7
REMARK    5  A    between atoms: C_7  and  O_8
REMARK    6  A    between atoms: C_7  and  C_10
REMARK    7  A    between atoms: C_10  and  C_11
REMARK    8  A    between atoms: C_11  and  C_12
REMARK    9  A    between atoms: C_12  and  C_14
REMARK   10  A    between atoms: C_14  and  O_15
REMARK   11  A    between atoms: C_17  and  O_18
REMARK   12  A    between atoms: C_17  and  C_20
REMARK   13  A    between atoms: C_20  and  C_22
REMARK   14  A    between atoms: C_21  and  C_23
REMARK   15  A    between atoms: C_23  and  C_24
REMARK   16  A    between atoms: C_24  and  C_25
REMARK   17  A    between atoms: C_25  and  C_26
REMARK   18  A    between atoms: C_26  and  C_28
REMARK   19  A    between atoms: C_28  and  O_29
REMARK                            x       y       z     vdW  Elec       q    Type
REMARK                         _______ _______ _______ _____ _____    ______ ____
ROOT
ATOM      1  C   UNL     1     -32.990  26.984   6.522  0.00  0.00    +0.003 C 
ATOM      2  C   UNL     1     -33.762  26.543   5.517  0.00  0.00    -0.002 C 
ENDROOT
BRANCH   2   4
ATOM      3  C   UNL     1     -34.556  24.227   5.632  0.00  0.00    -0.000 C 
ATOM      4  C   UNL     1     -34.796  25.547   5.693  0.00  0.00    -0.000 C 
BRANCH   3   6
ATOM      5  C   UNL     1     -35.918  22.258   4.938  0.00  0.00    +0.003 C 
ATOM      6  C   UNL     1     -35.595  23.235   5.800  0.00  0.00    -0.002 C 
BRANCH   5   7
ATOM      7  C   UNL     1     -35.269  21.936   3.619  0.00  0.00    +0.132 C 
BRANCH   7   8
ATOM      8  O   UNL     1     -35.581  20.591   3.255  0.00  0.00    -0.380 OA
ATOM      9  H   UNL     1     -35.531  20.497   2.291  0.00  0.00    +0.211 HD
ENDBRANCH   7   8
BRANCH   7  10
ATOM     10  C   UNL     1     -35.682  22.884   2.483  0.00  0.00    +0.034 C 
BRANCH  10  11
ATOM     11  C   UNL     1     -37.079  23.526   2.561  0.00  0.00    +0.014 C 
BRANCH  11  12
ATOM     12  C   UNL     1     -37.121  25.038   2.778  0.00  0.00    +0.109 C 
BRANCH  12  14
ATOM     13  O   UNL     1     -39.025  26.527   2.494  0.00  0.00    -0.250 OA
ATOM     14  C   UNL     1     -38.510  25.569   3.053  0.00  0.00    +0.314 C 
BRANCH  14  15
ATOM     15  O   UNL     1     -39.127  24.871   4.041  0.00  0.00    -0.480 OA
ATOM     16  H   UNL     1     -38.984  23.948   4.123  0.00  0.00    +0.295 HD
ENDBRANCH  14  15
ENDBRANCH  12  14
ENDBRANCH  11  12
ENDBRANCH  10  11
ENDBRANCH   7  10
ENDBRANCH   5   7
ENDBRANCH   3   6
ENDBRANCH   2   4
BRANCH   1  17
ATOM     17  C   UNL     1     -31.918  28.024   6.348  0.00  0.00    +0.137 C 
BRANCH  17  18
ATOM     18  O   UNL     1     -31.855  28.810   7.540  0.00  0.00    -0.380 OA
ATOM     19  H   UNL     1     -31.379  29.636   7.360  0.00  0.00    +0.211 HD
ENDBRANCH  17  18
BRANCH  17  20
ATOM     20  C   UNL     1     -32.203  28.979   5.180  0.00  0.00    +0.059 C 
BRANCH  20  22
ATOM     21  C   UNL     1     -30.378  30.683   4.929  0.00  0.00    -0.031 C 
ATOM     22  C   UNL     1     -31.597  30.340   5.372  0.00  0.00    -0.028 C 
BRANCH  21  23
ATOM     23  C   UNL     1     -29.468  29.748   4.185  0.00  0.00    +0.026 C 
BRANCH  23  24
ATOM     24  C   UNL     1     -28.164  29.521   4.951  0.00  0.00    +0.005 C 
BRANCH  24  25
ATOM     25  C   UNL     1     -28.188  28.302   5.883  0.00  0.00    +0.012 C 
BRANCH  25  26
ATOM     26  C   UNL     1     -27.409  28.487   7.185  0.00  0.00    +0.109 C 
BRANCH  26  28
ATOM     27  O   UNL     1     -27.362  30.460   8.618  0.00  0.00    -0.250 OA
ATOM     28  C   UNL     1     -27.984  29.551   8.089  0.00  0.00    +0.314 C 
BRANCH  28  29
ATOM     29  O   UNL     1     -29.312  29.341   8.275  0.00  0.00    -0.480 OA
ATOM     30  H   UNL     1     -29.862  29.137   7.543  0.00  0.00    +0.295 HD
ENDBRANCH  28  29
ENDBRANCH  26  28
ENDBRANCH  25  26
ENDBRANCH  24  25
ENDBRANCH  23  24
ENDBRANCH  21  23
ENDBRANCH  20  22
ENDBRANCH  17  20
ENDBRANCH   1  17
TORSDOF 19
ENDMDL
MODEL 4
REMARK VINA RESULT:      -5.0      2.123      3.061
REMARK  Name = 5280877
REMARK  19 active torsions:
REMARK  status: ('A' for Active; 'I' for Inactive)
REMARK    1  A    between atoms: C_1  and  C_17
REMARK    2  A    between atoms: C_2  and  C_4
REMARK    3  A    between atoms: C_3  and  C_6
REMARK    4  A    between atoms: C_5  and  C_7
REMARK    5  A    between atoms: C_7  and  O_8
REMARK    6  A    between atoms: C_7  and  C_10
REMARK    7  A    between atoms: C_10  and  C_11
REMARK    8  A    between atoms: C_11  and  C_12
REMARK    9  A    between atoms: C_12  and  C_14
REMARK   10  A    between atoms: C_14  and  O_15
REMARK   11  A    between atoms: C_17  and  O_18
REMARK   12  A    between atoms: C_17  and  C_20
REMARK   13  A    between atoms: C_20  and  C_22
REMARK   14  A    between atoms: C_21  and  C_23
REMARK   15  A    between atoms: C_23  and  C_24
REMARK   16  A    between atoms: C_24  and  C_25
REMARK   17  A    between atoms: C_25  and  C_26
REMARK   18  A    between atoms: C_26  and  C_28
REMARK   19  A    between atoms: C_28  and  O_29
REMARK                            x       y       z     vdW  Elec       q    Type
REMARK                         _______ _______ _______ _____ _____    ______ ____
ROOT
ATOM      1  C   UNL     1     -35.457  21.722   3.084  0.00  0.00    +0.003 C 
ATOM      2  C   UNL     1     -35.508  21.592   4.418  0.00  0.00    -0.002 C 
ENDROOT
BRANCH   2   4
ATOM      3  C   UNL     1     -34.668  23.831   4.955  0.00  0.00    -0.000 C 
ATOM      4  C   UNL     1     -35.268  22.690   5.328  0.00  0.00    -0.000 C 
BRANCH   3   6
ATOM      5  C   UNL     1     -34.096  26.184   5.549  0.00  0.00    +0.003 C 
ATOM      6  C   UNL     1     -34.423  24.923   5.872  0.00  0.00    -0.002 C 
BRANCH   5   7
ATOM      7  C   UNL     1     -33.939  26.777   4.174  0.00  0.00    +0.132 C 
BRANCH   7   8
ATOM      8  O   UNL     1     -32.997  26.004   3.432  0.00  0.00    -0.380 OA
ATOM      9  H   UNL     1     -32.662  26.528   2.688  0.00  0.00    +0.211 HD
ENDBRANCH   7   8
BRANCH   7  10
ATOM     10  C   UNL     1     -35.257  26.871   3.391  0.00  0.00    +0.034 C 
BRANCH  10  11
ATOM     11  C   UNL     1     -35.436  25.937   2.180  0.00  0.00    +0.014 C 
BRANCH  11  12
ATOM     12  C   UNL     1     -36.694  25.069   2.170  0.00  0.00    +0.109 C 
BRANCH  12  14
ATOM     13  O   UNL     1     -38.568  26.524   2.712  0.00  0.00    -0.250 OA
ATOM     14  C   UNL     1     -37.811  25.617   3.029  0.00  0.00    +0.314 C 
BRANCH  14  15
ATOM     15  O   UNL     1     -37.862  25.001   4.238  0.00  0.00    -0.480 OA
ATOM     16  H   UNL     1     -38.567  25.184   4.828  0.00  0.00    +0.295 HD
ENDBRANCH  14  15
ENDBRANCH  12  14
ENDBRANCH  11  12
ENDBRANCH  10  11
ENDBRANCH   7  10
ENDBRANCH   5   7
ENDBRANCH   3   6
ENDBRANCH   2   4
BRANCH   1  17
ATOM     17  C   UNL     1     -35.712  20.585   2.131  0.00  0.00    +0.137 C 
BRANCH  17  18
ATOM     18  O   UNL     1     -36.737  19.757   2.682  0.00  0.00    -0.380 OA
ATOM     19  H   UNL     1     -36.679  19.770   3.651  0.00  0.00    +0.211 HD
ENDBRANCH  17  18
BRANCH  17  20
ATOM     20  C   UNL     1     -34.473  19.706   1.913  0.00  0.00    +0.059 C 
BRANCH  20  22
ATOM     21  C   UNL     1     -32.431  19.619   0.457  0.00  0.00    -0.031 C 
ATOM     22  C   UNL     1     -33.561  20.232   0.841  0.00  0.00    -0.028 C 
BRANCH  21  23
ATOM     23  C   UNL     1     -31.937  18.332   1.051  0.00  0.00    +0.026 C 
BRANCH  23  24
ATOM     24  C   UNL     1     -31.778  17.254  -0.022  0.00  0.00    +0.005 C 
BRANCH  24  25
ATOM     25  C   UNL     1     -32.779  16.097   0.097  0.00  0.00    +0.012 C 
BRANCH  25  26
ATOM     26  C   UNL     1     -34.153  16.387  -0.507  0.00  0.00    +0.109 C 
BRANCH  26  28
ATOM     27  O   UNL     1     -36.224  15.300   0.183  0.00  0.00    -0.250 OA
ATOM     28  C   UNL     1     -35.131  15.246  -0.361  0.00  0.00    +0.314 C 
BRANCH  28  29
ATOM     29  O   UNL     1     -34.611  14.111  -0.893  0.00  0.00    -0.480 OA
ATOM     30  H   UNL     1     -34.996  13.733  -1.660  0.00  0.00    +0.295 HD
ENDBRANCH  28  29
ENDBRANCH  26  28
ENDBRANCH  25  26
ENDBRANCH  24  25
ENDBRANCH  23  24
ENDBRANCH  21  23
ENDBRANCH  20  22
ENDBRANCH  17  20
ENDBRANCH   1  17
TORSDOF 19
ENDMDL
MODEL 5
REMARK VINA RESULT:      -5.0      3.309      9.310
REMARK  Name = 5280877
REMARK  19 active torsions:
REMARK  status: ('A' for Active; 'I' for Inactive)
REMARK    1  A    between atoms: C_1  and  C_17
REMARK    2  A    between atoms: C_2  and  C_4
REMARK    3  A    between atoms: C_3  and  C_6
REMARK    4  A    between atoms: C_5  and  C_7
REMARK    5  A    between atoms: C_7  and  O_8
REMARK    6  A    between atoms: C_7  and  C_10
REMARK    7  A    between atoms: C_10  and  C_11
REMARK    8  A    between atoms: C_11  and  C_12
REMARK    9  A    between atoms: C_12  and  C_14
REMARK   10  A    between atoms: C_14  and  O_15
REMARK   11  A    between atoms: C_17  and  O_18
REMARK   12  A    between atoms: C_17  and  C_20
REMARK   13  A    between atoms: C_20  and  C_22
REMARK   14  A    between atoms: C_21  and  C_23
REMARK   15  A    between atoms: C_23  and  C_24
REMARK   16  A    between atoms: C_24  and  C_25
REMARK   17  A    between atoms: C_25  and  C_26
REMARK   18  A    between atoms: C_26  and  C_28
REMARK   19  A    between atoms: C_28  and  O_29
REMARK                            x       y       z     vdW  Elec       q    Type
REMARK                         _______ _______ _______ _____ _____    ______ ____
ROOT
ATOM      1  C   UNL     1     -35.504  24.353   5.097  0.00  0.00    +0.003 C 
ATOM      2  C   UNL     1     -35.458  23.131   5.650  0.00  0.00    -0.002 C 
ENDROOT
BRANCH   2   4
ATOM      3  C   UNL     1     -35.493  21.899   3.531  0.00  0.00    -0.000 C 
ATOM      4  C   UNL     1     -35.484  21.911   4.873  0.00  0.00    -0.000 C 
BRANCH   3   6
ATOM      5  C   UNL     1     -36.442  20.334   1.838  0.00  0.00    +0.003 C 
ATOM      6  C   UNL     1     -35.528  20.676   2.759  0.00  0.00    -0.002 C 
BRANCH   5   7
ATOM      7  C   UNL     1     -37.621  21.139   1.361  0.00  0.00    +0.132 C 
BRANCH   7   8
ATOM      8  O   UNL     1     -38.559  21.279   2.427  0.00  0.00    -0.380 OA
ATOM      9  H   UNL     1     -38.538  20.485   2.983  0.00  0.00    +0.211 HD
ENDBRANCH   7   8
BRANCH   7  10
ATOM     10  C   UNL     1     -37.241  22.528   0.825  0.00  0.00    +0.034 C 
BRANCH  10  11
ATOM     11  C   UNL     1     -38.327  23.619   0.836  0.00  0.00    +0.014 C 
BRANCH  11  12
ATOM     12  C   UNL     1     -37.950  24.948   1.489  0.00  0.00    +0.109 C 
BRANCH  12  14
ATOM     13  O   UNL     1     -38.724  24.140   3.650  0.00  0.00    -0.250 OA
ATOM     14  C   UNL     1     -38.422  25.073   2.919  0.00  0.00    +0.314 C 
BRANCH  14  15
ATOM     15  O   UNL     1     -38.513  26.372   3.304  0.00  0.00    -0.480 OA
ATOM     16  H   UNL     1     -39.097  26.954   2.858  0.00  0.00    +0.295 HD
ENDBRANCH  14  15
ENDBRANCH  12  14
ENDBRANCH  11  12
ENDBRANCH  10  11
ENDBRANCH   7  10
ENDBRANCH   5   7
ENDBRANCH   3   6
ENDBRANCH   2   4
BRANCH   1  17
ATOM     17  C   UNL     1     -35.471  25.626   5.899  0.00  0.00    +0.137 C 
BRANCH  17  18
ATOM     18  O   UNL     1     -36.390  26.550   5.314  0.00  0.00    -0.380 OA
ATOM     19  H   UNL     1     -37.196  26.081   5.048  0.00  0.00    +0.211 HD
ENDBRANCH  17  18
BRANCH  17  20
ATOM     20  C   UNL     1     -34.086  26.288   5.900  0.00  0.00    +0.059 C 
BRANCH  20  22
ATOM     21  C   UNL     1     -32.659  27.583   4.293  0.00  0.00    -0.031 C 
ATOM     22  C   UNL     1     -33.619  26.676   4.526  0.00  0.00    -0.028 C 
BRANCH  21  23
ATOM     23  C   UNL     1     -31.931  28.324   5.378  0.00  0.00    +0.026 C 
BRANCH  23  24
ATOM     24  C   UNL     1     -31.337  29.631   4.851  0.00  0.00    +0.005 C 
BRANCH  24  25
ATOM     25  C   UNL     1     -32.312  30.816   4.869  0.00  0.00    +0.012 C 
BRANCH  25  26
ATOM     26  C   UNL     1     -32.809  31.245   3.489  0.00  0.00    +0.109 C 
BRANCH  26  28
ATOM     27  O   UNL     1     -35.198  30.838   3.765  0.00  0.00    -0.250 OA
ATOM     28  C   UNL     1     -34.164  30.682   3.132  0.00  0.00    +0.314 C 
BRANCH  28  29
ATOM     29  O   UNL     1     -34.077  29.928   2.007  0.00  0.00    -0.480 OA
ATOM     30  H   UNL     1     -34.813  29.419   1.726  0.00  0.00    +0.295 HD
ENDBRANCH  28  29
ENDBRANCH  26  28
ENDBRANCH  25  26
ENDBRANCH  24  25
ENDBRANCH  23  24
ENDBRANCH  21  23
ENDBRANCH  20  22
ENDBRANCH  17  20
ENDBRANCH   1  17
TORSDOF 19
ENDMDL
MODEL 6
REMARK VINA RESULT:      -5.0      7.391      9.696
REMARK  Name = 5280877
REMARK  19 active torsions:
REMARK  status: ('A' for Active; 'I' for Inactive)
REMARK    1  A    between atoms: C_1  and  C_17
REMARK    2  A    between atoms: C_2  and  C_4
REMARK    3  A    between atoms: C_3  and  C_6
REMARK    4  A    between atoms: C_5  and  C_7
REMARK    5  A    between atoms: C_7  and  O_8
REMARK    6  A    between atoms: C_7  and  C_10
REMARK    7  A    between atoms: C_10  and  C_11
REMARK    8  A    between atoms: C_11  and  C_12
REMARK    9  A    between atoms: C_12  and  C_14
REMARK   10  A    between atoms: C_14  and  O_15
REMARK   11  A    between atoms: C_17  and  O_18
REMARK   12  A    between atoms: C_17  and  C_20
REMARK   13  A    between atoms: C_20  and  C_22
REMARK   14  A    between atoms: C_21  and  C_23
REMARK   15  A    between atoms: C_23  and  C_24
REMARK   16  A    between atoms: C_24  and  C_25
REMARK   17  A    between atoms: C_25  and  C_26
REMARK   18  A    between atoms: C_26  and  C_28
REMARK   19  A    between atoms: C_28  and  O_29
REMARK                            x       y       z     vdW  Elec       q    Type
REMARK                         _______ _______ _______ _____ _____    ______ ____
ROOT
ATOM      1  C   UNL     1     -40.092  25.413   2.378  0.00  0.00    +0.003 C 
ATOM      2  C   UNL     1     -40.808  26.091   3.288  0.00  0.00    -0.002 C 
ENDROOT
BRANCH   2   4
ATOM      3  C   UNL     1     -42.435  27.864   3.750  0.00  0.00    -0.000 C 
ATOM      4  C   UNL     1     -41.955  26.902   2.946  0.00  0.00    -0.000 C 
BRANCH   3   6
ATOM      5  C   UNL     1     -44.344  29.388   4.251  0.00  0.00    +0.003 C 
ATOM      6  C   UNL     1     -43.588  28.667   3.408  0.00  0.00    -0.002 C 
BRANCH   5   7
ATOM      7  C   UNL     1     -44.164  29.563   5.735  0.00  0.00    +0.132 C 
BRANCH   7   8
ATOM      8  O   UNL     1     -42.958  30.284   5.982  0.00  0.00    -0.380 OA
ATOM      9  H   UNL     1     -42.906  30.515   6.922  0.00  0.00    +0.211 HD
ENDBRANCH   7   8
BRANCH   7  10
ATOM     10  C   UNL     1     -45.340  30.281   6.417  0.00  0.00    +0.034 C 
BRANCH  10  11
ATOM     11  C   UNL     1     -45.229  31.803   6.615  0.00  0.00    +0.014 C 
BRANCH  11  12
ATOM     12  C   UNL     1     -45.607  32.674   5.418  0.00  0.00    +0.109 C 
BRANCH  12  14
ATOM     13  O   UNL     1     -44.432  33.791   3.602  0.00  0.00    -0.250 OA
ATOM     14  C   UNL     1     -44.416  33.286   4.717  0.00  0.00    +0.314 C 
BRANCH  14  15
ATOM     15  O   UNL     1     -43.286  33.178   5.462  0.00  0.00    -0.480 OA
ATOM     16  H   UNL     1     -42.821  32.364   5.493  0.00  0.00    +0.295 HD
ENDBRANCH  14  15
ENDBRANCH  12  14
ENDBRANCH  11  12
ENDBRANCH  10  11
ENDBRANCH   7  10
ENDBRANCH   5   7
ENDBRANCH   3   6
ENDBRANCH   2   4
BRANCH   1  17
ATOM     17  C   UNL     1     -38.901  24.562   2.728  0.00  0.00    +0.137 C 
BRANCH  17  18
ATOM     18  O   UNL     1     -38.618  24.734   4.117  0.00  0.00    -0.380 OA
ATOM     19  H   UNL     1     -37.690  24.511   4.289  0.00  0.00    +0.211 HD
ENDBRANCH  17  18
BRANCH  17  20
ATOM     20  C   UNL     1     -37.641  24.959   1.946  0.00  0.00    +0.059 C 
BRANCH  20  22
ATOM     21  C   UNL     1     -35.883  26.457   2.927  0.00  0.00    -0.031 C 
ATOM     22  C   UNL     1     -37.088  26.293   2.361  0.00  0.00    -0.028 C 
BRANCH  21  23
ATOM     23  C   UNL     1     -34.937  25.327   3.217  0.00  0.00    +0.026 C 
BRANCH  23  24
ATOM     24  C   UNL     1     -34.552  25.295   4.697  0.00  0.00    +0.005 C 
BRANCH  24  25
ATOM     25  C   UNL     1     -35.468  24.422   5.565  0.00  0.00    +0.012 C 
BRANCH  25  26
ATOM     26  C   UNL     1     -34.928  23.018   5.839  0.00  0.00    +0.109 C 
BRANCH  26  28
ATOM     27  O   UNL     1     -35.090  20.827   4.780  0.00  0.00    -0.250 OA
ATOM     28  C   UNL     1     -35.531  21.954   4.953  0.00  0.00    +0.314 C 
BRANCH  28  29
ATOM     29  O   UNL     1     -36.635  22.435   4.327  0.00  0.00    -0.480 OA
ATOM     30  H   UNL     1     -37.388  21.887   4.219  0.00  0.00    +0.295 HD
ENDBRANCH  28  29
ENDBRANCH  26  28
ENDBRANCH  25  26
ENDBRANCH  24  25
ENDBRANCH  23  24
ENDBRANCH  21  23
ENDBRANCH  20  22
ENDBRANCH  17  20
ENDBRANCH   1  17
TORSDOF 19
ENDMDL
MODEL 7
REMARK VINA RESULT:      -5.0      7.268     11.461
REMARK  Name = 5280877
REMARK  19 active torsions:
REMARK  status: ('A' for Active; 'I' for Inactive)
REMARK    1  A    between atoms: C_1  and  C_17
REMARK    2  A    between atoms: C_2  and  C_4
REMARK    3  A    between atoms: C_3  and  C_6
REMARK    4  A    between atoms: C_5  and  C_7
REMARK    5  A    between atoms: C_7  and  O_8
REMARK    6  A    between atoms: C_7  and  C_10
REMARK    7  A    between atoms: C_10  and  C_11
REMARK    8  A    between atoms: C_11  and  C_12
REMARK    9  A    between atoms: C_12  and  C_14
REMARK   10  A    between atoms: C_14  and  O_15
REMARK   11  A    between atoms: C_17  and  O_18
REMARK   12  A    between atoms: C_17  and  C_20
REMARK   13  A    between atoms: C_20  and  C_22
REMARK   14  A    between atoms: C_21  and  C_23
REMARK   15  A    between atoms: C_23  and  C_24
REMARK   16  A    between atoms: C_24  and  C_25
REMARK   17  A    between atoms: C_25  and  C_26
REMARK   18  A    between atoms: C_26  and  C_28
REMARK   19  A    between atoms: C_28  and  O_29
REMARK                            x       y       z     vdW  Elec       q    Type
REMARK                         _______ _______ _______ _____ _____    ______ ____
ROOT
ATOM      1  C   UNL     1     -42.164  27.051   2.780  0.00  0.00    +0.003 C 
ATOM      2  C   UNL     1     -41.083  26.407   3.245  0.00  0.00    -0.002 C 
ENDROOT
BRANCH   2   4
ATOM      3  C   UNL     1     -39.429  24.609   3.054  0.00  0.00    -0.000 C 
ATOM      4  C   UNL     1     -40.569  25.193   2.652  0.00  0.00    -0.000 C 
BRANCH   3   6
ATOM      5  C   UNL     1     -37.712  22.843   2.665  0.00  0.00    +0.003 C 
ATOM      6  C   UNL     1     -38.915  23.398   2.451  0.00  0.00    -0.002 C 
BRANCH   5   7
ATOM      7  C   UNL     1     -36.628  23.315   3.597  0.00  0.00    +0.132 C 
BRANCH   7   8
ATOM      8  O   UNL     1     -36.486  22.383   4.667  0.00  0.00    -0.380 OA
ATOM      9  H   UNL     1     -36.696  22.820   5.507  0.00  0.00    +0.211 HD
ENDBRANCH   7   8
BRANCH   7  10
ATOM     10  C   UNL     1     -35.270  23.516   2.907  0.00  0.00    +0.034 C 
BRANCH  10  11
ATOM     11  C   UNL     1     -34.420  24.722   3.343  0.00  0.00    +0.014 C 
BRANCH  11  12
ATOM     12  C   UNL     1     -34.081  24.814   4.830  0.00  0.00    +0.109 C 
BRANCH  12  14
ATOM     13  O   UNL     1     -35.780  26.447   5.437  0.00  0.00    -0.250 OA
ATOM     14  C   UNL     1     -34.622  26.058   5.497  0.00  0.00    +0.314 C 
BRANCH  14  15
ATOM     15  O   UNL     1     -33.648  26.738   6.155  0.00  0.00    -0.480 OA
ATOM     16  H   UNL     1     -33.219  26.346   6.892  0.00  0.00    +0.295 HD
ENDBRANCH  14  15
ENDBRANCH  12  14
ENDBRANCH  11  12
ENDBRANCH  10  11
ENDBRANCH   7  10
ENDBRANCH   5   7
ENDBRANCH   3   6
ENDBRANCH   2   4
BRANCH   1  17
ATOM     17  C   UNL     1     -42.700  28.318   3.388  0.00  0.00    +0.137 C 
BRANCH  17  18
ATOM     18  O   UNL     1     -41.952  28.600   4.572  0.00  0.00    -0.380 OA
ATOM     19  H   UNL     1     -41.758  27.772   5.038  0.00  0.00    +0.211 HD
ENDBRANCH  17  18
BRANCH  17  20
ATOM     20  C   UNL     1     -44.177  28.203   3.790  0.00  0.00    +0.059 C 
BRANCH  20  22
ATOM     21  C   UNL     1     -45.352  26.844   5.543  0.00  0.00    -0.031 C 
ATOM     22  C   UNL     1     -44.489  26.926   4.519  0.00  0.00    -0.028 C 
BRANCH  21  23
ATOM     23  C   UNL     1     -46.112  28.018   6.089  0.00  0.00    +0.026 C 
BRANCH  23  24
ATOM     24  C   UNL     1     -45.524  28.486   7.422  0.00  0.00    +0.005 C 
BRANCH  24  25
ATOM     25  C   UNL     1     -45.391  30.009   7.550  0.00  0.00    +0.012 C 
BRANCH  25  26
ATOM     26  C   UNL     1     -45.333  30.752   6.215  0.00  0.00    +0.109 C 
BRANCH  26  28
ATOM     27  O   UNL     1     -43.818  32.493   5.426  0.00  0.00    -0.250 OA
ATOM     28  C   UNL     1     -43.996  31.399   5.940  0.00  0.00    +0.314 C 
BRANCH  28  29
ATOM     29  O   UNL     1     -42.988  30.570   6.314  0.00  0.00    -0.480 OA
ATOM     30  H   UNL     1     -43.177  29.689   6.574  0.00  0.00    +0.295 HD
ENDBRANCH  28  29
ENDBRANCH  26  28
ENDBRANCH  25  26
ENDBRANCH  24  25
ENDBRANCH  23  24
ENDBRANCH  21  23
ENDBRANCH  20  22
ENDBRANCH  17  20
ENDBRANCH   1  17
TORSDOF 19
ENDMDL
MODEL 8
REMARK VINA RESULT:      -5.0      2.773      3.258
REMARK  Name = 5280877
REMARK  19 active torsions:
REMARK  status: ('A' for Active; 'I' for Inactive)
REMARK    1  A    between atoms: C_1  and  C_17
REMARK    2  A    between atoms: C_2  and  C_4
REMARK    3  A    between atoms: C_3  and  C_6
REMARK    4  A    between atoms: C_5  and  C_7
REMARK    5  A    between atoms: C_7  and  O_8
REMARK    6  A    between atoms: C_7  and  C_10
REMARK    7  A    between atoms: C_10  and  C_11
REMARK    8  A    between atoms: C_11  and  C_12
REMARK    9  A    between atoms: C_12  and  C_14
REMARK   10  A    between atoms: C_14  and  O_15
REMARK   11  A    between atoms: C_17  and  O_18
REMARK   12  A    between atoms: C_17  and  C_20
REMARK   13  A    between atoms: C_20  and  C_22
REMARK   14  A    between atoms: C_21  and  C_23
REMARK   15  A    between atoms: C_23  and  C_24
REMARK   16  A    between atoms: C_24  and  C_25
REMARK   17  A    between atoms: C_25  and  C_26
REMARK   18  A    between atoms: C_26  and  C_28
REMARK   19  A    between atoms: C_28  and  O_29
REMARK                            x       y       z     vdW  Elec       q    Type
REMARK                         _______ _______ _______ _____ _____    ______ ____
ROOT
ATOM      1  C   UNL     1     -35.068  21.870   1.853  0.00  0.00    +0.003 C 
ATOM      2  C   UNL     1     -35.794  22.905   1.406  0.00  0.00    -0.002 C 
ENDROOT
BRANCH   2   4
ATOM      3  C   UNL     1     -34.293  24.645   2.259  0.00  0.00    -0.000 C 
ATOM      4  C   UNL     1     -35.402  24.285   1.593  0.00  0.00    -0.000 C 
BRANCH   3   6
ATOM      5  C   UNL     1     -33.763  26.665   3.622  0.00  0.00    +0.003 C 
ATOM      6  C   UNL     1     -33.910  26.027   2.450  0.00  0.00    -0.002 C 
BRANCH   5   7
ATOM      7  C   UNL     1     -33.925  26.102   5.008  0.00  0.00    +0.132 C 
BRANCH   7   8
ATOM      8  O   UNL     1     -33.363  27.009   5.955  0.00  0.00    -0.380 OA
ATOM      9  H   UNL     1     -33.406  27.912   5.602  0.00  0.00    +0.211 HD
ENDBRANCH   7   8
BRANCH   7  10
ATOM     10  C   UNL     1     -35.385  25.805   5.384  0.00  0.00    +0.034 C 
BRANCH  10  11
ATOM     11  C   UNL     1     -35.854  24.340   5.322  0.00  0.00    +0.014 C 
BRANCH  11  12
ATOM     12  C   UNL     1     -34.772  23.272   5.477  0.00  0.00    +0.109 C 
BRANCH  12  14
ATOM     13  O   UNL     1     -34.972  20.869   5.146  0.00  0.00    -0.250 OA
ATOM     14  C   UNL     1     -35.323  21.887   5.728  0.00  0.00    +0.314 C 
BRANCH  14  15
ATOM     15  O   UNL     1     -36.304  21.900   6.667  0.00  0.00    -0.480 OA
ATOM     16  H   UNL     1     -36.974  21.245   6.655  0.00  0.00    +0.295 HD
ENDBRANCH  14  15
ENDBRANCH  12  14
ENDBRANCH  11  12
ENDBRANCH  10  11
ENDBRANCH   7  10
ENDBRANCH   5   7
ENDBRANCH   3   6
ENDBRANCH   2   4
BRANCH   1  17
ATOM     17  C   UNL     1     -35.467  20.432   1.656  0.00  0.00    +0.137 C 
BRANCH  17  18
ATOM     18  O   UNL     1     -36.237  20.021   2.787  0.00  0.00    -0.380 OA
ATOM     19  H   UNL     1     -36.431  19.073   2.720  0.00  0.00    +0.211 HD
ENDBRANCH  17  18
BRANCH  17  20
ATOM     20  C   UNL     1     -34.259  19.491   1.552  0.00  0.00    +0.059 C 
BRANCH  20  22
ATOM     21  C   UNL     1     -31.969  19.441   0.527  0.00  0.00    -0.031 C 
ATOM     22  C   UNL     1     -33.109  20.095   0.797  0.00  0.00    -0.028 C 
BRANCH  21  23
ATOM     23  C   UNL     1     -31.702  18.024   0.947  0.00  0.00    +0.026 C 
BRANCH  23  24
ATOM     24  C   UNL     1     -31.959  17.049  -0.204  0.00  0.00    +0.005 C 
BRANCH  24  25
ATOM     25  C   UNL     1     -30.685  16.530  -0.884  0.00  0.00    +0.012 C 
BRANCH  25  26
ATOM     26  C   UNL     1     -30.610  15.009  -1.006  0.00  0.00    +0.109 C 
BRANCH  26  28
ATOM     27  O   UNL     1     -30.208  13.401   0.783  0.00  0.00    -0.250 OA
ATOM     28  C   UNL     1     -29.834  14.349   0.109  0.00  0.00    +0.314 C 
BRANCH  28  29
ATOM     29  O   UNL     1     -28.650  14.986   0.297  0.00  0.00    -0.480 OA
ATOM     30  H   UNL     1     -28.261  15.469  -0.405  0.00  0.00    +0.295 HD
ENDBRANCH  28  29
ENDBRANCH  26  28
ENDBRANCH  25  26
ENDBRANCH  24  25
ENDBRANCH  23  24
ENDBRANCH  21  23
ENDBRANCH  20  22
ENDBRANCH  17  20
ENDBRANCH   1  17
TORSDOF 19
ENDMDL
MODEL 9
REMARK VINA RESULT:      -5.0      1.950      3.478
REMARK  Name = 5280877
REMARK  19 active torsions:
REMARK  status: ('A' for Active; 'I' for Inactive)
REMARK    1  A    between atoms: C_1  and  C_17
REMARK    2  A    between atoms: C_2  and  C_4
REMARK    3  A    between atoms: C_3  and  C_6
REMARK    4  A    between atoms: C_5  and  C_7
REMARK    5  A    between atoms: C_7  and  O_8
REMARK    6  A    between atoms: C_7  and  C_10
REMARK    7  A    between atoms: C_10  and  C_11
REMARK    8  A    between atoms: C_11  and  C_12
REMARK    9  A    between atoms: C_12  and  C_14
REMARK   10  A    between atoms: C_14  and  O_15
REMARK   11  A    between atoms: C_17  and  O_18
REMARK   12  A    between atoms: C_17  and  C_20
REMARK   13  A    between atoms: C_20  and  C_22
REMARK   14  A    between atoms: C_21  and  C_23
REMARK   15  A    between atoms: C_23  and  C_24
REMARK   16  A    between atoms: C_24  and  C_25
REMARK   17  A    between atoms: C_25  and  C_26
REMARK   18  A    between atoms: C_26  and  C_28
REMARK   19  A    between atoms: C_28  and  O_29
REMARK                            x       y       z     vdW  Elec       q    Type
REMARK                         _______ _______ _______ _____ _____    ______ ____
ROOT
ATOM      1  C   UNL     1     -35.803  21.298   2.127  0.00  0.00    +0.003 C 
ATOM      2  C   UNL     1     -35.618  21.249   3.454  0.00  0.00    -0.002 C 
ENDROOT
BRANCH   2   4
ATOM      3  C   UNL     1     -34.963  23.069   4.959  0.00  0.00    -0.000 C 
ATOM      4  C   UNL     1     -35.915  22.357   4.335  0.00  0.00    -0.000 C 
BRANCH   3   6
ATOM      5  C   UNL     1     -35.599  25.422   5.488  0.00  0.00    +0.003 C 
ATOM      6  C   UNL     1     -35.266  24.172   5.846  0.00  0.00    -0.002 C 
BRANCH   5   7
ATOM      7  C   UNL     1     -35.771  25.971   4.098  0.00  0.00    +0.132 C 
BRANCH   7   8
ATOM      8  O   UNL     1     -37.112  26.429   3.933  0.00  0.00    -0.380 OA
ATOM      9  H   UNL     1     -37.412  26.853   4.752  0.00  0.00    +0.211 HD
ENDBRANCH   7   8
BRANCH   7  10
ATOM     10  C   UNL     1     -34.795  27.110   3.762  0.00  0.00    +0.034 C 
BRANCH  10  11
ATOM     11  C   UNL     1     -33.301  26.876   4.047  0.00  0.00    +0.014 C 
BRANCH  11  12
ATOM     12  C   UNL     1     -32.574  27.979   4.814  0.00  0.00    +0.109 C 
BRANCH  12  14
ATOM     13  O   UNL     1     -33.037  26.950   6.971  0.00  0.00    -0.250 OA
ATOM     14  C   UNL     1     -32.311  27.635   6.263  0.00  0.00    +0.314 C 
BRANCH  14  15
ATOM     15  O   UNL     1     -31.171  28.215   6.717  0.00  0.00    -0.480 OA
ATOM     16  H   UNL     1     -30.388  27.706   6.804  0.00  0.00    +0.295 HD
ENDBRANCH  14  15
ENDBRANCH  12  14
ENDBRANCH  11  12
ENDBRANCH  10  11
ENDBRANCH   7  10
ENDBRANCH   5   7
ENDBRANCH   3   6
ENDBRANCH   2   4
BRANCH   1  17
ATOM     17  C   UNL     1     -35.502  20.146   1.206  0.00  0.00    +0.137 C 
BRANCH  17  18
ATOM     18  O   UNL     1     -36.502  19.144   1.397  0.00  0.00    -0.380 OA
ATOM     19  H   UNL     1     -36.111  18.266   1.264  0.00  0.00    +0.211 HD
ENDBRANCH  17  18
BRANCH  17  20
ATOM     20  C   UNL     1     -34.139  19.500   1.491  0.00  0.00    +0.059 C 
BRANCH  20  22
ATOM     21  C   UNL     1     -31.859  19.477   0.444  0.00  0.00    -0.031 C 
ATOM     22  C   UNL     1     -33.025  20.097   0.679  0.00  0.00    -0.028 C 
BRANCH  21  23
ATOM     23  C   UNL     1     -31.523  18.109   0.963  0.00  0.00    +0.026 C 
BRANCH  23  24
ATOM     24  C   UNL     1     -31.701  17.046  -0.122  0.00  0.00    +0.005 C 
BRANCH  24  25
ATOM     25  C   UNL     1     -32.901  16.116   0.101  0.00  0.00    +0.012 C 
BRANCH  25  26
ATOM     26  C   UNL     1     -34.101  16.405  -0.801  0.00  0.00    +0.109 C 
BRANCH  26  28
ATOM     27  O   UNL     1     -35.608  14.510  -0.516  0.00  0.00    -0.250 OA
ATOM     28  C   UNL     1     -35.364  15.698  -0.373  0.00  0.00    +0.314 C 
BRANCH  28  29
ATOM     29  O   UNL     1     -36.236  16.585   0.172  0.00  0.00    -0.480 OA
ATOM     30  H   UNL     1     -36.426  16.551   1.089  0.00  0.00    +0.295 HD
ENDBRANCH  28  29
ENDBRANCH  26  28
ENDBRANCH  25  26
ENDBRANCH  24  25
ENDBRANCH  23  24
ENDBRANCH  21  23
ENDBRANCH  20  22
ENDBRANCH  17  20
ENDBRANCH   1  17
TORSDOF 19
ENDMDL
