MODEL 1
REMARK VINA RESULT:      -7.6      0.000      0.000
REMARK  Name = 5281877
REMARK  12 active torsions:
REMARK  status: ('A' for Active; 'I' for Inactive)
REMARK    1  A    between atoms: C_2  and  C_3
REMARK    2  A    between atoms: C_2  and  O_22
REMARK    3  A    between atoms: C_4  and  C_7
REMARK    4  A    between atoms: C_6  and  C_10
REMARK    5  A    between atoms: C_8  and  C_12
REMARK    6  A    between atoms: C_11  and  C_16
REMARK    7  A    between atoms: O_22  and  C_28
REMARK    8  A    between atoms: C_24  and  O_29
REMARK    9  A    between atoms: C_25  and  O_31
REMARK   10  A    between atoms: C_26  and  O_33
REMARK   11  A    between atoms: C_27  and  C_36
REMARK   12  A    between atoms: C_36  and  O_37
REMARK                            x       y       z     vdW  Elec       q    Type
REMARK                         _______ _______ _______ _____ _____    ______ ____
ROOT
ATOM      1  O   UNL     1     -39.241  24.936   1.108  0.00  0.00    -0.245 OA
ATOM      2  C   UNL     1     -39.551  24.937   2.287  0.00  0.00    +0.343 C 
ENDROOT
BRANCH   2   3
ATOM      3  C   UNL     1     -40.620  25.759   2.905  0.00  0.00    +0.078 C 
ATOM      4  C   UNL     1     -41.879  25.887   2.439  0.00  0.00    -0.015 C 
ATOM      5  C   UNL     1     -42.419  25.186   1.219  0.00  0.00    +0.031 C 
BRANCH   4   7
ATOM      6  C   UNL     1     -42.500  27.898   3.817  0.00  0.00    -0.001 C 
ATOM      7  C   UNL     1     -42.802  26.749   3.186  0.00  0.00    -0.004 C 
BRANCH   6  10
ATOM      8  C   UNL     1     -44.294  29.657   4.065  0.00  0.00    -0.022 C 
ATOM      9  C   UNL     1     -44.190  30.033   2.604  0.00  0.00    +0.031 C 
ATOM     10  C   UNL     1     -43.491  28.678   4.536  0.00  0.00    -0.004 C 
BRANCH   8  12
ATOM     11  C   UNL     1     -45.010  31.055   6.015  0.00  0.00    -0.005 C 
ATOM     12  C   UNL     1     -45.267  30.385   4.880  0.00  0.00    -0.005 C 
BRANCH  11  16
ATOM     13  C   UNL     1     -46.532  31.039   8.048  0.00  0.00    +0.018 C 
ATOM     14  C   UNL     1     -47.392  31.980   8.935  0.00  0.00    +0.004 C 
ATOM     15  C   UNL     1     -48.390  32.784   8.121  0.00  0.00    +0.005 C 
ATOM     16  C   UNL     1     -46.032  31.758   6.773  0.00  0.00    -0.031 C 
ATOM     17  C   UNL     1     -47.656  33.653   7.110  0.00  0.00    +0.022 C 
ATOM     18  C   UNL     1     -46.532  32.955   6.374  0.00  0.00    -0.048 C 
ATOM     19  C   UNL     1     -45.364  30.560   8.943  0.00  0.00    +0.004 C 
ATOM     20  C   UNL     1     -47.380  29.810   7.649  0.00  0.00    +0.004 C 
ATOM     21  C   UNL     1     -46.067  33.750   5.177  0.00  0.00    +0.026 C 
ENDBRANCH  11  16
ENDBRANCH   8  12
ENDBRANCH   6  10
ENDBRANCH   4   7
ENDBRANCH   2   3
BRANCH   2  22
ATOM     22  O   UNL     1     -38.974  24.210   3.283  0.00  0.00    -0.419 OA
BRANCH  22  28
ATOM     23  O   UNL     1     -37.057  23.229   4.180  0.00  0.00    -0.307 OA
ATOM     24  C   UNL     1     -35.643  25.729   4.109  0.00  0.00    +0.173 C 
ATOM     25  C   UNL     1     -35.112  24.514   4.870  0.00  0.00    +0.178 C 
ATOM     26  C   UNL     1     -37.153  25.637   3.891  0.00  0.00    +0.211 C 
ATOM     27  C   UNL     1     -35.635  23.221   4.256  0.00  0.00    +0.246 C 
ATOM     28  C   UNL     1     -37.549  24.267   3.337  0.00  0.00    +0.321 C 
BRANCH  24  29
ATOM     29  O   UNL     1     -35.342  26.896   4.875  0.00  0.00    -0.379 OA
ATOM     30  H   UNL     1     -35.790  27.663   4.486  0.00  0.00    +0.211 HD
ENDBRANCH  24  29
BRANCH  25  31
ATOM     31  O   UNL     1     -33.687  24.508   4.805  0.00  0.00    -0.379 OA
ATOM     32  H   UNL     1     -33.398  23.917   4.092  0.00  0.00    +0.211 HD
ENDBRANCH  25  31
BRANCH  26  33
ATOM     33  O   UNL     1     -37.559  26.633   2.954  0.00  0.00    -0.377 OA
ATOM     34  H   UNL     1     -37.577  26.250   2.063  0.00  0.00    +0.211 HD
ENDBRANCH  26  33
BRANCH  27  36
ATOM     35  O   UNL     1     -34.966  22.126   6.301  0.00  0.00    -0.247 OA
ATOM     36  C   UNL     1     -35.346  22.053   5.142  0.00  0.00    +0.344 C 
BRANCH  36  37
ATOM     37  O   UNL     1     -35.561  20.888   4.481  0.00  0.00    -0.478 OA
ATOM     38  H   UNL     1     -35.434  20.070   4.921  0.00  0.00    +0.295 HD
ENDBRANCH  36  37
ENDBRANCH  27  36
ENDBRANCH  22  28
ENDBRANCH   2  22
TORSDOF 12
ENDMDL
MODEL 2
REMARK VINA RESULT:      -7.6      0.842      2.018
REMARK  Name = 5281877
REMARK  12 active torsions:
REMARK  status: ('A' for Active; 'I' for Inactive)
REMARK    1  A    between atoms: C_2  and  C_3
REMARK    2  A    between atoms: C_2  and  O_22
REMARK    3  A    between atoms: C_4  and  C_7
REMARK    4  A    between atoms: C_6  and  C_10
REMARK    5  A    between atoms: C_8  and  C_12
REMARK    6  A    between atoms: C_11  and  C_16
REMARK    7  A    between atoms: O_22  and  C_28
REMARK    8  A    between atoms: C_24  and  O_29
REMARK    9  A    between atoms: C_25  and  O_31
REMARK   10  A    between atoms: C_26  and  O_33
REMARK   11  A    between atoms: C_27  and  C_36
REMARK   12  A    between atoms: C_36  and  O_37
REMARK                            x       y       z     vdW  Elec       q    Type
REMARK                         _______ _______ _______ _____ _____    ______ ____
ROOT
ATOM      1  O   UNL     1     -39.085  24.783   1.009  0.00  0.00    -0.245 OA
ATOM      2  C   UNL     1     -39.424  25.006   2.159  0.00  0.00    +0.343 C 
ENDROOT
BRANCH   2   3
ATOM      3  C   UNL     1     -40.470  25.966   2.587  0.00  0.00    +0.078 C 
ATOM      4  C   UNL     1     -41.749  25.973   2.162  0.00  0.00    -0.015 C 
ATOM      5  C   UNL     1     -42.340  24.979   1.195  0.00  0.00    +0.031 C 
BRANCH   4   7
ATOM      6  C   UNL     1     -42.646  27.500   3.949  0.00  0.00    -0.001 C 
ATOM      7  C   UNL     1     -42.645  27.005   2.698  0.00  0.00    -0.004 C 
BRANCH   6  10
ATOM      8  C   UNL     1     -44.758  28.365   5.029  0.00  0.00    -0.022 C 
ATOM      9  C   UNL     1     -45.210  26.964   5.372  0.00  0.00    +0.031 C 
ATOM     10  C   UNL     1     -43.582  28.522   4.383  0.00  0.00    -0.004 C 
BRANCH   8  12
ATOM     11  C   UNL     1     -45.241  30.704   5.784  0.00  0.00    -0.005 C 
ATOM     12  C   UNL     1     -45.632  29.470   5.425  0.00  0.00    -0.005 C 
BRANCH  11  16
ATOM     13  C   UNL     1     -46.480  32.803   5.073  0.00  0.00    +0.018 C 
ATOM     14  C   UNL     1     -47.687  33.698   5.464  0.00  0.00    +0.004 C 
ATOM     15  C   UNL     1     -47.617  34.159   6.909  0.00  0.00    +0.005 C 
ATOM     16  C   UNL     1     -46.172  31.753   6.166  0.00  0.00    -0.031 C 
ATOM     17  C   UNL     1     -47.620  32.955   7.840  0.00  0.00    +0.022 C 
ATOM     18  C   UNL     1     -46.716  31.819   7.407  0.00  0.00    -0.048 C 
ATOM     19  C   UNL     1     -46.857  32.146   3.722  0.00  0.00    +0.004 C 
ATOM     20  C   UNL     1     -45.240  33.699   4.853  0.00  0.00    +0.004 C 
ATOM     21  C   UNL     1     -46.513  30.811   8.514  0.00  0.00    +0.026 C 
ENDBRANCH  11  16
ENDBRANCH   8  12
ENDBRANCH   6  10
ENDBRANCH   4   7
ENDBRANCH   2   3
BRANCH   2  22
ATOM     22  O   UNL     1     -38.905  24.444   3.285  0.00  0.00    -0.419 OA
BRANCH  22  28
ATOM     23  O   UNL     1     -37.057  23.418   4.271  0.00  0.00    -0.307 OA
ATOM     24  C   UNL     1     -35.512  25.833   4.087  0.00  0.00    +0.173 C 
ATOM     25  C   UNL     1     -35.058  24.637   4.925  0.00  0.00    +0.178 C 
ATOM     26  C   UNL     1     -37.021  25.807   3.847  0.00  0.00    +0.211 C 
ATOM     27  C   UNL     1     -35.639  23.341   4.374  0.00  0.00    +0.246 C 
ATOM     28  C   UNL     1     -37.480  24.430   3.362  0.00  0.00    +0.321 C 
BRANCH  24  29
ATOM     29  O   UNL     1     -35.162  27.025   4.793  0.00  0.00    -0.379 OA
ATOM     30  H   UNL     1     -35.812  27.189   5.493  0.00  0.00    +0.211 HD
ENDBRANCH  24  29
BRANCH  25  31
ATOM     31  O   UNL     1     -33.634  24.553   4.887  0.00  0.00    -0.379 OA
ATOM     32  H   UNL     1     -33.288  25.216   4.271  0.00  0.00    +0.211 HD
ENDBRANCH  25  31
BRANCH  26  33
ATOM     33  O   UNL     1     -37.359  26.768   2.848  0.00  0.00    -0.377 OA
ATOM     34  H   UNL     1     -37.094  26.434   1.977  0.00  0.00    +0.211 HD
ENDBRANCH  26  33
BRANCH  27  36
ATOM     35  O   UNL     1     -35.195  22.333   6.522  0.00  0.00    -0.247 OA
ATOM     36  C   UNL     1     -35.426  22.210   5.329  0.00  0.00    +0.344 C 
BRANCH  36  37
ATOM     37  O   UNL     1     -35.521  21.019   4.688  0.00  0.00    -0.478 OA
ATOM     38  H   UNL     1     -35.349  20.223   5.151  0.00  0.00    +0.295 HD
ENDBRANCH  36  37
ENDBRANCH  27  36
ENDBRANCH  22  28
ENDBRANCH   2  22
TORSDOF 12
ENDMDL
MODEL 3
REMARK VINA RESULT:      -7.5      7.387     14.854
REMARK  Name = 5281877
REMARK  12 active torsions:
REMARK  status: ('A' for Active; 'I' for Inactive)
REMARK    1  A    between atoms: C_2  and  C_3
REMARK    2  A    between atoms: C_2  and  O_22
REMARK    3  A    between atoms: C_4  and  C_7
REMARK    4  A    between atoms: C_6  and  C_10
REMARK    5  A    between atoms: C_8  and  C_12
REMARK    6  A    between atoms: C_11  and  C_16
REMARK    7  A    between atoms: O_22  and  C_28
REMARK    8  A    between atoms: C_24  and  O_29
REMARK    9  A    between atoms: C_25  and  O_31
REMARK   10  A    between atoms: C_26  and  O_33
REMARK   11  A    between atoms: C_27  and  C_36
REMARK   12  A    between atoms: C_36  and  O_37
REMARK                            x       y       z     vdW  Elec       q    Type
REMARK                         _______ _______ _______ _____ _____    ______ ____
ROOT
ATOM      1  O   UNL     1     -39.599  23.077   0.718  0.00  0.00    -0.245 OA
ATOM      2  C   UNL     1     -38.796  22.794   1.590  0.00  0.00    +0.343 C 
ENDROOT
BRANCH   2   3
ATOM      3  C   UNL     1     -37.730  21.768   1.492  0.00  0.00    +0.078 C 
ATOM      4  C   UNL     1     -36.702  21.786   0.618  0.00  0.00    -0.015 C 
ATOM      5  C   UNL     1     -36.452  22.877  -0.391  0.00  0.00    +0.031 C 
BRANCH   4   7
ATOM      6  C   UNL     1     -34.744  20.517   1.558  0.00  0.00    -0.001 C 
ATOM      7  C   UNL     1     -35.740  20.679   0.668  0.00  0.00    -0.004 C 
BRANCH   6  10
ATOM      8  C   UNL     1     -32.659  19.272   0.866  0.00  0.00    -0.022 C 
ATOM      9  C   UNL     1     -32.169  20.451   0.056  0.00  0.00    +0.031 C 
ATOM     10  C   UNL     1     -33.838  19.384   1.517  0.00  0.00    -0.004 C 
BRANCH   8  12
ATOM     11  C   UNL     1     -30.854  17.764   0.007  0.00  0.00    -0.005 C 
ATOM     12  C   UNL     1     -31.817  18.076   0.890  0.00  0.00    -0.005 C 
BRANCH  11  16
ATOM     13  C   UNL     1     -28.571  16.757   0.480  0.00  0.00    +0.018 C 
ATOM     14  C   UNL     1     -27.881  15.412   0.836  0.00  0.00    +0.004 C 
ATOM     15  C   UNL     1     -28.227  14.310  -0.149  0.00  0.00    +0.005 C 
ATOM     16  C   UNL     1     -30.055  16.552   0.098  0.00  0.00    -0.031 C 
ATOM     17  C   UNL     1     -29.729  14.067  -0.151  0.00  0.00    +0.022 C 
ATOM     18  C   UNL     1     -30.574  15.325  -0.160  0.00  0.00    -0.048 C 
ATOM     19  C   UNL     1     -28.410  17.662   1.727  0.00  0.00    +0.004 C 
ATOM     20  C   UNL     1     -27.818  17.411  -0.701  0.00  0.00    +0.004 C 
ATOM     21  C   UNL     1     -32.018  15.028  -0.487  0.00  0.00    +0.026 C 
ENDBRANCH  11  16
ENDBRANCH   8  12
ENDBRANCH   6  10
ENDBRANCH   4   7
ENDBRANCH   2   3
BRANCH   2  22
ATOM     22  O   UNL     1     -38.721  23.336   2.837  0.00  0.00    -0.419 OA
BRANCH  22  28
ATOM     23  O   UNL     1     -36.913  22.805   4.212  0.00  0.00    -0.307 OA
ATOM     24  C   UNL     1     -36.187  25.573   4.469  0.00  0.00    +0.173 C 
ATOM     25  C   UNL     1     -35.584  24.486   5.359  0.00  0.00    +0.178 C 
ATOM     26  C   UNL     1     -37.522  25.129   3.872  0.00  0.00    +0.211 C 
ATOM     27  C   UNL     1     -35.600  23.137   4.651  0.00  0.00    +0.246 C 
ATOM     28  C   UNL     1     -37.415  23.733   3.255  0.00  0.00    +0.321 C 
BRANCH  24  29
ATOM     29  O   UNL     1     -36.387  26.739   5.269  0.00  0.00    -0.379 OA
ATOM     30  H   UNL     1     -35.628  27.334   5.170  0.00  0.00    +0.211 HD
ENDBRANCH  24  29
BRANCH  25  31
ATOM     31  O   UNL     1     -34.233  24.828   5.664  0.00  0.00    -0.379 OA
ATOM     32  H   UNL     1     -34.145  24.979   6.618  0.00  0.00    +0.211 HD
ENDBRANCH  25  31
BRANCH  26  33
ATOM     33  O   UNL     1     -37.910  26.042   2.846  0.00  0.00    -0.377 OA
ATOM     34  H   UNL     1     -37.119  26.386   2.404  0.00  0.00    +0.211 HD
ENDBRANCH  26  33
BRANCH  27  36
ATOM     35  O   UNL     1     -34.926  22.182   6.763  0.00  0.00    -0.247 OA
ATOM     36  C   UNL     1     -35.265  22.031   5.599  0.00  0.00    +0.344 C 
BRANCH  36  37
ATOM     37  O   UNL     1     -35.386  20.826   4.989  0.00  0.00    -0.478 OA
ATOM     38  H   UNL     1     -36.205  20.574   4.609  0.00  0.00    +0.295 HD
ENDBRANCH  36  37
ENDBRANCH  27  36
ENDBRANCH  22  28
ENDBRANCH   2  22
TORSDOF 12
ENDMDL
MODEL 4
REMARK VINA RESULT:      -7.4      5.880      8.173
REMARK  Name = 5281877
REMARK  12 active torsions:
REMARK  status: ('A' for Active; 'I' for Inactive)
REMARK    1  A    between atoms: C_2  and  C_3
REMARK    2  A    between atoms: C_2  and  O_22
REMARK    3  A    between atoms: C_4  and  C_7
REMARK    4  A    between atoms: C_6  and  C_10
REMARK    5  A    between atoms: C_8  and  C_12
REMARK    6  A    between atoms: C_11  and  C_16
REMARK    7  A    between atoms: O_22  and  C_28
REMARK    8  A    between atoms: C_24  and  O_29
REMARK    9  A    between atoms: C_25  and  O_31
REMARK   10  A    between atoms: C_26  and  O_33
REMARK   11  A    between atoms: C_27  and  C_36
REMARK   12  A    between atoms: C_36  and  O_37
REMARK                            x       y       z     vdW  Elec       q    Type
REMARK                         _______ _______ _______ _____ _____    ______ ____
ROOT
ATOM      1  O   UNL     1     -33.016  27.955   2.532  0.00  0.00    -0.245 OA
ATOM      2  C   UNL     1     -34.127  28.165   2.990  0.00  0.00    +0.343 C 
ENDROOT
BRANCH   2   3
ATOM      3  C   UNL     1     -35.043  29.258   2.584  0.00  0.00    +0.078 C 
ATOM      4  C   UNL     1     -34.863  30.569   2.842  0.00  0.00    -0.015 C 
ATOM      5  C   UNL     1     -33.675  31.148   3.567  0.00  0.00    +0.031 C 
BRANCH   4   7
ATOM      6  C   UNL     1     -35.704  32.501   1.467  0.00  0.00    -0.001 C 
ATOM      7  C   UNL     1     -35.881  31.510   2.360  0.00  0.00    -0.004 C 
BRANCH   6  10
ATOM      8  C   UNL     1     -36.743  34.720   0.858  0.00  0.00    -0.022 C 
ATOM      9  C   UNL     1     -35.432  35.443   1.071  0.00  0.00    +0.031 C 
ATOM     10  C   UNL     1     -36.781  33.384   1.059  0.00  0.00    -0.004 C 
BRANCH   8  12
ATOM     11  C   UNL     1     -38.919  35.107  -0.321  0.00  0.00    -0.005 C 
ATOM     12  C   UNL     1     -37.894  35.522   0.443  0.00  0.00    -0.005 C 
BRANCH  11  16
ATOM     13  C   UNL     1     -41.291  35.849   0.196  0.00  0.00    +0.018 C 
ATOM     14  C   UNL     1     -42.301  36.995  -0.089  0.00  0.00    +0.004 C 
ATOM     15  C   UNL     1     -42.486  37.240  -1.576  0.00  0.00    +0.005 C 
ATOM     16  C   UNL     1     -40.031  35.966  -0.692  0.00  0.00    -0.031 C 
ATOM     17  C   UNL     1     -41.158  37.633  -2.208  0.00  0.00    +0.022 C 
ATOM     18  C   UNL     1     -39.975  36.798  -1.763  0.00  0.00    -0.048 C 
ATOM     19  C   UNL     1     -40.953  35.947   1.704  0.00  0.00    +0.004 C 
ATOM     20  C   UNL     1     -41.984  34.492  -0.064  0.00  0.00    +0.004 C 
ATOM     21  C   UNL     1     -38.772  37.013  -2.651  0.00  0.00    +0.026 C 
ENDBRANCH  11  16
ENDBRANCH   8  12
ENDBRANCH   6  10
ENDBRANCH   4   7
ENDBRANCH   2   3
BRANCH   2  22
ATOM     22  O   UNL     1     -34.747  27.464   3.978  0.00  0.00    -0.419 OA
BRANCH  22  28
ATOM     23  O   UNL     1     -36.610  26.099   3.642  0.00  0.00    -0.307 OA
ATOM     24  C   UNL     1     -35.130  23.753   4.390  0.00  0.00    +0.173 C 
ATOM     25  C   UNL     1     -36.652  23.746   4.248  0.00  0.00    +0.178 C 
ATOM     26  C   UNL     1     -34.597  25.166   4.626  0.00  0.00    +0.211 C 
ATOM     27  C   UNL     1     -37.108  24.819   3.268  0.00  0.00    +0.246 C 
ATOM     28  C   UNL     1     -35.186  26.155   3.617  0.00  0.00    +0.321 C 
BRANCH  24  29
ATOM     29  O   UNL     1     -34.786  22.922   5.500  0.00  0.00    -0.379 OA
ATOM     30  H   UNL     1     -35.061  23.353   6.325  0.00  0.00    +0.211 HD
ENDBRANCH  24  29
BRANCH  25  31
ATOM     31  O   UNL     1     -37.070  22.472   3.760  0.00  0.00    -0.379 OA
ATOM     32  H   UNL     1     -36.357  22.077   3.235  0.00  0.00    +0.211 HD
ENDBRANCH  25  31
BRANCH  26  33
ATOM     33  O   UNL     1     -33.178  25.169   4.478  0.00  0.00    -0.377 OA
ATOM     34  H   UNL     1     -32.922  25.842   3.829  0.00  0.00    +0.211 HD
ENDBRANCH  26  33
BRANCH  27  36
ATOM     35  O   UNL     1     -39.410  24.093   3.298  0.00  0.00    -0.247 OA
ATOM     36  C   UNL     1     -38.591  24.999   3.324  0.00  0.00    +0.344 C 
BRANCH  36  37
ATOM     37  O   UNL     1     -38.910  26.315   3.405  0.00  0.00    -0.478 OA
ATOM     38  H   UNL     1     -39.535  26.683   2.811  0.00  0.00    +0.295 HD
ENDBRANCH  36  37
ENDBRANCH  27  36
ENDBRANCH  22  28
ENDBRANCH   2  22
TORSDOF 12
ENDMDL
MODEL 5
REMARK VINA RESULT:      -7.4      6.192      7.875
REMARK  Name = 5281877
REMARK  12 active torsions:
REMARK  status: ('A' for Active; 'I' for Inactive)
REMARK    1  A    between atoms: C_2  and  C_3
REMARK    2  A    between atoms: C_2  and  O_22
REMARK    3  A    between atoms: C_4  and  C_7
REMARK    4  A    between atoms: C_6  and  C_10
REMARK    5  A    between atoms: C_8  and  C_12
REMARK    6  A    between atoms: C_11  and  C_16
REMARK    7  A    between atoms: O_22  and  C_28
REMARK    8  A    between atoms: C_24  and  O_29
REMARK    9  A    between atoms: C_25  and  O_31
REMARK   10  A    between atoms: C_26  and  O_33
REMARK   11  A    between atoms: C_27  and  C_36
REMARK   12  A    between atoms: C_36  and  O_37
REMARK                            x       y       z     vdW  Elec       q    Type
REMARK                         _______ _______ _______ _____ _____    ______ ____
ROOT
ATOM      1  O   UNL     1     -33.320  26.569   5.631  0.00  0.00    -0.245 OA
ATOM      2  C   UNL     1     -33.721  26.510   4.480  0.00  0.00    +0.343 C 
ENDROOT
BRANCH   2   3
ATOM      3  C   UNL     1     -34.549  27.530   3.794  0.00  0.00    +0.078 C 
ATOM      4  C   UNL     1     -34.078  28.555   3.055  0.00  0.00    -0.015 C 
ATOM      5  C   UNL     1     -32.620  28.817   2.779  0.00  0.00    +0.031 C 
BRANCH   4   7
ATOM      6  C   UNL     1     -35.320  30.731   2.833  0.00  0.00    -0.001 C 
ATOM      7  C   UNL     1     -35.053  29.470   2.449  0.00  0.00    -0.004 C 
BRANCH   6  10
ATOM      8  C   UNL     1     -36.131  32.717   1.501  0.00  0.00    -0.022 C 
ATOM      9  C   UNL     1     -34.731  33.280   1.402  0.00  0.00    +0.031 C 
ATOM     10  C   UNL     1     -36.313  31.556   2.168  0.00  0.00    -0.004 C 
BRANCH   8  12
ATOM     11  C   UNL     1     -37.713  34.646   1.280  0.00  0.00    -0.005 C 
ATOM     12  C   UNL     1     -37.207  33.474   0.861  0.00  0.00    -0.005 C 
BRANCH  11  16
ATOM     13  C   UNL     1     -40.176  35.264   1.264  0.00  0.00    +0.018 C 
ATOM     14  C   UNL     1     -41.178  36.263   0.625  0.00  0.00    +0.004 C 
ATOM     15  C   UNL     1     -41.110  36.255  -0.892  0.00  0.00    +0.005 C 
ATOM     16  C   UNL     1     -38.786  35.341   0.589  0.00  0.00    -0.031 C 
ATOM     17  C   UNL     1     -39.715  36.650  -1.352  0.00  0.00    +0.022 C 
ATOM     18  C   UNL     1     -38.586  35.996  -0.583  0.00  0.00    -0.048 C 
ATOM     19  C   UNL     1     -40.115  35.625   2.768  0.00  0.00    +0.004 C 
ATOM     20  C   UNL     1     -40.738  33.831   1.126  0.00  0.00    +0.004 C 
ATOM     21  C   UNL     1     -37.258  36.166  -1.282  0.00  0.00    +0.026 C 
ENDBRANCH  11  16
ENDBRANCH   8  12
ENDBRANCH   6  10
ENDBRANCH   4   7
ENDBRANCH   2   3
BRANCH   2  22
ATOM     22  O   UNL     1     -33.515  25.495   3.596  0.00  0.00    -0.419 OA
BRANCH  22  28
ATOM     23  O   UNL     1     -34.629  23.650   4.490  0.00  0.00    -0.307 OA
ATOM     24  C   UNL     1     -35.503  22.810   1.885  0.00  0.00    +0.173 C 
ATOM     25  C   UNL     1     -35.619  21.908   3.114  0.00  0.00    +0.178 C 
ATOM     26  C   UNL     1     -34.439  23.889   2.082  0.00  0.00    +0.211 C 
ATOM     27  C   UNL     1     -35.718  22.739   4.386  0.00  0.00    +0.246 C 
ATOM     28  C   UNL     1     -34.613  24.599   3.427  0.00  0.00    +0.321 C 
BRANCH  24  29
ATOM     29  O   UNL     1     -35.151  21.992   0.767  0.00  0.00    -0.379 OA
ATOM     30  H   UNL     1     -35.854  22.035   0.101  0.00  0.00    +0.211 HD
ENDBRANCH  24  29
BRANCH  25  31
ATOM     31  O   UNL     1     -36.794  21.107   2.996  0.00  0.00    -0.379 OA
ATOM     32  H   UNL     1     -37.147  21.181   2.096  0.00  0.00    +0.211 HD
ENDBRANCH  25  31
BRANCH  26  33
ATOM     33  O   UNL     1     -34.552  24.863   1.045  0.00  0.00    -0.377 OA
ATOM     34  H   UNL     1     -34.474  24.426   0.183  0.00  0.00    +0.211 HD
ENDBRANCH  26  33
BRANCH  27  36
ATOM     35  O   UNL     1     -35.746  22.250   6.750  0.00  0.00    -0.247 OA
ATOM     36  C   UNL     1     -35.563  21.880   5.600  0.00  0.00    +0.344 C 
BRANCH  36  37
ATOM     37  O   UNL     1     -35.185  20.625   5.252  0.00  0.00    -0.478 OA
ATOM     38  H   UNL     1     -34.468  20.498   4.662  0.00  0.00    +0.295 HD
ENDBRANCH  36  37
ENDBRANCH  27  36
ENDBRANCH  22  28
ENDBRANCH   2  22
TORSDOF 12
ENDMDL
MODEL 6
REMARK VINA RESULT:      -7.2      7.639     13.122
REMARK  Name = 5281877
REMARK  12 active torsions:
REMARK  status: ('A' for Active; 'I' for Inactive)
REMARK    1  A    between atoms: C_2  and  C_3
REMARK    2  A    between atoms: C_2  and  O_22
REMARK    3  A    between atoms: C_4  and  C_7
REMARK    4  A    between atoms: C_6  and  C_10
REMARK    5  A    between atoms: C_8  and  C_12
REMARK    6  A    between atoms: C_11  and  C_16
REMARK    7  A    between atoms: O_22  and  C_28
REMARK    8  A    between atoms: C_24  and  O_29
REMARK    9  A    between atoms: C_25  and  O_31
REMARK   10  A    between atoms: C_26  and  O_33
REMARK   11  A    between atoms: C_27  and  C_36
REMARK   12  A    between atoms: C_36  and  O_37
REMARK                            x       y       z     vdW  Elec       q    Type
REMARK                         _______ _______ _______ _____ _____    ______ ____
ROOT
ATOM      1  O   UNL     1     -38.378  24.555   0.175  0.00  0.00    -0.245 OA
ATOM      2  C   UNL     1     -38.672  23.644   0.931  0.00  0.00    +0.343 C 
ENDROOT
BRANCH   2   3
ATOM      3  C   UNL     1     -39.136  22.294   0.529  0.00  0.00    +0.078 C 
ATOM      4  C   UNL     1     -38.345  21.284   0.116  0.00  0.00    -0.015 C 
ATOM      5  C   UNL     1     -36.842  21.353   0.021  0.00  0.00    +0.031 C 
BRANCH   4   7
ATOM      6  C   UNL     1     -38.505  19.078  -1.083  0.00  0.00    -0.001 C 
ATOM      7  C   UNL     1     -38.985  20.013  -0.243  0.00  0.00    -0.004 C 
BRANCH   6  10
ATOM      8  C   UNL     1     -38.953  16.597  -0.953  0.00  0.00    -0.022 C 
ATOM      9  C   UNL     1     -37.758  16.383  -0.050  0.00  0.00    +0.031 C 
ATOM     10  C   UNL     1     -39.222  17.851  -1.377  0.00  0.00    -0.004 C 
BRANCH   8  12
ATOM     11  C   UNL     1     -40.752  14.893  -0.593  0.00  0.00    -0.005 C 
ATOM     12  C   UNL     1     -39.746  15.420  -1.310  0.00  0.00    -0.005 C 
BRANCH  11  16
ATOM     13  C   UNL     1     -40.975  12.366  -0.472  0.00  0.00    +0.018 C 
ATOM     14  C   UNL     1     -41.988  11.217  -0.729  0.00  0.00    +0.004 C 
ATOM     15  C   UNL     1     -42.560  11.259  -2.134  0.00  0.00    +0.005 C 
ATOM     16  C   UNL     1     -41.496  13.717  -1.015  0.00  0.00    -0.031 C 
ATOM     17  C   UNL     1     -43.293  12.573  -2.359  0.00  0.00    +0.022 C 
ATOM     18  C   UNL     1     -42.565  13.799  -1.848  0.00  0.00    -0.048 C 
ATOM     19  C   UNL     1     -40.749  12.400   1.059  0.00  0.00    +0.004 C 
ATOM     20  C   UNL     1     -39.634  12.016  -1.158  0.00  0.00    +0.004 C 
ATOM     21  C   UNL     1     -43.172  15.075  -2.381  0.00  0.00    +0.026 C 
ENDBRANCH  11  16
ENDBRANCH   8  12
ENDBRANCH   6  10
ENDBRANCH   4   7
ENDBRANCH   2   3
BRANCH   2  22
ATOM     22  O   UNL     1     -38.660  23.679   2.292  0.00  0.00    -0.419 OA
BRANCH  22  28
ATOM     23  O   UNL     1     -36.982  22.937   3.733  0.00  0.00    -0.307 OA
ATOM     24  C   UNL     1     -36.313  25.630   4.476  0.00  0.00    +0.173 C 
ATOM     25  C   UNL     1     -35.784  24.418   5.243  0.00  0.00    +0.178 C 
ATOM     26  C   UNL     1     -37.582  25.288   3.696  0.00  0.00    +0.211 C 
ATOM     27  C   UNL     1     -35.719  23.194   4.339  0.00  0.00    +0.246 C 
ATOM     28  C   UNL     1     -37.403  24.002   2.886  0.00  0.00    +0.321 C 
BRANCH  24  29
ATOM     29  O   UNL     1     -36.599  26.661   5.423  0.00  0.00    -0.379 OA
ATOM     30  H   UNL     1     -36.015  26.567   6.192  0.00  0.00    +0.211 HD
ENDBRANCH  24  29
BRANCH  25  31
ATOM     31  O   UNL     1     -34.471  24.705   5.721  0.00  0.00    -0.379 OA
ATOM     32  H   UNL     1     -33.881  24.868   4.968  0.00  0.00    +0.211 HD
ENDBRANCH  25  31
BRANCH  26  33
ATOM     33  O   UNL     1     -37.883  26.349   2.791  0.00  0.00    -0.377 OA
ATOM     34  H   UNL     1     -37.427  26.194   1.949  0.00  0.00    +0.211 HD
ENDBRANCH  26  33
BRANCH  27  36
ATOM     35  O   UNL     1     -35.279  21.920   6.341  0.00  0.00    -0.247 OA
ATOM     36  C   UNL     1     -35.462  21.954   5.133  0.00  0.00    +0.344 C 
BRANCH  36  37
ATOM     37  O   UNL     1     -35.456  20.863   4.329  0.00  0.00    -0.478 OA
ATOM     38  H   UNL     1     -35.159  20.038   4.660  0.00  0.00    +0.295 HD
ENDBRANCH  36  37
ENDBRANCH  27  36
ENDBRANCH  22  28
ENDBRANCH   2  22
TORSDOF 12
ENDMDL
MODEL 7
REMARK VINA RESULT:      -7.2      7.725     15.196
REMARK  Name = 5281877
REMARK  12 active torsions:
REMARK  status: ('A' for Active; 'I' for Inactive)
REMARK    1  A    between atoms: C_2  and  C_3
REMARK    2  A    between atoms: C_2  and  O_22
REMARK    3  A    between atoms: C_4  and  C_7
REMARK    4  A    between atoms: C_6  and  C_10
REMARK    5  A    between atoms: C_8  and  C_12
REMARK    6  A    between atoms: C_11  and  C_16
REMARK    7  A    between atoms: O_22  and  C_28
REMARK    8  A    between atoms: C_24  and  O_29
REMARK    9  A    between atoms: C_25  and  O_31
REMARK   10  A    between atoms: C_26  and  O_33
REMARK   11  A    between atoms: C_27  and  C_36
REMARK   12  A    between atoms: C_36  and  O_37
REMARK                            x       y       z     vdW  Elec       q    Type
REMARK                         _______ _______ _______ _____ _____    ______ ____
ROOT
ATOM      1  O   UNL     1     -37.787  23.803  -0.558  0.00  0.00    -0.245 OA
ATOM      2  C   UNL     1     -37.381  23.261   0.457  0.00  0.00    +0.343 C 
ENDROOT
BRANCH   2   3
ATOM      3  C   UNL     1     -36.392  22.158   0.519  0.00  0.00    +0.078 C 
ATOM      4  C   UNL     1     -36.675  20.844   0.411  0.00  0.00    -0.015 C 
ATOM      5  C   UNL     1     -38.053  20.278   0.179  0.00  0.00    +0.031 C 
BRANCH   4   7
ATOM      6  C   UNL     1     -34.513  19.954   1.338  0.00  0.00    -0.001 C 
ATOM      7  C   UNL     1     -35.562  19.893   0.497  0.00  0.00    -0.004 C 
BRANCH   6  10
ATOM      8  C   UNL     1     -32.222  19.043   0.795  0.00  0.00    -0.022 C 
ATOM      9  C   UNL     1     -31.837  20.315   0.074  0.00  0.00    +0.031 C 
ATOM     10  C   UNL     1     -33.455  18.960   1.340  0.00  0.00    -0.004 C 
BRANCH   8  12
ATOM     11  C   UNL     1     -30.297  17.701  -0.079  0.00  0.00    -0.005 C 
ATOM     12  C   UNL     1     -31.224  17.975   0.854  0.00  0.00    -0.005 C 
BRANCH  11  16
ATOM     13  C   UNL     1     -29.608  15.372  -0.821  0.00  0.00    +0.018 C 
ATOM     14  C   UNL     1     -28.391  14.407  -0.838  0.00  0.00    +0.004 C 
ATOM     15  C   UNL     1     -27.798  14.205   0.544  0.00  0.00    +0.005 C 
ATOM     16  C   UNL     1     -29.334  16.619   0.051  0.00  0.00    -0.031 C 
ATOM     17  C   UNL     1     -27.319  15.536   1.105  0.00  0.00    +0.022 C 
ATOM     18  C   UNL     1     -28.278  16.691   0.900  0.00  0.00    -0.048 C 
ATOM     19  C   UNL     1     -29.878  15.743  -2.300  0.00  0.00    +0.004 C 
ATOM     20  C   UNL     1     -30.840  14.617  -0.272  0.00  0.00    +0.004 C 
ATOM     21  C   UNL     1     -27.906  17.885   1.747  0.00  0.00    +0.026 C 
ENDBRANCH  11  16
ENDBRANCH   8  12
ENDBRANCH   6  10
ENDBRANCH   4   7
ENDBRANCH   2   3
BRANCH   2  22
ATOM     22  O   UNL     1     -37.762  23.534   1.735  0.00  0.00    -0.419 OA
BRANCH  22  28
ATOM     23  O   UNL     1     -36.531  22.859   3.598  0.00  0.00    -0.307 OA
ATOM     24  C   UNL     1     -36.063  25.583   4.382  0.00  0.00    +0.173 C 
ATOM     25  C   UNL     1     -35.765  24.405   5.310  0.00  0.00    +0.178 C 
ATOM     26  C   UNL     1     -37.083  25.204   3.308  0.00  0.00    +0.211 C 
ATOM     27  C   UNL     1     -35.472  23.145   4.506  0.00  0.00    +0.246 C 
ATOM     28  C   UNL     1     -36.705  23.887   2.627  0.00  0.00    +0.321 C 
BRANCH  24  29
ATOM     29  O   UNL     1     -36.583  26.651   5.176  0.00  0.00    -0.379 OA
ATOM     30  H   UNL     1     -36.288  26.545   6.094  0.00  0.00    +0.211 HD
ENDBRANCH  24  29
BRANCH  25  31
ATOM     31  O   UNL     1     -34.623  24.716   6.107  0.00  0.00    -0.379 OA
ATOM     32  H   UNL     1     -33.998  23.975   6.080  0.00  0.00    +0.211 HD
ENDBRANCH  25  31
BRANCH  26  33
ATOM     33  O   UNL     1     -37.125  26.226   2.313  0.00  0.00    -0.377 OA
ATOM     34  H   UNL     1     -37.723  26.932   2.602  0.00  0.00    +0.211 HD
ENDBRANCH  26  33
BRANCH  27  36
ATOM     35  O   UNL     1     -35.035  20.837   5.060  0.00  0.00    -0.247 OA
ATOM     36  C   UNL     1     -35.444  21.940   5.390  0.00  0.00    +0.344 C 
BRANCH  36  37
ATOM     37  O   UNL     1     -35.938  22.236   6.617  0.00  0.00    -0.478 OA
ATOM     38  H   UNL     1     -36.793  22.612   6.700  0.00  0.00    +0.295 HD
ENDBRANCH  36  37
ENDBRANCH  27  36
ENDBRANCH  22  28
ENDBRANCH   2  22
TORSDOF 12
ENDMDL
MODEL 8
REMARK VINA RESULT:      -7.2     10.938     12.746
REMARK  Name = 5281877
REMARK  12 active torsions:
REMARK  status: ('A' for Active; 'I' for Inactive)
REMARK    1  A    between atoms: C_2  and  C_3
REMARK    2  A    between atoms: C_2  and  O_22
REMARK    3  A    between atoms: C_4  and  C_7
REMARK    4  A    between atoms: C_6  and  C_10
REMARK    5  A    between atoms: C_8  and  C_12
REMARK    6  A    between atoms: C_11  and  C_16
REMARK    7  A    between atoms: O_22  and  C_28
REMARK    8  A    between atoms: C_24  and  O_29
REMARK    9  A    between atoms: C_25  and  O_31
REMARK   10  A    between atoms: C_26  and  O_33
REMARK   11  A    between atoms: C_27  and  C_36
REMARK   12  A    between atoms: C_36  and  O_37
REMARK                            x       y       z     vdW  Elec       q    Type
REMARK                         _______ _______ _______ _____ _____    ______ ____
ROOT
ATOM      1  O   UNL     1     -32.345  30.813   1.428  0.00  0.00    -0.245 OA
ATOM      2  C   UNL     1     -32.810  31.496   2.324  0.00  0.00    +0.343 C 
ENDROOT
BRANCH   2   3
ATOM      3  C   UNL     1     -32.917  32.976   2.325  0.00  0.00    +0.078 C 
ATOM      4  C   UNL     1     -33.889  33.693   1.725  0.00  0.00    -0.015 C 
ATOM      5  C   UNL     1     -35.054  33.101   0.973  0.00  0.00    +0.031 C 
BRANCH   4   7
ATOM      6  C   UNL     1     -33.663  36.030   0.825  0.00  0.00    -0.001 C 
ATOM      7  C   UNL     1     -33.829  35.155   1.833  0.00  0.00    -0.004 C 
BRANCH   6  10
ATOM      8  C   UNL     1     -34.584  38.381   0.835  0.00  0.00    -0.022 C 
ATOM      9  C   UNL     1     -35.923  37.907   0.318  0.00  0.00    +0.031 C 
ATOM     10  C   UNL     1     -33.611  37.465   1.038  0.00  0.00    -0.004 C 
BRANCH   8  12
ATOM     11  C   UNL     1     -33.269  40.469   1.263  0.00  0.00    -0.005 C 
ATOM     12  C   UNL     1     -34.428  39.814   1.084  0.00  0.00    -0.005 C 
BRANCH  11  16
ATOM     13  C   UNL     1     -33.139  42.791   0.243  0.00  0.00    +0.018 C 
ATOM     14  C   UNL     1     -33.355  44.289   0.591  0.00  0.00    +0.004 C 
ATOM     15  C   UNL     1     -32.560  44.717   1.811  0.00  0.00    +0.005 C 
ATOM     16  C   UNL     1     -33.193  41.900   1.506  0.00  0.00    -0.031 C 
ATOM     17  C   UNL     1     -32.987  43.901   3.023  0.00  0.00    +0.022 C 
ATOM     18  C   UNL     1     -33.151  42.418   2.760  0.00  0.00    -0.048 C 
ATOM     19  C   UNL     1     -34.246  42.426  -0.776  0.00  0.00    +0.004 C 
ATOM     20  C   UNL     1     -31.764  42.628  -0.445  0.00  0.00    +0.004 C 
ATOM     21  C   UNL     1     -33.252  41.629   4.044  0.00  0.00    +0.026 C 
ENDBRANCH  11  16
ENDBRANCH   8  12
ENDBRANCH   6  10
ENDBRANCH   4   7
ENDBRANCH   2   3
BRANCH   2  22
ATOM     22  O   UNL     1     -33.305  31.056   3.513  0.00  0.00    -0.419 OA
BRANCH  22  28
ATOM     23  O   UNL     1     -33.369  28.834   4.222  0.00  0.00    -0.307 OA
ATOM     24  C   UNL     1     -31.473  29.359   6.316  0.00  0.00    +0.173 C 
ATOM     25  C   UNL     1     -32.276  28.060   6.251  0.00  0.00    +0.178 C 
ATOM     26  C   UNL     1     -32.157  30.479   5.531  0.00  0.00    +0.211 C 
ATOM     27  C   UNL     1     -32.673  27.742   4.815  0.00  0.00    +0.246 C 
ATOM     28  C   UNL     1     -32.563  30.006   4.134  0.00  0.00    +0.321 C 
BRANCH  24  29
ATOM     29  O   UNL     1     -31.360  29.740   7.688  0.00  0.00    -0.379 OA
ATOM     30  H   UNL     1     -30.592  29.299   8.084  0.00  0.00    +0.211 HD
ENDBRANCH  24  29
BRANCH  25  31
ATOM     31  O   UNL     1     -31.476  26.990   6.752  0.00  0.00    -0.379 OA
ATOM     32  H   UNL     1     -31.146  26.459   6.012  0.00  0.00    +0.211 HD
ENDBRANCH  25  31
BRANCH  26  33
ATOM     33  O   UNL     1     -31.255  31.575   5.387  0.00  0.00    -0.377 OA
ATOM     34  H   UNL     1     -31.626  32.217   4.761  0.00  0.00    +0.211 HD
ENDBRANCH  26  33
BRANCH  27  36
ATOM     35  O   UNL     1     -33.415  25.447   4.908  0.00  0.00    -0.247 OA
ATOM     36  C   UNL     1     -33.674  26.633   4.769  0.00  0.00    +0.344 C 
BRANCH  36  37
ATOM     37  O   UNL     1     -34.919  27.121   4.549  0.00  0.00    -0.478 OA
ATOM     38  H   UNL     1     -35.035  28.022   4.317  0.00  0.00    +0.295 HD
ENDBRANCH  36  37
ENDBRANCH  27  36
ENDBRANCH  22  28
ENDBRANCH   2  22
TORSDOF 12
ENDMDL
MODEL 9
REMARK VINA RESULT:      -7.1      1.848      2.778
REMARK  Name = 5281877
REMARK  12 active torsions:
REMARK  status: ('A' for Active; 'I' for Inactive)
REMARK    1  A    between atoms: C_2  and  C_3
REMARK    2  A    between atoms: C_2  and  O_22
REMARK    3  A    between atoms: C_4  and  C_7
REMARK    4  A    between atoms: C_6  and  C_10
REMARK    5  A    between atoms: C_8  and  C_12
REMARK    6  A    between atoms: C_11  and  C_16
REMARK    7  A    between atoms: O_22  and  C_28
REMARK    8  A    between atoms: C_24  and  O_29
REMARK    9  A    between atoms: C_25  and  O_31
REMARK   10  A    between atoms: C_26  and  O_33
REMARK   11  A    between atoms: C_27  and  C_36
REMARK   12  A    between atoms: C_36  and  O_37
REMARK                            x       y       z     vdW  Elec       q    Type
REMARK                         _______ _______ _______ _____ _____    ______ ____
ROOT
ATOM      1  O   UNL     1     -37.592  25.596   1.931  0.00  0.00    -0.245 OA
ATOM      2  C   UNL     1     -38.359  25.125   2.754  0.00  0.00    +0.343 C 
ENDROOT
BRANCH   2   3
ATOM      3  C   UNL     1     -39.484  25.839   3.405  0.00  0.00    +0.078 C 
ATOM      4  C   UNL     1     -40.748  25.900   2.941  0.00  0.00    -0.015 C 
ATOM      5  C   UNL     1     -41.237  25.222   1.686  0.00  0.00    +0.031 C 
BRANCH   4   7
ATOM      6  C   UNL     1     -42.377  27.775   3.341  0.00  0.00    -0.001 C 
ATOM      7  C   UNL     1     -41.731  26.658   3.724  0.00  0.00    -0.004 C 
BRANCH   6  10
ATOM      8  C   UNL     1     -44.155  29.482   3.889  0.00  0.00    -0.022 C 
ATOM      9  C   UNL     1     -44.118  30.037   2.483  0.00  0.00    +0.031 C 
ATOM     10  C   UNL     1     -43.332  28.455   4.197  0.00  0.00    -0.004 C 
BRANCH   8  12
ATOM     11  C   UNL     1     -44.787  31.036   5.748  0.00  0.00    -0.005 C 
ATOM     12  C   UNL     1     -45.087  30.100   4.832  0.00  0.00    -0.005 C 
BRANCH  11  16
ATOM     13  C   UNL     1     -45.965  30.849   7.990  0.00  0.00    +0.018 C 
ATOM     14  C   UNL     1     -46.804  31.680   9.000  0.00  0.00    +0.004 C 
ATOM     15  C   UNL     1     -48.016  32.321   8.350  0.00  0.00    +0.005 C 
ATOM     16  C   UNL     1     -45.771  31.605   6.655  0.00  0.00    -0.031 C 
ATOM     17  C   UNL     1     -47.575  33.263   7.240  0.00  0.00    +0.022 C 
ATOM     18  C   UNL     1     -46.488  32.713   6.339  0.00  0.00    -0.048 C 
ATOM     19  C   UNL     1     -44.618  30.556   8.695  0.00  0.00    +0.004 C 
ATOM     20  C   UNL     1     -46.683  29.507   7.725  0.00  0.00    +0.004 C 
ATOM     21  C   UNL     1     -46.327  33.540   5.085  0.00  0.00    +0.026 C 
ENDBRANCH  11  16
ENDBRANCH   8  12
ENDBRANCH   6  10
ENDBRANCH   4   7
ENDBRANCH   2   3
BRANCH   2  22
ATOM     22  O   UNL     1     -38.333  23.863   3.264  0.00  0.00    -0.419 OA
BRANCH  22  28
ATOM     23  O   UNL     1     -37.577  22.037   2.024  0.00  0.00    -0.307 OA
ATOM     24  C   UNL     1     -35.454  21.539   3.894  0.00  0.00    +0.173 C 
ATOM     25  C   UNL     1     -35.839  20.531   2.811  0.00  0.00    +0.178 C 
ATOM     26  C   UNL     1     -36.603  22.500   4.198  0.00  0.00    +0.211 C 
ATOM     27  C   UNL     1     -36.473  21.235   1.618  0.00  0.00    +0.246 C 
ATOM     28  C   UNL     1     -37.191  23.083   2.911  0.00  0.00    +0.321 C 
BRANCH  24  29
ATOM     29  O   UNL     1     -35.116  20.811   5.076  0.00  0.00    -0.379 OA
ATOM     30  H   UNL     1     -35.711  20.051   5.169  0.00  0.00    +0.211 HD
ENDBRANCH  24  29
BRANCH  25  31
ATOM     31  O   UNL     1     -34.667  19.848   2.371  0.00  0.00    -0.379 OA
ATOM     32  H   UNL     1     -33.979  19.914   3.051  0.00  0.00    +0.211 HD
ENDBRANCH  25  31
BRANCH  26  33
ATOM     33  O   UNL     1     -36.120  23.579   4.997  0.00  0.00    -0.377 OA
ATOM     34  H   UNL     1     -36.700  24.348   4.885  0.00  0.00    +0.211 HD
ENDBRANCH  26  33
BRANCH  27  36
ATOM     35  O   UNL     1     -37.630  20.531  -0.379  0.00  0.00    -0.247 OA
ATOM     36  C   UNL     1     -37.091  20.249   0.681  0.00  0.00    +0.344 C 
BRANCH  36  37
ATOM     37  O   UNL     1     -36.975  18.989   1.168  0.00  0.00    -0.478 OA
ATOM     38  H   UNL     1     -37.163  18.817   2.070  0.00  0.00    +0.295 HD
ENDBRANCH  36  37
ENDBRANCH  27  36
ENDBRANCH  22  28
ENDBRANCH   2  22
TORSDOF 12
ENDMDL
