MODEL 1
REMARK VINA RESULT:      -8.0      0.000      0.000
REMARK  Name = 5494449
REMARK  4 active torsions:
REMARK  status: ('A' for Active; 'I' for Inactive)
REMARK    1  A    between atoms: C_13  and  S_24
REMARK    2  A    between atoms: S_24  and  C_28
REMARK    3  A    between atoms: C_25  and  N_32
REMARK    4  A    between atoms: C_33  and  C_35
REMARK                            x       y       z     vdW  Elec       q    Type
REMARK                         _______ _______ _______ _____ _____    ______ ____
ROOT
ATOM      1  N   UNL     1     -35.590  20.078   0.862  0.00  0.00    -0.290 N 
ATOM      2  N   UNL     1     -34.330  18.025  -0.674  0.00  0.00    +0.388 N 
ATOM      3  N   UNL     1     -35.627  21.225   2.931  0.00  0.00    -0.323 NA
ATOM      4  N   UNL     1     -37.355  22.848   3.364  0.00  0.00    -0.323 NA
ATOM      5  C   UNL     1     -36.366  18.920   0.407  0.00  0.00    +0.070 C 
ATOM      6  C   UNL     1     -34.139  19.872   0.958  0.00  0.00    +0.070 C 
ATOM      7  C   UNL     1     -35.753  18.330  -0.866  0.00  0.00    -0.056 C 
ATOM      8  C   UNL     1     -33.599  19.252  -0.333  0.00  0.00    -0.056 C 
ATOM      9  C   UNL     1     -36.179  21.015   1.719  0.00  0.00    +0.181 C 
ATOM     10  C   UNL     1     -33.770  17.412  -1.878  0.00  0.00    -0.101 C 
ATOM     11  C   UNL     1     -37.303  21.673   1.264  0.00  0.00    +0.151 C 
ATOM     12  C   UNL     1     -37.854  22.588   2.138  0.00  0.00    +0.183 C 
ATOM     13  C   UNL     1     -36.256  22.142   3.691  0.00  0.00    +0.174 C 
ATOM     14  H   UNL     1     -34.236  17.361   0.094  0.00  0.00    -0.080 HD
ATOM     15  N   UNL     1     -39.009  23.286   1.708  0.00  0.00    -0.275 N 
ATOM     16  N   UNL     1     -39.578  24.876   3.500  0.00  0.00    -0.166 NA
ATOM     17  N   UNL     1     -40.455  25.863   3.751  0.00  0.00    -0.239 N 
ATOM     18  C   UNL     1     -39.729  24.303   2.272  0.00  0.00    +0.152 C 
ATOM     19  C   UNL     1     -40.778  24.960   1.677  0.00  0.00    +0.048 C 
ATOM     20  C   UNL     1     -41.186  25.910   2.634  0.00  0.00    +0.046 C 
ATOM     21  C   UNL     1     -42.286  26.894   2.516  0.00  0.00    +0.049 C 
ATOM     22  H   UNL     1     -39.359  22.982   0.840  0.00  0.00    +0.156 HD
ATOM     23  H   UNL     1     -40.540  26.417   4.560  0.00  0.00    +0.174 HD
ENDROOT
BRANCH  13  24
ATOM     24  S   UNL     1     -35.563  22.452   5.302  0.00  0.00    +0.009 S 
BRANCH  24  28
ATOM     25  C   UNL     1     -33.688  26.582   4.690  0.00  0.00    +0.050 C 
ATOM     26  C   UNL     1     -33.687  25.655   3.648  0.00  0.00    +0.015 C 
ATOM     27  C   UNL     1     -34.260  26.250   5.919  0.00  0.00    +0.015 C 
ATOM     28  C   UNL     1     -34.831  24.064   5.064  0.00  0.00    +0.041 C 
ATOM     29  C   UNL     1     -34.258  24.396   3.835  0.00  0.00    +0.008 C 
ATOM     30  C   UNL     1     -34.831  24.992   6.105  0.00  0.00    +0.008 C 
BRANCH  25  32
ATOM     31  O   UNL     1     -31.142  27.757   5.784  0.00  0.00    -0.275 OA
ATOM     32  N   UNL     1     -33.117  27.841   4.504  0.00  0.00    -0.284 N 
ATOM     33  C   UNL     1     -31.924  28.334   5.041  0.00  0.00    +0.226 C 
ATOM     34  H   UNL     1     -33.615  28.459   3.922  0.00  0.00    +0.155 HD
BRANCH  33  35
ATOM     35  C   UNL     1     -31.611  29.738   4.629  0.00  0.00    +0.077 C 
ATOM     36  C   UNL     1     -31.798  30.849   5.619  0.00  0.00    +0.010 C 
ATOM     37  C   UNL     1     -32.735  30.715   4.455  0.00  0.00    +0.010 C 
ENDBRANCH  33  35
ENDBRANCH  25  32
ENDBRANCH  24  28
ENDBRANCH  13  24
TORSDOF 4
ENDMDL
MODEL 2
REMARK VINA RESULT:      -7.8      4.796      9.560
REMARK  Name = 5494449
REMARK  4 active torsions:
REMARK  status: ('A' for Active; 'I' for Inactive)
REMARK    1  A    between atoms: C_13  and  S_24
REMARK    2  A    between atoms: S_24  and  C_28
REMARK    3  A    between atoms: C_25  and  N_32
REMARK    4  A    between atoms: C_33  and  C_35
REMARK                            x       y       z     vdW  Elec       q    Type
REMARK                         _______ _______ _______ _____ _____    ______ ____
ROOT
ATOM      1  N   UNL     1     -36.223  29.773   0.841  0.00  0.00    -0.290 N 
ATOM      2  N   UNL     1     -35.572  32.403  -0.064  0.00  0.00    +0.388 N 
ATOM      3  N   UNL     1     -37.790  28.003   0.736  0.00  0.00    -0.323 NA
ATOM      4  N   UNL     1     -37.498  26.068   2.143  0.00  0.00    -0.323 NA
ATOM      5  C   UNL     1     -36.098  30.871   1.805  0.00  0.00    +0.070 C 
ATOM      6  C   UNL     1     -36.521  30.171  -0.540  0.00  0.00    +0.070 C 
ATOM      7  C   UNL     1     -35.154  31.951   1.269  0.00  0.00    -0.056 C 
ATOM      8  C   UNL     1     -35.563  31.273  -1.000  0.00  0.00    -0.056 C 
ATOM      9  C   UNL     1     -36.665  28.517   1.274  0.00  0.00    +0.181 C 
ATOM     10  C   UNL     1     -34.695  33.471  -0.542  0.00  0.00    -0.101 C 
ATOM     11  C   UNL     1     -35.912  27.876   2.237  0.00  0.00    +0.151 C 
ATOM     12  C   UNL     1     -36.381  26.642   2.637  0.00  0.00    +0.183 C 
ATOM     13  C   UNL     1     -38.143  26.792   1.209  0.00  0.00    +0.174 C 
ATOM     14  H   UNL     1     -36.520  32.773  -0.004  0.00  0.00    -0.080 HD
ATOM     15  N   UNL     1     -35.637  25.950   3.624  0.00  0.00    -0.275 N 
ATOM     16  N   UNL     1     -36.747  23.776   3.948  0.00  0.00    -0.166 NA
ATOM     17  N   UNL     1     -36.575  22.632   4.632  0.00  0.00    -0.239 N 
ATOM     18  C   UNL     1     -35.765  24.698   4.159  0.00  0.00    +0.152 C 
ATOM     19  C   UNL     1     -34.890  24.118   5.044  0.00  0.00    +0.048 C 
ATOM     20  C   UNL     1     -35.438  22.847   5.299  0.00  0.00    +0.046 C 
ATOM     21  C   UNL     1     -34.900  21.793   6.189  0.00  0.00    +0.049 C 
ATOM     22  H   UNL     1     -34.886  26.468   3.993  0.00  0.00    +0.156 HD
ATOM     23  H   UNL     1     -37.147  21.831   4.639  0.00  0.00    +0.174 HD
ENDROOT
BRANCH  13  24
ATOM     24  S   UNL     1     -39.624  26.073   0.528  0.00  0.00    +0.009 S 
BRANCH  24  28
ATOM     25  C   UNL     1     -42.812  27.724   3.366  0.00  0.00    +0.050 C 
ATOM     26  C   UNL     1     -42.728  28.201   2.058  0.00  0.00    +0.015 C 
ATOM     27  C   UNL     1     -41.924  26.743   3.808  0.00  0.00    +0.015 C 
ATOM     28  C   UNL     1     -40.868  26.718   1.636  0.00  0.00    +0.041 C 
ATOM     29  C   UNL     1     -41.757  27.699   1.193  0.00  0.00    +0.008 C 
ATOM     30  C   UNL     1     -40.953  26.241   2.943  0.00  0.00    +0.008 C 
BRANCH  25  32
ATOM     31  O   UNL     1     -42.619  29.812   5.525  0.00  0.00    -0.275 OA
ATOM     32  N   UNL     1     -43.784  28.226   4.231  0.00  0.00    -0.284 N 
ATOM     33  C   UNL     1     -43.635  29.203   5.220  0.00  0.00    +0.226 C 
ATOM     34  H   UNL     1     -44.687  27.847   4.133  0.00  0.00    +0.155 HD
BRANCH  33  35
ATOM     35  C   UNL     1     -44.896  29.503   5.968  0.00  0.00    +0.077 C 
ATOM     36  C   UNL     1     -45.013  30.799   6.714  0.00  0.00    +0.010 C 
ATOM     37  C   UNL     1     -44.871  29.510   7.468  0.00  0.00    +0.010 C 
ENDBRANCH  33  35
ENDBRANCH  25  32
ENDBRANCH  24  28
ENDBRANCH  13  24
TORSDOF 4
ENDMDL
MODEL 3
REMARK VINA RESULT:      -7.6      1.002      1.378
REMARK  Name = 5494449
REMARK  4 active torsions:
REMARK  status: ('A' for Active; 'I' for Inactive)
REMARK    1  A    between atoms: C_13  and  S_24
REMARK    2  A    between atoms: S_24  and  C_28
REMARK    3  A    between atoms: C_25  and  N_32
REMARK    4  A    between atoms: C_33  and  C_35
REMARK                            x       y       z     vdW  Elec       q    Type
REMARK                         _______ _______ _______ _____ _____    ______ ____
ROOT
ATOM      1  N   UNL     1     -35.529  20.174   1.004  0.00  0.00    -0.290 N 
ATOM      2  N   UNL     1     -34.255  18.102  -0.495  0.00  0.00    +0.388 N 
ATOM      3  N   UNL     1     -35.522  21.414   3.019  0.00  0.00    -0.323 NA
ATOM      4  N   UNL     1     -37.294  22.988   3.457  0.00  0.00    -0.323 NA
ATOM      5  C   UNL     1     -36.277  18.968   0.637  0.00  0.00    +0.070 C 
ATOM      6  C   UNL     1     -34.069  20.029   1.042  0.00  0.00    +0.070 C 
ATOM      7  C   UNL     1     -35.697  18.343  -0.635  0.00  0.00    -0.056 C 
ATOM      8  C   UNL     1     -33.560  19.370  -0.243  0.00  0.00    -0.056 C 
ATOM      9  C   UNL     1     -36.117  21.127   1.844  0.00  0.00    +0.181 C 
ATOM     10  C   UNL     1     -33.724  17.456  -1.694  0.00  0.00    -0.101 C 
ATOM     11  C   UNL     1     -37.286  21.720   1.411  0.00  0.00    +0.151 C 
ATOM     12  C   UNL     1     -37.835  22.652   2.267  0.00  0.00    +0.183 C 
ATOM     13  C   UNL     1     -36.154  22.340   3.765  0.00  0.00    +0.174 C 
ATOM     14  H   UNL     1     -34.101  17.479   0.297  0.00  0.00    -0.080 HD
ATOM     15  N   UNL     1     -39.035  23.285   1.860  0.00  0.00    -0.275 N 
ATOM     16  N   UNL     1     -39.589  24.933   3.604  0.00  0.00    -0.166 NA
ATOM     17  N   UNL     1     -40.494  25.896   3.849  0.00  0.00    -0.239 N 
ATOM     18  C   UNL     1     -39.770  24.298   2.410  0.00  0.00    +0.152 C 
ATOM     19  C   UNL     1     -40.870  24.886   1.835  0.00  0.00    +0.048 C 
ATOM     20  C   UNL     1     -41.273  25.863   2.766  0.00  0.00    +0.046 C 
ATOM     21  C   UNL     1     -42.416  26.798   2.655  0.00  0.00    +0.049 C 
ATOM     22  H   UNL     1     -39.410  22.928   1.023  0.00  0.00    +0.156 HD
ATOM     23  H   UNL     1     -40.565  26.483   4.636  0.00  0.00    +0.174 HD
ENDROOT
BRANCH  13  24
ATOM     24  S   UNL     1     -35.404  22.752   5.328  0.00  0.00    +0.009 S 
BRANCH  24  28
ATOM     25  C   UNL     1     -33.571  26.840   4.395  0.00  0.00    +0.050 C 
ATOM     26  C   UNL     1     -33.920  26.515   5.706  0.00  0.00    +0.015 C 
ATOM     27  C   UNL     1     -33.781  25.919   3.369  0.00  0.00    +0.015 C 
ATOM     28  C   UNL     1     -34.688  24.348   4.963  0.00  0.00    +0.041 C 
ATOM     29  C   UNL     1     -34.478  25.269   5.990  0.00  0.00    +0.008 C 
ATOM     30  C   UNL     1     -34.339  24.674   3.653  0.00  0.00    +0.008 C 
BRANCH  25  32
ATOM     31  O   UNL     1     -34.808  29.316   3.212  0.00  0.00    -0.275 OA
ATOM     32  N   UNL     1     -33.012  28.086   4.110  0.00  0.00    -0.284 N 
ATOM     33  C   UNL     1     -33.640  29.206   3.558  0.00  0.00    +0.226 C 
ATOM     34  H   UNL     1     -32.057  28.190   4.326  0.00  0.00    +0.155 HD
BRANCH  33  35
ATOM     35  C   UNL     1     -32.733  30.385   3.388  0.00  0.00    +0.077 C 
ATOM     36  C   UNL     1     -31.249  30.182   3.460  0.00  0.00    +0.010 C 
ATOM     37  C   UNL     1     -31.965  30.890   4.573  0.00  0.00    +0.010 C 
ENDBRANCH  33  35
ENDBRANCH  25  32
ENDBRANCH  24  28
ENDBRANCH  13  24
TORSDOF 4
ENDMDL
MODEL 4
REMARK VINA RESULT:      -7.5      1.225      6.261
REMARK  Name = 5494449
REMARK  4 active torsions:
REMARK  status: ('A' for Active; 'I' for Inactive)
REMARK    1  A    between atoms: C_13  and  S_24
REMARK    2  A    between atoms: S_24  and  C_28
REMARK    3  A    between atoms: C_25  and  N_32
REMARK    4  A    between atoms: C_33  and  C_35
REMARK                            x       y       z     vdW  Elec       q    Type
REMARK                         _______ _______ _______ _____ _____    ______ ____
ROOT
ATOM      1  N   UNL     1     -39.411  24.600   2.101  0.00  0.00    -0.290 N 
ATOM      2  N   UNL     1     -41.159  26.859   2.128  0.00  0.00    +0.388 N 
ATOM      3  N   UNL     1     -37.620  23.503   3.191  0.00  0.00    -0.323 NA
ATOM      4  N   UNL     1     -36.638  21.542   2.191  0.00  0.00    -0.323 NA
ATOM      5  C   UNL     1     -39.401  25.548   0.983  0.00  0.00    +0.070 C 
ATOM      6  C   UNL     1     -39.916  25.125   3.375  0.00  0.00    +0.070 C 
ATOM      7  C   UNL     1     -40.760  26.242   0.856  0.00  0.00    -0.056 C 
ATOM      8  C   UNL     1     -41.258  25.831   3.171  0.00  0.00    -0.056 C 
ATOM      9  C   UNL     1     -38.467  23.567   2.143  0.00  0.00    +0.181 C 
ATOM     10  C   UNL     1     -42.431  27.564   1.979  0.00  0.00    -0.101 C 
ATOM     11  C   UNL     1     -38.461  22.668   1.096  0.00  0.00    +0.151 C 
ATOM     12  C   UNL     1     -37.515  21.666   1.174  0.00  0.00    +0.183 C 
ATOM     13  C   UNL     1     -36.744  22.480   3.151  0.00  0.00    +0.174 C 
ATOM     14  H   UNL     1     -40.449  27.538   2.401  0.00  0.00    -0.080 HD
ATOM     15  N   UNL     1     -37.477  20.722   0.119  0.00  0.00    -0.275 N 
ATOM     16  N   UNL     1     -35.749  19.072   0.713  0.00  0.00    -0.166 NA
ATOM     17  N   UNL     1     -35.237  17.918   0.253  0.00  0.00    -0.239 N 
ATOM     18  C   UNL     1     -36.749  19.579  -0.063  0.00  0.00    +0.152 C 
ATOM     19  C   UNL     1     -36.901  18.697  -1.104  0.00  0.00    +0.048 C 
ATOM     20  C   UNL     1     -35.944  17.693  -0.857  0.00  0.00    +0.046 C 
ATOM     21  C   UNL     1     -35.670  16.488  -1.671  0.00  0.00    +0.049 C 
ATOM     22  H   UNL     1     -38.090  20.928  -0.623  0.00  0.00    +0.156 HD
ATOM     23  H   UNL     1     -34.515  17.371   0.640  0.00  0.00    +0.174 HD
ENDROOT
BRANCH  13  24
ATOM     24  S   UNL     1     -35.605  22.355   4.515  0.00  0.00    +0.009 S 
BRANCH  24  28
ATOM     25  C   UNL     1     -33.841  26.577   4.601  0.00  0.00    +0.050 C 
ATOM     26  C   UNL     1     -34.465  26.059   5.736  0.00  0.00    +0.015 C 
ATOM     27  C   UNL     1     -33.755  25.808   3.440  0.00  0.00    +0.015 C 
ATOM     28  C   UNL     1     -34.916  24.003   4.548  0.00  0.00    +0.041 C 
ATOM     29  C   UNL     1     -35.003  24.772   5.710  0.00  0.00    +0.008 C 
ATOM     30  C   UNL     1     -34.292  24.522   3.414  0.00  0.00    +0.008 C 
BRANCH  25  32
ATOM     31  O   UNL     1     -31.338  27.626   5.903  0.00  0.00    -0.275 OA
ATOM     32  N   UNL     1     -33.303  27.864   4.627  0.00  0.00    -0.284 N 
ATOM     33  C   UNL     1     -32.129  28.294   5.252  0.00  0.00    +0.226 C 
ATOM     34  H   UNL     1     -33.813  28.554   4.145  0.00  0.00    +0.155 HD
BRANCH  33  35
ATOM     35  C   UNL     1     -31.851  29.755   5.075  0.00  0.00    +0.077 C 
ATOM     36  C   UNL     1     -30.566  30.322   5.599  0.00  0.00    +0.010 C 
ATOM     37  C   UNL     1     -31.863  30.650   6.279  0.00  0.00    +0.010 C 
ENDBRANCH  33  35
ENDBRANCH  25  32
ENDBRANCH  24  28
ENDBRANCH  13  24
TORSDOF 4
ENDMDL
MODEL 5
REMARK VINA RESULT:      -7.4      1.382      6.152
REMARK  Name = 5494449
REMARK  4 active torsions:
REMARK  status: ('A' for Active; 'I' for Inactive)
REMARK    1  A    between atoms: C_13  and  S_24
REMARK    2  A    between atoms: S_24  and  C_28
REMARK    3  A    between atoms: C_25  and  N_32
REMARK    4  A    between atoms: C_33  and  C_35
REMARK                            x       y       z     vdW  Elec       q    Type
REMARK                         _______ _______ _______ _____ _____    ______ ____
ROOT
ATOM      1  N   UNL     1     -38.561  23.355   1.117  0.00  0.00    -0.290 N 
ATOM      2  N   UNL     1     -40.675  25.088   0.288  0.00  0.00    +0.388 N 
ATOM      3  N   UNL     1     -37.043  22.816   2.851  0.00  0.00    -0.323 NA
ATOM      4  N   UNL     1     -35.368  21.122   2.485  0.00  0.00    -0.323 NA
ATOM      5  C   UNL     1     -38.388  24.212  -0.059  0.00  0.00    +0.070 C 
ATOM      6  C   UNL     1     -39.569  23.801   2.086  0.00  0.00    +0.070 C 
ATOM      7  C   UNL     1     -39.744  24.526  -0.699  0.00  0.00    -0.056 C 
ATOM      8  C   UNL     1     -40.887  24.127   1.378  0.00  0.00    -0.056 C 
ATOM      9  C   UNL     1     -37.479  22.603   1.593  0.00  0.00    +0.181 C 
ATOM     10  C   UNL     1     -41.947  25.432  -0.346  0.00  0.00    -0.101 C 
ATOM     11  C   UNL     1     -36.920  21.681   0.733  0.00  0.00    +0.151 C 
ATOM     12  C   UNL     1     -35.856  20.961   1.238  0.00  0.00    +0.183 C 
ATOM     13  C   UNL     1     -36.000  22.052   3.227  0.00  0.00    +0.174 C 
ATOM     14  H   UNL     1     -40.270  25.940   0.675  0.00  0.00    -0.080 HD
ATOM     15  N   UNL     1     -35.254  20.003   0.387  0.00  0.00    -0.275 N 
ATOM     16  N   UNL     1     -33.504  18.886   1.711  0.00  0.00    -0.166 NA
ATOM     17  N   UNL     1     -32.621  17.880   1.596  0.00  0.00    -0.239 N 
ATOM     18  C   UNL     1     -34.271  19.077   0.599  0.00  0.00    +0.152 C 
ATOM     19  C   UNL     1     -33.861  18.130  -0.306  0.00  0.00    +0.048 C 
ATOM     20  C   UNL     1     -32.844  17.421   0.362  0.00  0.00    +0.046 C 
ATOM     21  C   UNL     1     -32.048  16.283  -0.154  0.00  0.00    +0.049 C 
ATOM     22  H   UNL     1     -35.611  20.004  -0.530  0.00  0.00    +0.156 HD
ATOM     23  H   UNL     1     -31.969  17.558   2.259  0.00  0.00    +0.174 HD
ENDROOT
BRANCH  13  24
ATOM     24  S   UNL     1     -35.388  22.298   4.882  0.00  0.00    +0.009 S 
BRANCH  24  28
ATOM     25  C   UNL     1     -33.791  26.579   4.619  0.00  0.00    +0.050 C 
ATOM     26  C   UNL     1     -33.681  25.725   3.522  0.00  0.00    +0.015 C 
ATOM     27  C   UNL     1     -34.388  26.128   5.797  0.00  0.00    +0.015 C 
ATOM     28  C   UNL     1     -34.765  23.969   4.780  0.00  0.00    +0.041 C 
ATOM     29  C   UNL     1     -34.168  24.420   3.602  0.00  0.00    +0.008 C 
ATOM     30  C   UNL     1     -34.875  24.824   5.876  0.00  0.00    +0.008 C 
BRANCH  25  32
ATOM     31  O   UNL     1     -31.357  27.839   5.862  0.00  0.00    -0.275 OA
ATOM     32  N   UNL     1     -33.305  27.884   4.540  0.00  0.00    -0.284 N 
ATOM     33  C   UNL     1     -32.161  28.415   5.142  0.00  0.00    +0.226 C 
ATOM     34  H   UNL     1     -33.832  28.508   3.990  0.00  0.00    +0.155 HD
BRANCH  33  35
ATOM     35  C   UNL     1     -31.937  29.865   4.841  0.00  0.00    +0.077 C 
ATOM     36  C   UNL     1     -30.631  30.496   5.222  0.00  0.00    +0.010 C 
ATOM     37  C   UNL     1     -31.882  30.845   5.975  0.00  0.00    +0.010 C 
ENDBRANCH  33  35
ENDBRANCH  25  32
ENDBRANCH  24  28
ENDBRANCH  13  24
TORSDOF 4
ENDMDL
MODEL 6
REMARK VINA RESULT:      -7.1      3.503      9.339
REMARK  Name = 5494449
REMARK  4 active torsions:
REMARK  status: ('A' for Active; 'I' for Inactive)
REMARK    1  A    between atoms: C_13  and  S_24
REMARK    2  A    between atoms: S_24  and  C_28
REMARK    3  A    between atoms: C_25  and  N_32
REMARK    4  A    between atoms: C_33  and  C_35
REMARK                            x       y       z     vdW  Elec       q    Type
REMARK                         _______ _______ _______ _____ _____    ______ ____
ROOT
ATOM      1  N   UNL     1     -43.188  26.985   2.591  0.00  0.00    -0.290 N 
ATOM      2  N   UNL     1     -45.598  28.466   2.994  0.00  0.00    +0.388 N 
ATOM      3  N   UNL     1     -42.105  25.334   1.288  0.00  0.00    -0.323 NA
ATOM      4  N   UNL     1     -39.904  24.577   1.912  0.00  0.00    -0.323 NA
ATOM      5  C   UNL     1     -43.921  26.864   3.855  0.00  0.00    +0.070 C 
ATOM      6  C   UNL     1     -43.979  27.432   1.438  0.00  0.00    +0.070 C 
ATOM      7  C   UNL     1     -44.729  28.135   4.131  0.00  0.00    -0.056 C 
ATOM      8  C   UNL     1     -44.785  28.685   1.792  0.00  0.00    -0.056 C 
ATOM      9  C   UNL     1     -42.080  26.164   2.350  0.00  0.00    +0.181 C 
ATOM     10  C   UNL     1     -46.403  29.650   3.292  0.00  0.00    -0.101 C 
ATOM     11  C   UNL     1     -41.018  26.257   3.226  0.00  0.00    +0.151 C 
ATOM     12  C   UNL     1     -39.946  25.432   2.955  0.00  0.00    +0.183 C 
ATOM     13  C   UNL     1     -41.000  24.580   1.130  0.00  0.00    +0.174 C 
ATOM     14  H   UNL     1     -46.231  27.684   2.826  0.00  0.00    -0.080 HD
ATOM     15  N   UNL     1     -38.835  25.497   3.830  0.00  0.00    -0.275 N 
ATOM     16  N   UNL     1     -37.131  23.969   2.921  0.00  0.00    -0.166 NA
ATOM     17  N   UNL     1     -35.865  23.589   3.163  0.00  0.00    -0.239 N 
ATOM     18  C   UNL     1     -37.603  24.903   3.796  0.00  0.00    +0.152 C 
ATOM     19  C   UNL     1     -36.576  25.150   4.672  0.00  0.00    +0.048 C 
ATOM     20  C   UNL     1     -35.531  24.314   4.234  0.00  0.00    +0.046 C 
ATOM     21  C   UNL     1     -34.179  24.176   4.821  0.00  0.00    +0.049 C 
ATOM     22  H   UNL     1     -38.975  26.080   4.611  0.00  0.00    +0.156 HD
ATOM     23  H   UNL     1     -35.317  22.936   2.672  0.00  0.00    +0.174 HD
ENDROOT
BRANCH  13  24
ATOM     24  S   UNL     1     -40.989  23.466  -0.260  0.00  0.00    +0.009 S 
BRANCH  24  28
ATOM     25  C   UNL     1     -37.071  21.205   0.434  0.00  0.00    +0.050 C 
ATOM     26  C   UNL     1     -38.269  20.691   0.928  0.00  0.00    +0.015 C 
ATOM     27  C   UNL     1     -37.067  22.408  -0.272  0.00  0.00    +0.015 C 
ATOM     28  C   UNL     1     -39.459  22.584   0.011  0.00  0.00    +0.041 C 
ATOM     29  C   UNL     1     -39.464  21.380   0.717  0.00  0.00    +0.008 C 
ATOM     30  C   UNL     1     -38.260  23.096  -0.483  0.00  0.00    +0.008 C 
BRANCH  25  32
ATOM     31  O   UNL     1     -35.605  20.565   2.984  0.00  0.00    -0.275 OA
ATOM     32  N   UNL     1     -35.876  20.516   0.645  0.00  0.00    -0.284 N 
ATOM     33  C   UNL     1     -35.240  20.247   1.860  0.00  0.00    +0.226 C 
ATOM     34  H   UNL     1     -35.426  20.176  -0.162  0.00  0.00    +0.155 HD
BRANCH  33  35
ATOM     35  C   UNL     1     -33.964  19.478   1.717  0.00  0.00    +0.077 C 
ATOM     36  C   UNL     1     -33.046  19.791   0.573  0.00  0.00    +0.010 C 
ATOM     37  C   UNL     1     -33.822  18.506   0.583  0.00  0.00    +0.010 C 
ENDBRANCH  33  35
ENDBRANCH  25  32
ENDBRANCH  24  28
ENDBRANCH  13  24
TORSDOF 4
ENDMDL
MODEL 7
REMARK VINA RESULT:      -6.8      4.052      8.713
REMARK  Name = 5494449
REMARK  4 active torsions:
REMARK  status: ('A' for Active; 'I' for Inactive)
REMARK    1  A    between atoms: C_13  and  S_24
REMARK    2  A    between atoms: S_24  and  C_28
REMARK    3  A    between atoms: C_25  and  N_32
REMARK    4  A    between atoms: C_33  and  C_35
REMARK                            x       y       z     vdW  Elec       q    Type
REMARK                         _______ _______ _______ _____ _____    ______ ____
ROOT
ATOM      1  N   UNL     1     -42.132  26.939   2.734  0.00  0.00    -0.290 N 
ATOM      2  N   UNL     1     -44.056  29.007   3.163  0.00  0.00    +0.388 N 
ATOM      3  N   UNL     1     -39.918  26.213   3.149  0.00  0.00    -0.323 NA
ATOM      4  N   UNL     1     -39.109  24.198   2.104  0.00  0.00    -0.323 NA
ATOM      5  C   UNL     1     -42.691  27.670   1.592  0.00  0.00    +0.070 C 
ATOM      6  C   UNL     1     -42.187  27.637   4.024  0.00  0.00    +0.070 C 
ATOM      7  C   UNL     1     -44.084  28.209   1.930  0.00  0.00    -0.056 C 
ATOM      8  C   UNL     1     -43.595  28.177   4.283  0.00  0.00    -0.056 C 
ATOM      9  C   UNL     1     -41.100  26.016   2.529  0.00  0.00    +0.181 C 
ATOM     10  C   UNL     1     -45.379  29.560   3.446  0.00  0.00    -0.101 C 
ATOM     11  C   UNL     1     -41.358  24.948   1.694  0.00  0.00    +0.151 C 
ATOM     12  C   UNL     1     -40.316  24.062   1.516  0.00  0.00    +0.183 C 
ATOM     13  C   UNL     1     -38.981  25.280   2.896  0.00  0.00    +0.174 C 
ATOM     14  H   UNL     1     -43.406  29.782   3.039  0.00  0.00    -0.080 HD
ATOM     15  N   UNL     1     -40.540  22.952   0.667  0.00  0.00    -0.275 N 
ATOM     16  N   UNL     1     -38.490  21.590   0.730  0.00  0.00    -0.166 NA
ATOM     17  N   UNL     1     -38.024  20.421   0.258  0.00  0.00    -0.239 N 
ATOM     18  C   UNL     1     -39.774  21.862   0.360  0.00  0.00    +0.152 C 
ATOM     19  C   UNL     1     -40.176  20.798  -0.409  0.00  0.00    +0.048 C 
ATOM     20  C   UNL     1     -39.059  19.941  -0.437  0.00  0.00    +0.046 C 
ATOM     21  C   UNL     1     -38.937  18.638  -1.128  0.00  0.00    +0.049 C 
ATOM     22  H   UNL     1     -41.413  22.968   0.212  0.00  0.00    +0.156 HD
ATOM     23  H   UNL     1     -37.137  20.017   0.391  0.00  0.00    +0.174 HD
ENDROOT
BRANCH  13  24
ATOM     24  S   UNL     1     -37.403  25.500   3.694  0.00  0.00    +0.009 S 
BRANCH  24  28
ATOM     25  C   UNL     1     -35.107  21.849   2.164  0.00  0.00    +0.050 C 
ATOM     26  C   UNL     1     -35.124  23.025   1.415  0.00  0.00    +0.015 C 
ATOM     27  C   UNL     1     -35.790  21.785   3.378  0.00  0.00    +0.015 C 
ATOM     28  C   UNL     1     -36.507  24.074   3.096  0.00  0.00    +0.041 C 
ATOM     29  C   UNL     1     -35.824  24.138   1.881  0.00  0.00    +0.008 C 
ATOM     30  C   UNL     1     -36.489  22.897   3.844  0.00  0.00    +0.008 C 
BRANCH  25  32
ATOM     31  O   UNL     1     -35.270  20.394  -0.467  0.00  0.00    -0.275 OA
ATOM     32  N   UNL     1     -34.407  20.736   1.698  0.00  0.00    -0.284 N 
ATOM     33  C   UNL     1     -34.526  20.100   0.458  0.00  0.00    +0.226 C 
ATOM     34  H   UNL     1     -33.747  20.350   2.318  0.00  0.00    +0.155 HD
BRANCH  33  35
ATOM     35  C   UNL     1     -33.613  18.925   0.292  0.00  0.00    +0.077 C 
ATOM     36  C   UNL     1     -32.937  18.349   1.499  0.00  0.00    +0.010 C 
ATOM     37  C   UNL     1     -32.138  19.115   0.486  0.00  0.00    +0.010 C 
ENDBRANCH  33  35
ENDBRANCH  25  32
ENDBRANCH  24  28
ENDBRANCH  13  24
TORSDOF 4
ENDMDL
MODEL 8
REMARK VINA RESULT:      -6.7      2.557      3.304
REMARK  Name = 5494449
REMARK  4 active torsions:
REMARK  status: ('A' for Active; 'I' for Inactive)
REMARK    1  A    between atoms: C_13  and  S_24
REMARK    2  A    between atoms: S_24  and  C_28
REMARK    3  A    between atoms: C_25  and  N_32
REMARK    4  A    between atoms: C_33  and  C_35
REMARK                            x       y       z     vdW  Elec       q    Type
REMARK                         _______ _______ _______ _____ _____    ______ ____
ROOT
ATOM      1  N   UNL     1     -37.987  21.019   0.185  0.00  0.00    -0.290 N 
ATOM      2  N   UNL     1     -39.074  18.722  -1.119  0.00  0.00    +0.388 N 
ATOM      3  N   UNL     1     -36.854  21.825   2.100  0.00  0.00    -0.323 NA
ATOM      4  N   UNL     1     -36.511  24.195   2.372  0.00  0.00    -0.323 NA
ATOM      5  C   UNL     1     -39.422  20.952  -0.108  0.00  0.00    +0.070 C 
ATOM      6  C   UNL     1     -37.295  19.728   0.271  0.00  0.00    +0.070 C 
ATOM      7  C   UNL     1     -39.682  20.044  -1.314  0.00  0.00    -0.056 C 
ATOM      8  C   UNL     1     -37.622  18.861  -0.947  0.00  0.00    -0.056 C 
ATOM      9  C   UNL     1     -37.481  22.088   0.935  0.00  0.00    +0.181 C 
ATOM     10  C   UNL     1     -39.374  17.848  -2.253  0.00  0.00    -0.101 C 
ATOM     11  C   UNL     1     -37.660  23.359   0.429  0.00  0.00    +0.151 C 
ATOM     12  C   UNL     1     -37.149  24.385   1.198  0.00  0.00    +0.183 C 
ATOM     13  C   UNL     1     -36.400  22.910   2.757  0.00  0.00    +0.174 C 
ATOM     14  H   UNL     1     -39.466  18.300  -0.279  0.00  0.00    -0.080 HD
ATOM     15  N   UNL     1     -37.310  25.706   0.714  0.00  0.00    -0.275 N 
ATOM     16  N   UNL     1     -36.163  27.187   2.313  0.00  0.00    -0.166 NA
ATOM     17  N   UNL     1     -35.854  28.486   2.462  0.00  0.00    -0.239 N 
ATOM     18  C   UNL     1     -36.850  26.912   1.167  0.00  0.00    +0.152 C 
ATOM     19  C   UNL     1     -37.001  28.114   0.522  0.00  0.00    +0.048 C 
ATOM     20  C   UNL     1     -36.368  29.048   1.365  0.00  0.00    +0.046 C 
ATOM     21  C   UNL     1     -36.233  30.507   1.155  0.00  0.00    +0.049 C 
ATOM     22  H   UNL     1     -37.856  25.768  -0.102  0.00  0.00    +0.156 HD
ATOM     23  H   UNL     1     -35.367  28.919   3.200  0.00  0.00    +0.174 HD
ENDROOT
BRANCH  13  24
ATOM     24  S   UNL     1     -35.564  22.611   4.302  0.00  0.00    +0.009 S 
BRANCH  24  28
ATOM     25  C   UNL     1     -33.561  26.660   5.036  0.00  0.00    +0.050 C 
ATOM     26  C   UNL     1     -34.466  26.151   5.967  0.00  0.00    +0.015 C 
ATOM     27  C   UNL     1     -33.267  25.935   3.881  0.00  0.00    +0.015 C 
ATOM     28  C   UNL     1     -34.782  24.192   4.588  0.00  0.00    +0.041 C 
ATOM     29  C   UNL     1     -35.077  24.917   5.744  0.00  0.00    +0.008 C 
ATOM     30  C   UNL     1     -33.877  24.702   3.658  0.00  0.00    +0.008 C 
BRANCH  25  32
ATOM     31  O   UNL     1     -31.136  27.376   6.668  0.00  0.00    -0.275 OA
ATOM     32  N   UNL     1     -32.950  27.894   5.259  0.00  0.00    -0.284 N 
ATOM     33  C   UNL     1     -31.818  28.168   6.032  0.00  0.00    +0.226 C 
ATOM     34  H   UNL     1     -33.368  28.669   4.818  0.00  0.00    +0.155 HD
BRANCH  33  35
ATOM     35  C   UNL     1     -31.435  29.615   6.052  0.00  0.00    +0.077 C 
ATOM     36  C   UNL     1     -32.226  30.591   5.233  0.00  0.00    +0.010 C 
ATOM     37  C   UNL     1     -30.829  30.226   4.823  0.00  0.00    +0.010 C 
ENDBRANCH  33  35
ENDBRANCH  25  32
ENDBRANCH  24  28
ENDBRANCH  13  24
TORSDOF 4
ENDMDL
MODEL 9
REMARK VINA RESULT:      -6.7      4.451     11.569
REMARK  Name = 5494449
REMARK  4 active torsions:
REMARK  status: ('A' for Active; 'I' for Inactive)
REMARK    1  A    between atoms: C_13  and  S_24
REMARK    2  A    between atoms: S_24  and  C_28
REMARK    3  A    between atoms: C_25  and  N_32
REMARK    4  A    between atoms: C_33  and  C_35
REMARK                            x       y       z     vdW  Elec       q    Type
REMARK                         _______ _______ _______ _____ _____    ______ ____
ROOT
ATOM      1  N   UNL     1     -36.071  22.464   3.071  0.00  0.00    -0.290 N 
ATOM      2  N   UNL     1     -36.383  24.652   4.881  0.00  0.00    +0.388 N 
ATOM      3  N   UNL     1     -37.113  21.137   1.412  0.00  0.00    -0.323 NA
ATOM      4  N   UNL     1     -35.954  19.225   0.512  0.00  0.00    -0.323 NA
ATOM      5  C   UNL     1     -35.942  22.246   4.515  0.00  0.00    +0.070 C 
ATOM      6  C   UNL     1     -36.851  23.642   2.674  0.00  0.00    +0.070 C 
ATOM      7  C   UNL     1     -35.493  23.532   5.214  0.00  0.00    -0.056 C 
ATOM      8  C   UNL     1     -36.372  24.883   3.432  0.00  0.00    -0.056 C 
ATOM      9  C   UNL     1     -36.043  21.369   2.199  0.00  0.00    +0.181 C 
ATOM     10  C   UNL     1     -35.976  25.861   5.597  0.00  0.00    -0.101 C 
ATOM     11  C   UNL     1     -34.907  20.586   2.199  0.00  0.00    +0.151 C 
ATOM     12  C   UNL     1     -34.918  19.517   1.327  0.00  0.00    +0.183 C 
ATOM     13  C   UNL     1     -37.003  20.065   0.605  0.00  0.00    +0.174 C 
ATOM     14  H   UNL     1     -37.332  24.415   5.170  0.00  0.00    -0.080 HD
ATOM     15  N   UNL     1     -33.771  18.688   1.296  0.00  0.00    -0.275 N 
ATOM     16  N   UNL     1     -34.165  17.003  -0.456  0.00  0.00    -0.166 NA
ATOM     17  N   UNL     1     -33.524  15.992  -1.065  0.00  0.00    -0.239 N 
ATOM     18  C   UNL     1     -33.423  17.632   0.500  0.00  0.00    +0.152 C 
ATOM     19  C   UNL     1     -32.211  16.986   0.519  0.00  0.00    +0.048 C 
ATOM     20  C   UNL     1     -32.330  15.986  -0.466  0.00  0.00    +0.046 C 
ATOM     21  C   UNL     1     -31.312  14.989  -0.868  0.00  0.00    +0.049 C 
ATOM     22  H   UNL     1     -33.096  18.915   1.975  0.00  0.00    +0.156 HD
ATOM     23  H   UNL     1     -33.852  15.399  -1.779  0.00  0.00    +0.174 HD
ENDROOT
BRANCH  13  24
ATOM     24  S   UNL     1     -38.394  19.718  -0.452  0.00  0.00    +0.009 S 
BRANCH  24  28
ATOM     25  C   UNL     1     -37.308  15.562  -2.031  0.00  0.00    +0.050 C 
ATOM     26  C   UNL     1     -37.934  15.695  -0.792  0.00  0.00    +0.015 C 
ATOM     27  C   UNL     1     -37.013  16.695  -2.789  0.00  0.00    +0.015 C 
ATOM     28  C   UNL     1     -37.970  18.096  -1.069  0.00  0.00    +0.041 C 
ATOM     29  C   UNL     1     -38.265  16.962  -0.310  0.00  0.00    +0.008 C 
ATOM     30  C   UNL     1     -37.344  17.961  -2.308  0.00  0.00    +0.008 C 
BRANCH  25  32
ATOM     31  O   UNL     1     -35.224  13.599  -1.104  0.00  0.00    -0.275 OA
ATOM     32  N   UNL     1     -36.977  14.295  -2.513  0.00  0.00    -0.284 N 
ATOM     33  C   UNL     1     -35.993  13.423  -2.039  0.00  0.00    +0.226 C 
ATOM     34  H   UNL     1     -37.503  13.975  -3.282  0.00  0.00    +0.155 HD
BRANCH  33  35
ATOM     35  C   UNL     1     -35.910  12.135  -2.797  0.00  0.00    +0.077 C 
ATOM     36  C   UNL     1     -36.668  10.942  -2.297  0.00  0.00    +0.010 C 
ATOM     37  C   UNL     1     -35.172  10.979  -2.192  0.00  0.00    +0.010 C 
ENDBRANCH  33  35
ENDBRANCH  25  32
ENDBRANCH  24  28
ENDBRANCH  13  24
TORSDOF 4
ENDMDL
