MODEL 1
REMARK VINA RESULT:      -5.9      0.000      0.000
REMARK  Name = 59511063
REMARK  6 active torsions:
REMARK  status: ('A' for Active; 'I' for Inactive)
REMARK    1  A    between atoms: N_1  and  C_6
REMARK    2  A    between atoms: C_4  and  C_12
REMARK    3  A    between atoms: C_6  and  C_8
REMARK    4  A    between atoms: C_6  and  C_9
REMARK    5  A    between atoms: C_9  and  O_10
REMARK    6  A    between atoms: C_12  and  N_15
REMARK                            x       y       z     vdW  Elec       q    Type
REMARK                         _______ _______ _______ _____ _____    ______ ____
ROOT
ATOM      1  N   UNL     1     -33.521  27.419   4.793  0.00  0.00    -0.159 NA
ATOM      2  N   UNL     1     -34.437  27.898   3.935  0.00  0.00    -0.063 NA
ATOM      3  N   UNL     1     -35.475  27.069   3.964  0.00  0.00    -0.152 NA
ATOM      4  C   UNL     1     -35.190  26.070   4.852  0.00  0.00    +0.095 C 
ATOM      5  C   UNL     1     -33.946  26.274   5.393  0.00  0.00    +0.140 C 
ENDROOT
BRANCH   1   6
ATOM      6  C   UNL     1     -32.199  28.144   5.004  0.00  0.00    +0.144 C 
BRANCH   6   8
ATOM      7  F   UNL     1     -32.501  30.462   5.315  0.00  0.00    -0.233 F 
ATOM      8  C   UNL     1     -32.225  29.532   4.360  0.00  0.00    +0.213 C 
ENDBRANCH   6   8
BRANCH   6   9
ATOM      9  C   UNL     1     -31.832  28.244   6.490  0.00  0.00    +0.158 C 
BRANCH   9  10
ATOM     10  O   UNL     1     -30.666  27.467   6.746  0.00  0.00    -0.380 OA
ATOM     11  H   UNL     1     -30.010  27.631   6.051  0.00  0.00    +0.211 HD
ENDBRANCH   9  10
ENDBRANCH   6   9
ENDBRANCH   1   6
BRANCH   4  12
ATOM     12  C   UNL     1     -36.147  24.987   5.115  0.00  0.00    +0.143 C 
BRANCH  12  15
ATOM     13  O   UNL     1     -34.920  20.913   5.194  0.00  0.00    -0.123 OA
ATOM     14  O   UNL     1     -35.997  22.404   6.390  0.00  0.00    -0.123 OA
ATOM     15  N   UNL     1     -36.262  23.953   3.998  0.00  0.00    -0.245 N 
ATOM     16  N   UNL     1     -36.220  21.998   2.946  0.00  0.00    -0.207 NA
ATOM     17  N   UNL     1     -35.635  21.953   5.265  0.00  0.00    +0.091 N 
ATOM     18  C   UNL     1     -36.029  22.610   4.094  0.00  0.00    +0.284 C 
ATOM     19  C   UNL     1     -36.625  24.216   2.708  0.00  0.00    +0.089 C 
ATOM     20  C   UNL     1     -36.592  22.994   2.077  0.00  0.00    +0.118 C 
ENDBRANCH  12  15
ENDBRANCH   4  12
TORSDOF 6
ENDMDL
MODEL 2
REMARK VINA RESULT:      -5.9      1.393      1.647
REMARK  Name = 59511063
REMARK  6 active torsions:
REMARK  status: ('A' for Active; 'I' for Inactive)
REMARK    1  A    between atoms: N_1  and  C_6
REMARK    2  A    between atoms: C_4  and  C_12
REMARK    3  A    between atoms: C_6  and  C_8
REMARK    4  A    between atoms: C_6  and  C_9
REMARK    5  A    between atoms: C_9  and  O_10
REMARK    6  A    between atoms: C_12  and  N_15
REMARK                            x       y       z     vdW  Elec       q    Type
REMARK                         _______ _______ _______ _____ _____    ______ ____
ROOT
ATOM      1  N   UNL     1     -32.868  27.229   5.020  0.00  0.00    -0.159 NA
ATOM      2  N   UNL     1     -32.681  26.534   3.885  0.00  0.00    -0.063 NA
ATOM      3  N   UNL     1     -33.403  25.422   3.982  0.00  0.00    -0.152 NA
ATOM      4  C   UNL     1     -34.039  25.438   5.192  0.00  0.00    +0.095 C 
ATOM      5  C   UNL     1     -33.710  26.584   5.871  0.00  0.00    +0.140 C 
ENDROOT
BRANCH   1   6
ATOM      6  C   UNL     1     -32.180  28.571   5.231  0.00  0.00    +0.144 C 
BRANCH   6   8
ATOM      7  F   UNL     1     -31.663  30.135   6.918  0.00  0.00    -0.233 F 
ATOM      8  C   UNL     1     -31.880  28.807   6.713  0.00  0.00    +0.213 C 
ENDBRANCH   6   8
BRANCH   6   9
ATOM      9  C   UNL     1     -30.902  28.697   4.393  0.00  0.00    +0.158 C 
BRANCH   9  10
ATOM     10  O   UNL     1     -29.968  27.699   4.794  0.00  0.00    -0.380 OA
ATOM     11  H   UNL     1     -29.522  27.341   4.010  0.00  0.00    +0.211 HD
ENDBRANCH   9  10
ENDBRANCH   6   9
ENDBRANCH   1   6
BRANCH   4  12
ATOM     12  C   UNL     1     -34.922  24.339   5.603  0.00  0.00    +0.143 C 
BRANCH  12  15
ATOM     13  O   UNL     1     -35.389  20.682   3.477  0.00  0.00    -0.123 OA
ATOM     14  O   UNL     1     -34.990  21.457   5.491  0.00  0.00    -0.123 OA
ATOM     15  N   UNL     1     -36.004  23.977   4.589  0.00  0.00    -0.245 N 
ATOM     16  N   UNL     1     -37.254  22.772   3.205  0.00  0.00    -0.207 NA
ATOM     17  N   UNL     1     -35.516  21.589   4.348  0.00  0.00    +0.091 N 
ATOM     18  C   UNL     1     -36.246  22.745   4.048  0.00  0.00    +0.284 C 
ATOM     19  C   UNL     1     -36.915  24.845   4.057  0.00  0.00    +0.089 C 
ATOM     20  C   UNL     1     -37.676  24.078   3.206  0.00  0.00    +0.118 C 
ENDBRANCH  12  15
ENDBRANCH   4  12
TORSDOF 6
ENDMDL
MODEL 3
REMARK VINA RESULT:      -5.7      2.344      2.981
REMARK  Name = 59511063
REMARK  6 active torsions:
REMARK  status: ('A' for Active; 'I' for Inactive)
REMARK    1  A    between atoms: N_1  and  C_6
REMARK    2  A    between atoms: C_4  and  C_12
REMARK    3  A    between atoms: C_6  and  C_8
REMARK    4  A    between atoms: C_6  and  C_9
REMARK    5  A    between atoms: C_9  and  O_10
REMARK    6  A    between atoms: C_12  and  N_15
REMARK                            x       y       z     vdW  Elec       q    Type
REMARK                         _______ _______ _______ _____ _____    ______ ____
ROOT
ATOM      1  N   UNL     1     -32.269  27.788   5.164  0.00  0.00    -0.159 NA
ATOM      2  N   UNL     1     -32.840  27.121   6.181  0.00  0.00    -0.063 NA
ATOM      3  N   UNL     1     -33.668  26.227   5.650  0.00  0.00    -0.152 NA
ATOM      4  C   UNL     1     -33.600  26.349   4.290  0.00  0.00    +0.095 C 
ATOM      5  C   UNL     1     -32.712  27.340   3.959  0.00  0.00    +0.140 C 
ENDROOT
BRANCH   1   6
ATOM      6  C   UNL     1     -31.253  28.890   5.431  0.00  0.00    +0.144 C 
BRANCH   6   8
ATOM      7  F   UNL     1     -32.444  30.788   6.164  0.00  0.00    -0.233 F 
ATOM      8  C   UNL     1     -31.681  29.756   6.618  0.00  0.00    +0.213 C 
ENDBRANCH   6   8
BRANCH   6   9
ATOM      9  C   UNL     1     -29.843  28.328   5.652  0.00  0.00    +0.158 C 
BRANCH   9  10
ATOM     10  O   UNL     1     -29.844  27.472   6.789  0.00  0.00    -0.380 OA
ATOM     11  H   UNL     1     -30.712  27.506   7.219  0.00  0.00    +0.211 HD
ENDBRANCH   9  10
ENDBRANCH   6   9
ENDBRANCH   1   6
BRANCH   4  12
ATOM     12  C   UNL     1     -34.403  25.491   3.407  0.00  0.00    +0.143 C 
BRANCH  12  15
ATOM     13  O   UNL     1     -38.505  24.405   3.717  0.00  0.00    -0.123 OA
ATOM     14  O   UNL     1     -36.707  24.683   4.943  0.00  0.00    -0.123 OA
ATOM     15  N   UNL     1     -35.604  26.181   2.768  0.00  0.00    -0.245 N 
ATOM     16  N   UNL     1     -37.711  26.702   2.299  0.00  0.00    -0.207 NA
ATOM     17  N   UNL     1     -37.395  24.973   3.922  0.00  0.00    +0.091 N 
ATOM     18  C   UNL     1     -36.925  25.931   3.016  0.00  0.00    +0.284 C 
ATOM     19  C   UNL     1     -35.543  27.175   1.833  0.00  0.00    +0.089 C 
ATOM     20  C   UNL     1     -36.856  27.481   1.558  0.00  0.00    +0.118 C 
ENDBRANCH  12  15
ENDBRANCH   4  12
TORSDOF 6
ENDMDL
MODEL 4
REMARK VINA RESULT:      -5.7      1.231      1.565
REMARK  Name = 59511063
REMARK  6 active torsions:
REMARK  status: ('A' for Active; 'I' for Inactive)
REMARK    1  A    between atoms: N_1  and  C_6
REMARK    2  A    between atoms: C_4  and  C_12
REMARK    3  A    between atoms: C_6  and  C_8
REMARK    4  A    between atoms: C_6  and  C_9
REMARK    5  A    between atoms: C_9  and  O_10
REMARK    6  A    between atoms: C_12  and  N_15
REMARK                            x       y       z     vdW  Elec       q    Type
REMARK                         _______ _______ _______ _____ _____    ______ ____
ROOT
ATOM      1  N   UNL     1     -33.607  27.411   4.514  0.00  0.00    -0.159 NA
ATOM      2  N   UNL     1     -33.245  26.854   5.682  0.00  0.00    -0.063 NA
ATOM      3  N   UNL     1     -34.175  25.959   5.996  0.00  0.00    -0.152 NA
ATOM      4  C   UNL     1     -35.118  25.968   5.006  0.00  0.00    +0.095 C 
ATOM      5  C   UNL     1     -34.774  26.889   4.049  0.00  0.00    +0.140 C 
ENDROOT
BRANCH   1   6
ATOM      6  C   UNL     1     -32.745  28.485   3.864  0.00  0.00    +0.144 C 
BRANCH   6   8
ATOM      7  F   UNL     1     -32.563  30.357   5.287  0.00  0.00    -0.233 F 
ATOM      8  C   UNL     1     -31.908  29.224   4.910  0.00  0.00    +0.213 C 
ENDBRANCH   6   8
BRANCH   6   9
ATOM      9  C   UNL     1     -31.848  27.909   2.761  0.00  0.00    +0.158 C 
BRANCH   9  10
ATOM     10  O   UNL     1     -31.427  26.598   3.125  0.00  0.00    -0.380 OA
ATOM     11  H   UNL     1     -30.886  26.223   2.412  0.00  0.00    +0.211 HD
ENDBRANCH   9  10
ENDBRANCH   6   9
ENDBRANCH   1   6
BRANCH   4  12
ATOM     12  C   UNL     1     -36.286  25.079   5.059  0.00  0.00    +0.143 C 
BRANCH  12  15
ATOM     13  O   UNL     1     -34.911  21.053   5.104  0.00  0.00    -0.123 OA
ATOM     14  O   UNL     1     -36.047  22.491   6.310  0.00  0.00    -0.123 OA
ATOM     15  N   UNL     1     -36.358  24.053   3.931  0.00  0.00    -0.245 N 
ATOM     16  N   UNL     1     -36.239  22.112   2.861  0.00  0.00    -0.207 NA
ATOM     17  N   UNL     1     -35.663  22.065   5.182  0.00  0.00    +0.091 N 
ATOM     18  C   UNL     1     -36.076  22.718   4.015  0.00  0.00    +0.284 C 
ATOM     19  C   UNL     1     -36.725  24.315   2.642  0.00  0.00    +0.089 C 
ATOM     20  C   UNL     1     -36.643  23.102   1.999  0.00  0.00    +0.118 C 
ENDBRANCH  12  15
ENDBRANCH   4  12
TORSDOF 6
ENDMDL
MODEL 5
REMARK VINA RESULT:      -5.7      4.153      5.685
REMARK  Name = 59511063
REMARK  6 active torsions:
REMARK  status: ('A' for Active; 'I' for Inactive)
REMARK    1  A    between atoms: N_1  and  C_6
REMARK    2  A    between atoms: C_4  and  C_12
REMARK    3  A    between atoms: C_6  and  C_8
REMARK    4  A    between atoms: C_6  and  C_9
REMARK    5  A    between atoms: C_9  and  O_10
REMARK    6  A    between atoms: C_12  and  N_15
REMARK                            x       y       z     vdW  Elec       q    Type
REMARK                         _______ _______ _______ _____ _____    ______ ____
ROOT
ATOM      1  N   UNL     1     -36.662  23.729   4.290  0.00  0.00    -0.159 NA
ATOM      2  N   UNL     1     -37.844  24.255   3.926  0.00  0.00    -0.063 NA
ATOM      3  N   UNL     1     -38.312  23.516   2.925  0.00  0.00    -0.152 NA
ATOM      4  C   UNL     1     -37.404  22.525   2.675  0.00  0.00    +0.095 C 
ATOM      5  C   UNL     1     -36.343  22.642   3.536  0.00  0.00    +0.140 C 
ENDROOT
BRANCH   1   6
ATOM      6  C   UNL     1     -35.855  24.342   5.426  0.00  0.00    +0.144 C 
BRANCH   6   8
ATOM      7  F   UNL     1     -34.951  22.496   6.582  0.00  0.00    -0.233 F 
ATOM      8  C   UNL     1     -34.612  23.504   5.732  0.00  0.00    +0.213 C 
ENDBRANCH   6   8
BRANCH   6   9
ATOM      9  C   UNL     1     -35.469  25.797   5.134  0.00  0.00    +0.158 C 
BRANCH   9  10
ATOM     10  O   UNL     1     -36.579  26.648   5.403  0.00  0.00    -0.380 OA
ATOM     11  H   UNL     1     -36.968  26.411   6.260  0.00  0.00    +0.211 HD
ENDBRANCH   9  10
ENDBRANCH   6   9
ENDBRANCH   1   6
BRANCH   4  12
ATOM     12  C   UNL     1     -37.633  21.531   1.617  0.00  0.00    +0.143 C 
BRANCH  12  15
ATOM     13  O   UNL     1     -41.427  20.655  -0.101  0.00  0.00    -0.123 OA
ATOM     14  O   UNL     1     -40.485  21.148   1.819  0.00  0.00    -0.123 OA
ATOM     15  N   UNL     1     -38.231  22.095   0.331  0.00  0.00    -0.245 N 
ATOM     16  N   UNL     1     -39.707  22.558  -1.261  0.00  0.00    -0.207 NA
ATOM     17  N   UNL     1     -40.509  21.224   0.557  0.00  0.00    +0.091 N 
ATOM     18  C   UNL     1     -39.514  21.943  -0.115  0.00  0.00    +0.284 C 
ATOM     19  C   UNL     1     -37.564  22.855  -0.587  0.00  0.00    +0.089 C 
ATOM     20  C   UNL     1     -38.495  23.128  -1.561  0.00  0.00    +0.118 C 
ENDBRANCH  12  15
ENDBRANCH   4  12
TORSDOF 6
ENDMDL
MODEL 6
REMARK VINA RESULT:      -5.5      3.094      6.919
REMARK  Name = 59511063
REMARK  6 active torsions:
REMARK  status: ('A' for Active; 'I' for Inactive)
REMARK    1  A    between atoms: N_1  and  C_6
REMARK    2  A    between atoms: C_4  and  C_12
REMARK    3  A    between atoms: C_6  and  C_8
REMARK    4  A    between atoms: C_6  and  C_9
REMARK    5  A    between atoms: C_9  and  O_10
REMARK    6  A    between atoms: C_12  and  N_15
REMARK                            x       y       z     vdW  Elec       q    Type
REMARK                         _______ _______ _______ _____ _____    ______ ____
ROOT
ATOM      1  N   UNL     1     -35.190  24.545   5.005  0.00  0.00    -0.159 NA
ATOM      2  N   UNL     1     -35.748  25.636   5.556  0.00  0.00    -0.063 NA
ATOM      3  N   UNL     1     -34.969  26.670   5.257  0.00  0.00    -0.152 NA
ATOM      4  C   UNL     1     -33.921  26.205   4.513  0.00  0.00    +0.095 C 
ATOM      5  C   UNL     1     -34.043  24.850   4.340  0.00  0.00    +0.140 C 
ENDROOT
BRANCH   1   6
ATOM      6  C   UNL     1     -35.842  23.177   5.156  0.00  0.00    +0.144 C 
BRANCH   6   8
ATOM      7  F   UNL     1     -36.791  23.159   2.998  0.00  0.00    -0.233 F 
ATOM      8  C   UNL     1     -35.943  22.465   3.806  0.00  0.00    +0.213 C 
ENDBRANCH   6   8
BRANCH   6   9
ATOM      9  C   UNL     1     -35.105  22.302   6.178  0.00  0.00    +0.158 C 
BRANCH   9  10
ATOM     10  O   UNL     1     -35.309  20.928   5.863  0.00  0.00    -0.380 OA
ATOM     11  H   UNL     1     -34.455  20.468   5.852  0.00  0.00    +0.211 HD
ENDBRANCH   9  10
ENDBRANCH   6   9
ENDBRANCH   1   6
BRANCH   4  12
ATOM     12  C   UNL     1     -32.875  27.111   4.020  0.00  0.00    +0.143 C 
BRANCH  12  15
ATOM     13  O   UNL     1     -32.986  31.323   3.421  0.00  0.00    -0.123 OA
ATOM     14  O   UNL     1     -34.199  29.516   3.136  0.00  0.00    -0.123 OA
ATOM     15  N   UNL     1     -32.467  28.207   5.000  0.00  0.00    -0.245 N 
ATOM     16  N   UNL     1     -32.200  30.224   5.889  0.00  0.00    -0.207 NA
ATOM     17  N   UNL     1     -33.307  30.150   3.769  0.00  0.00    +0.091 N 
ATOM     18  C   UNL     1     -32.672  29.551   4.864  0.00  0.00    +0.284 C 
ATOM     19  C   UNL     1     -31.823  28.009   6.189  0.00  0.00    +0.089 C 
ATOM     20  C   UNL     1     -31.669  29.268   6.720  0.00  0.00    +0.118 C 
ENDBRANCH  12  15
ENDBRANCH   4  12
TORSDOF 6
ENDMDL
MODEL 7
REMARK VINA RESULT:      -5.5      3.876      6.887
REMARK  Name = 59511063
REMARK  6 active torsions:
REMARK  status: ('A' for Active; 'I' for Inactive)
REMARK    1  A    between atoms: N_1  and  C_6
REMARK    2  A    between atoms: C_4  and  C_12
REMARK    3  A    between atoms: C_6  and  C_8
REMARK    4  A    between atoms: C_6  and  C_9
REMARK    5  A    between atoms: C_9  and  O_10
REMARK    6  A    between atoms: C_12  and  N_15
REMARK                            x       y       z     vdW  Elec       q    Type
REMARK                         _______ _______ _______ _____ _____    ______ ____
ROOT
ATOM      1  N   UNL     1     -35.242  21.267   2.292  0.00  0.00    -0.159 NA
ATOM      2  N   UNL     1     -35.069  20.406   3.310  0.00  0.00    -0.063 NA
ATOM      3  N   UNL     1     -35.313  21.071   4.434  0.00  0.00    -0.152 NA
ATOM      4  C   UNL     1     -35.641  22.356   4.099  0.00  0.00    +0.095 C 
ATOM      5  C   UNL     1     -35.602  22.502   2.736  0.00  0.00    +0.140 C 
ENDROOT
BRANCH   1   6
ATOM      6  C   UNL     1     -35.044  20.818   0.851  0.00  0.00    +0.144 C 
BRANCH   6   8
ATOM      7  F   UNL     1     -32.934  19.798   1.115  0.00  0.00    -0.233 F 
ATOM      8  C   UNL     1     -33.561  20.823   0.474  0.00  0.00    +0.213 C 
ENDBRANCH   6   8
BRANCH   6   9
ATOM      9  C   UNL     1     -35.665  19.440   0.591  0.00  0.00    +0.158 C 
BRANCH   9  10
ATOM     10  O   UNL     1     -36.797  19.260   1.436  0.00  0.00    -0.380 OA
ATOM     11  H   UNL     1     -37.578  19.657   1.019  0.00  0.00    +0.211 HD
ENDBRANCH   9  10
ENDBRANCH   6   9
ENDBRANCH   1   6
BRANCH   4  12
ATOM     12  C   UNL     1     -35.971  23.350   5.129  0.00  0.00    +0.143 C 
BRANCH  12  15
ATOM     13  O   UNL     1     -37.546  26.349   2.553  0.00  0.00    -0.123 OA
ATOM     14  O   UNL     1     -38.164  24.911   4.091  0.00  0.00    -0.123 OA
ATOM     15  N   UNL     1     -35.414  24.747   4.868  0.00  0.00    -0.245 N 
ATOM     16  N   UNL     1     -35.273  26.839   4.138  0.00  0.00    -0.207 NA
ATOM     17  N   UNL     1     -37.286  25.670   3.587  0.00  0.00    +0.091 N 
ATOM     18  C   UNL     1     -36.021  25.760   4.180  0.00  0.00    +0.284 C 
ATOM     19  C   UNL     1     -34.201  25.209   5.293  0.00  0.00    +0.089 C 
ATOM     20  C   UNL     1     -34.136  26.503   4.830  0.00  0.00    +0.118 C 
ENDBRANCH  12  15
ENDBRANCH   4  12
TORSDOF 6
ENDMDL
MODEL 8
REMARK VINA RESULT:      -5.5      2.605      6.538
REMARK  Name = 59511063
REMARK  6 active torsions:
REMARK  status: ('A' for Active; 'I' for Inactive)
REMARK    1  A    between atoms: N_1  and  C_6
REMARK    2  A    between atoms: C_4  and  C_12
REMARK    3  A    between atoms: C_6  and  C_8
REMARK    4  A    between atoms: C_6  and  C_9
REMARK    5  A    between atoms: C_9  and  O_10
REMARK    6  A    between atoms: C_12  and  N_15
REMARK                            x       y       z     vdW  Elec       q    Type
REMARK                         _______ _______ _______ _____ _____    ______ ____
ROOT
ATOM      1  N   UNL     1     -35.134  24.645   4.969  0.00  0.00    -0.159 NA
ATOM      2  N   UNL     1     -35.587  25.795   5.496  0.00  0.00    -0.063 NA
ATOM      3  N   UNL     1     -34.767  26.761   5.096  0.00  0.00    -0.152 NA
ATOM      4  C   UNL     1     -33.800  26.193   4.314  0.00  0.00    +0.095 C 
ATOM      5  C   UNL     1     -34.016  24.842   4.220  0.00  0.00    +0.140 C 
ENDROOT
BRANCH   1   6
ATOM      6  C   UNL     1     -35.859  23.332   5.231  0.00  0.00    +0.144 C 
BRANCH   6   8
ATOM      7  F   UNL     1     -36.930  23.535   3.140  0.00  0.00    -0.233 F 
ATOM      8  C   UNL     1     -36.250  22.649   3.919  0.00  0.00    +0.213 C 
ENDBRANCH   6   8
BRANCH   6   9
ATOM      9  C   UNL     1     -35.029  22.385   6.107  0.00  0.00    +0.158 C 
BRANCH   9  10
ATOM     10  O   UNL     1     -35.379  21.036   5.816  0.00  0.00    -0.380 OA
ATOM     11  H   UNL     1     -35.924  21.010   5.014  0.00  0.00    +0.211 HD
ENDBRANCH   9  10
ENDBRANCH   6   9
ENDBRANCH   1   6
BRANCH   4  12
ATOM     12  C   UNL     1     -32.734  27.005   3.711  0.00  0.00    +0.143 C 
BRANCH  12  15
ATOM     13  O   UNL     1     -31.762  29.361   7.119  0.00  0.00    -0.123 OA
ATOM     14  O   UNL     1     -30.948  27.773   5.841  0.00  0.00    -0.123 OA
ATOM     15  N   UNL     1     -32.903  28.511   3.886  0.00  0.00    -0.245 N 
ATOM     16  N   UNL     1     -32.744  30.545   4.763  0.00  0.00    -0.207 NA
ATOM     17  N   UNL     1     -31.687  28.787   5.995  0.00  0.00    +0.091 N 
ATOM     18  C   UNL     1     -32.426  29.279   4.912  0.00  0.00    +0.284 C 
ATOM     19  C   UNL     1     -33.568  29.341   3.028  0.00  0.00    +0.089 C 
ATOM     20  C   UNL     1     -33.456  30.591   3.590  0.00  0.00    +0.118 C 
ENDBRANCH  12  15
ENDBRANCH   4  12
TORSDOF 6
ENDMDL
MODEL 9
REMARK VINA RESULT:      -5.5      2.488      2.884
REMARK  Name = 59511063
REMARK  6 active torsions:
REMARK  status: ('A' for Active; 'I' for Inactive)
REMARK    1  A    between atoms: N_1  and  C_6
REMARK    2  A    between atoms: C_4  and  C_12
REMARK    3  A    between atoms: C_6  and  C_8
REMARK    4  A    between atoms: C_6  and  C_9
REMARK    5  A    between atoms: C_9  and  O_10
REMARK    6  A    between atoms: C_12  and  N_15
REMARK                            x       y       z     vdW  Elec       q    Type
REMARK                         _______ _______ _______ _____ _____    ______ ____
ROOT
ATOM      1  N   UNL     1     -32.820  27.505   4.004  0.00  0.00    -0.159 NA
ATOM      2  N   UNL     1     -32.351  27.306   5.248  0.00  0.00    -0.063 NA
ATOM      3  N   UNL     1     -33.309  26.695   5.937  0.00  0.00    -0.152 NA
ATOM      4  C   UNL     1     -34.378  26.516   5.102  0.00  0.00    +0.095 C 
ATOM      5  C   UNL     1     -34.086  27.026   3.863  0.00  0.00    +0.140 C 
ENDROOT
BRANCH   1   6
ATOM      6  C   UNL     1     -31.959  28.185   2.949  0.00  0.00    +0.144 C 
BRANCH   6   8
ATOM      7  F   UNL     1     -32.885  30.162   3.840  0.00  0.00    -0.233 F 
ATOM      8  C   UNL     1     -31.748  29.663   3.282  0.00  0.00    +0.213 C 
ENDBRANCH   6   8
BRANCH   6   9
ATOM      9  C   UNL     1     -30.614  27.474   2.762  0.00  0.00    +0.158 C 
BRANCH   9  10
ATOM     10  O   UNL     1     -30.821  26.065   2.719  0.00  0.00    -0.380 OA
ATOM     11  H   UNL     1     -31.424  25.849   1.990  0.00  0.00    +0.211 HD
ENDBRANCH   9  10
ENDBRANCH   6   9
ENDBRANCH   1   6
BRANCH   4  12
ATOM     12  C   UNL     1     -35.607  25.860   5.568  0.00  0.00    +0.143 C 
BRANCH  12  15
ATOM     13  O   UNL     1     -38.892  24.273   3.378  0.00  0.00    -0.123 OA
ATOM     14  O   UNL     1     -37.542  26.001   3.434  0.00  0.00    -0.123 OA
ATOM     15  N   UNL     1     -35.795  24.431   5.068  0.00  0.00    -0.245 N 
ATOM     16  N   UNL     1     -36.646  22.689   3.985  0.00  0.00    -0.207 NA
ATOM     17  N   UNL     1     -37.767  24.777   3.658  0.00  0.00    +0.091 N 
ATOM     18  C   UNL     1     -36.765  23.977   4.219  0.00  0.00    +0.284 C 
ATOM     19  C   UNL     1     -35.007  23.364   5.398  0.00  0.00    +0.089 C 
ATOM     20  C   UNL     1     -35.552  22.300   4.718  0.00  0.00    +0.118 C 
ENDBRANCH  12  15
ENDBRANCH   4  12
TORSDOF 6
ENDMDL
