MODEL 1
REMARK VINA RESULT:      -5.7      0.000      0.000
REMARK  Name = 53394627
REMARK  13 active torsions:
REMARK  status: ('A' for Active; 'I' for Inactive)
REMARK    1  A    between atoms: N_2  and  C_7
REMARK    2  A    between atoms: C_3  and  C_17
REMARK    3  A    between atoms: C_5  and  C_11
REMARK    4  A    between atoms: C_11  and  C_12
REMARK    5  A    between atoms: C_12  and  C_13
REMARK    6  A    between atoms: C_13  and  C_14
REMARK    7  A    between atoms: C_14  and  C_15
REMARK    8  A    between atoms: C_17  and  N_18
REMARK    9  A    between atoms: C_17  and  C_22
REMARK   10  A    between atoms: C_22  and  C_23
REMARK   11  A    between atoms: C_23  and  P_24
REMARK   12  A    between atoms: P_24  and  O_26
REMARK   13  A    between atoms: P_24  and  O_28
REMARK                            x       y       z     vdW  Elec       q    Type
REMARK                         _______ _______ _______ _____ _____    ______ ____
ROOT
ATOM      1  O   UNL     1     -34.389  21.762   1.260  0.00  0.00    -0.277 OA
ATOM      2  N   UNL     1     -36.048  21.062   2.772  0.00  0.00    -0.286 N 
ATOM      3  C   UNL     1     -35.382  21.094   1.536  0.00  0.00    +0.206 C 
ATOM      4  H   UNL     1     -36.818  20.452   2.829  0.00  0.00    +0.155 HD
ENDROOT
BRANCH   2   7
ATOM      5  C   UNL     1     -35.707  23.883   5.128  0.00  0.00    -0.021 C 
ATOM      6  C   UNL     1     -35.998  23.159   3.972  0.00  0.00    +0.010 C 
ATOM      7  C   UNL     1     -35.757  21.786   3.929  0.00  0.00    +0.050 C 
ATOM      8  C   UNL     1     -35.175  23.233   6.242  0.00  0.00    -0.004 C 
ATOM      9  C   UNL     1     -35.224  21.136   5.043  0.00  0.00    +0.015 C 
ATOM     10  C   UNL     1     -34.934  21.860   6.199  0.00  0.00    +0.001 C 
BRANCH   5  11
ATOM     11  C   UNL     1     -35.967  25.367   5.174  0.00  0.00    +0.026 C 
BRANCH  11  12
ATOM     12  C   UNL     1     -34.714  26.148   5.579  0.00  0.00    +0.005 C 
BRANCH  12  13
ATOM     13  C   UNL     1     -33.917  26.591   4.351  0.00  0.00    +0.000 C 
BRANCH  13  14
ATOM     14  C   UNL     1     -32.801  27.563   4.735  0.00  0.00    +0.000 C 
BRANCH  14  15
ATOM     15  C   UNL     1     -32.550  27.553   6.244  0.00  0.00    +0.000 C 
ATOM     16  C   UNL     1     -31.838  28.817   6.699  0.00  0.00    +0.000 C 
ENDBRANCH  14  15
ENDBRANCH  13  14
ENDBRANCH  12  13
ENDBRANCH  11  12
ENDBRANCH   5  11
ENDBRANCH   2   7
BRANCH   3  17
ATOM     17  C   UNL     1     -36.015  20.146   0.517  0.00  0.00    +0.014 C 
BRANCH  17  18
ATOM     18  N   UNL     1     -36.709  19.125   1.303  0.00  0.00    +0.387 N 
ATOM     19  H   UNL     1     -37.030  18.380   0.685  0.00  0.00    -0.089 HD
ATOM     20  H   UNL     1     -37.510  19.544   1.774  0.00  0.00    -0.089 HD
ATOM     21  H   UNL     1     -36.070  18.738   1.998  0.00  0.00    -0.089 HD
ENDBRANCH  17  18
BRANCH  17  22
ATOM     22  C   UNL     1     -37.026  20.857  -0.394  0.00  0.00    -0.000 C 
BRANCH  22  23
ATOM     23  C   UNL     1     -38.464  20.399  -0.167  0.00  0.00    +0.114 C 
BRANCH  23  24
ATOM     24  P   UNL     1     -39.427  21.512   0.881  0.00  0.00    +0.337 P 
ATOM     25  O   UNL     1     -39.247  22.951   0.547  0.00  0.00    -0.258 OA
BRANCH  24  26
ATOM     26  O   UNL     1     -38.981  21.066   2.362  0.00  0.00    -0.324 OA
ATOM     27  H   UNL     1     -38.750  21.852   2.881  0.00  0.00    +0.220 HD
ENDBRANCH  24  26
BRANCH  24  28
ATOM     28  O   UNL     1     -40.919  20.927   0.731  0.00  0.00    -0.324 OA
ATOM     29  H   UNL     1     -40.878  20.014   0.406  0.00  0.00    +0.220 HD
ENDBRANCH  24  28
ENDBRANCH  23  24
ENDBRANCH  22  23
ENDBRANCH  17  22
ENDBRANCH   3  17
TORSDOF 13
ENDMDL
MODEL 2
REMARK VINA RESULT:      -5.7      1.273      1.999
REMARK  Name = 53394627
REMARK  13 active torsions:
REMARK  status: ('A' for Active; 'I' for Inactive)
REMARK    1  A    between atoms: N_2  and  C_7
REMARK    2  A    between atoms: C_3  and  C_17
REMARK    3  A    between atoms: C_5  and  C_11
REMARK    4  A    between atoms: C_11  and  C_12
REMARK    5  A    between atoms: C_12  and  C_13
REMARK    6  A    between atoms: C_13  and  C_14
REMARK    7  A    between atoms: C_14  and  C_15
REMARK    8  A    between atoms: C_17  and  N_18
REMARK    9  A    between atoms: C_17  and  C_22
REMARK   10  A    between atoms: C_22  and  C_23
REMARK   11  A    between atoms: C_23  and  P_24
REMARK   12  A    between atoms: P_24  and  O_26
REMARK   13  A    between atoms: P_24  and  O_28
REMARK                            x       y       z     vdW  Elec       q    Type
REMARK                         _______ _______ _______ _____ _____    ______ ____
ROOT
ATOM      1  O   UNL     1     -34.388  21.446   1.196  0.00  0.00    -0.277 OA
ATOM      2  N   UNL     1     -36.173  21.000   2.660  0.00  0.00    -0.286 N 
ATOM      3  C   UNL     1     -35.453  20.893   1.460  0.00  0.00    +0.206 C 
ATOM      4  H   UNL     1     -37.000  20.469   2.714  0.00  0.00    +0.155 HD
ENDROOT
BRANCH   2   7
ATOM      5  C   UNL     1     -35.943  23.870   4.970  0.00  0.00    -0.021 C 
ATOM      6  C   UNL     1     -36.249  23.105   3.845  0.00  0.00    +0.010 C 
ATOM      7  C   UNL     1     -35.866  21.766   3.786  0.00  0.00    +0.050 C 
ATOM      8  C   UNL     1     -35.252  23.294   6.037  0.00  0.00    -0.004 C 
ATOM      9  C   UNL     1     -35.175  21.190   4.853  0.00  0.00    +0.015 C 
ATOM     10  C   UNL     1     -34.868  21.955   5.978  0.00  0.00    +0.001 C 
BRANCH   5  11
ATOM     11  C   UNL     1     -36.356  25.318   5.034  0.00  0.00    +0.026 C 
BRANCH  11  12
ATOM     12  C   UNL     1     -35.156  26.239   5.266  0.00  0.00    +0.005 C 
BRANCH  12  13
ATOM     13  C   UNL     1     -34.588  26.753   3.941  0.00  0.00    +0.000 C 
BRANCH  13  14
ATOM     14  C   UNL     1     -33.433  25.876   3.456  0.00  0.00    +0.000 C 
BRANCH  14  15
ATOM     15  C   UNL     1     -33.748  25.244   2.099  0.00  0.00    +0.000 C 
ATOM     16  C   UNL     1     -35.043  25.787   1.518  0.00  0.00    +0.000 C 
ENDBRANCH  14  15
ENDBRANCH  13  14
ENDBRANCH  12  13
ENDBRANCH  11  12
ENDBRANCH   5  11
ENDBRANCH   2   7
BRANCH   3  17
ATOM     17  C   UNL     1     -36.128  19.946   0.467  0.00  0.00    +0.014 C 
BRANCH  17  18
ATOM     18  N   UNL     1     -36.865  18.978   1.281  0.00  0.00    +0.387 N 
ATOM     19  H   UNL     1     -37.708  18.689   0.785  0.00  0.00    -0.089 HD
ATOM     20  H   UNL     1     -37.123  19.407   2.169  0.00  0.00    -0.089 HD
ATOM     21  H   UNL     1     -36.277  18.163   1.456  0.00  0.00    -0.089 HD
ENDBRANCH  17  18
BRANCH  17  22
ATOM     22  C   UNL     1     -37.107  20.674  -0.464  0.00  0.00    -0.000 C 
BRANCH  22  23
ATOM     23  C   UNL     1     -38.570  20.369  -0.153  0.00  0.00    +0.114 C 
BRANCH  23  24
ATOM     24  P   UNL     1     -39.359  21.594   0.915  0.00  0.00    +0.337 P 
ATOM     25  O   UNL     1     -40.759  21.913   0.525  0.00  0.00    -0.258 OA
BRANCH  24  26
ATOM     26  O   UNL     1     -38.313  22.816   0.872  0.00  0.00    -0.324 OA
ATOM     27  H   UNL     1     -38.218  23.129  -0.041  0.00  0.00    +0.220 HD
ENDBRANCH  24  26
BRANCH  24  28
ATOM     28  O   UNL     1     -39.156  20.959   2.381  0.00  0.00    -0.324 OA
ATOM     29  H   UNL     1     -39.996  20.986   2.864  0.00  0.00    +0.220 HD
ENDBRANCH  24  28
ENDBRANCH  23  24
ENDBRANCH  22  23
ENDBRANCH  17  22
ENDBRANCH   3  17
TORSDOF 13
ENDMDL
MODEL 3
REMARK VINA RESULT:      -5.6      4.920      8.101
REMARK  Name = 53394627
REMARK  13 active torsions:
REMARK  status: ('A' for Active; 'I' for Inactive)
REMARK    1  A    between atoms: N_2  and  C_7
REMARK    2  A    between atoms: C_3  and  C_17
REMARK    3  A    between atoms: C_5  and  C_11
REMARK    4  A    between atoms: C_11  and  C_12
REMARK    5  A    between atoms: C_12  and  C_13
REMARK    6  A    between atoms: C_13  and  C_14
REMARK    7  A    between atoms: C_14  and  C_15
REMARK    8  A    between atoms: C_17  and  N_18
REMARK    9  A    between atoms: C_17  and  C_22
REMARK   10  A    between atoms: C_22  and  C_23
REMARK   11  A    between atoms: C_23  and  P_24
REMARK   12  A    between atoms: P_24  and  O_26
REMARK   13  A    between atoms: P_24  and  O_28
REMARK                            x       y       z     vdW  Elec       q    Type
REMARK                         _______ _______ _______ _____ _____    ______ ____
ROOT
ATOM      1  O   UNL     1     -32.672  25.858   3.706  0.00  0.00    -0.277 OA
ATOM      2  N   UNL     1     -34.977  25.426   3.529  0.00  0.00    -0.286 N 
ATOM      3  C   UNL     1     -33.812  26.201   3.403  0.00  0.00    +0.206 C 
ATOM      4  H   UNL     1     -35.809  25.848   3.216  0.00  0.00    +0.155 HD
ENDROOT
BRANCH   2   7
ATOM      5  C   UNL     1     -35.425  21.766   3.693  0.00  0.00    -0.021 C 
ATOM      6  C   UNL     1     -35.299  23.057   3.180  0.00  0.00    +0.010 C 
ATOM      7  C   UNL     1     -35.103  24.135   4.042  0.00  0.00    +0.050 C 
ATOM      8  C   UNL     1     -35.354  21.554   5.071  0.00  0.00    -0.004 C 
ATOM      9  C   UNL     1     -35.032  23.923   5.420  0.00  0.00    +0.015 C 
ATOM     10  C   UNL     1     -35.157  22.632   5.933  0.00  0.00    +0.001 C 
BRANCH   5  11
ATOM     11  C   UNL     1     -35.638  20.601   2.761  0.00  0.00    +0.026 C 
BRANCH  11  12
ATOM     12  C   UNL     1     -34.661  20.633   1.583  0.00  0.00    +0.005 C 
BRANCH  12  13
ATOM     13  C   UNL     1     -33.987  19.274   1.384  0.00  0.00    +0.000 C 
BRANCH  13  14
ATOM     14  C   UNL     1     -32.600  19.429   0.760  0.00  0.00    +0.000 C 
BRANCH  14  15
ATOM     15  C   UNL     1     -31.721  18.211   1.050  0.00  0.00    +0.000 C 
ATOM     16  C   UNL     1     -30.336  18.366   0.443  0.00  0.00    +0.000 C 
ENDBRANCH  14  15
ENDBRANCH  13  14
ENDBRANCH  12  13
ENDBRANCH  11  12
ENDBRANCH   5  11
ENDBRANCH   2   7
BRANCH   3  17
ATOM     17  C   UNL     1     -34.097  27.572   2.789  0.00  0.00    +0.014 C 
BRANCH  17  18
ATOM     18  N   UNL     1     -35.031  28.230   3.704  0.00  0.00    +0.387 N 
ATOM     19  H   UNL     1     -35.735  27.558   4.012  0.00  0.00    -0.089 HD
ATOM     20  H   UNL     1     -35.488  29.005   3.225  0.00  0.00    -0.089 HD
ATOM     21  H   UNL     1     -34.522  28.583   4.514  0.00  0.00    -0.089 HD
ENDBRANCH  17  18
BRANCH  17  22
ATOM     22  C   UNL     1     -32.830  28.428   2.656  0.00  0.00    -0.000 C 
BRANCH  22  23
ATOM     23  C   UNL     1     -32.705  29.488   3.749  0.00  0.00    +0.114 C 
BRANCH  23  24
ATOM     24  P   UNL     1     -31.667  28.982   5.138  0.00  0.00    +0.337 P 
ATOM     25  O   UNL     1     -31.029  30.120   5.853  0.00  0.00    -0.258 OA
BRANCH  24  26
ATOM     26  O   UNL     1     -30.667  27.921   4.456  0.00  0.00    -0.324 OA
ATOM     27  H   UNL     1     -30.045  27.588   5.121  0.00  0.00    +0.220 HD
ENDBRANCH  24  26
BRANCH  24  28
ATOM     28  O   UNL     1     -32.669  28.068   6.006  0.00  0.00    -0.324 OA
ATOM     29  H   UNL     1     -33.585  28.333   5.828  0.00  0.00    +0.220 HD
ENDBRANCH  24  28
ENDBRANCH  23  24
ENDBRANCH  22  23
ENDBRANCH  17  22
ENDBRANCH   3  17
TORSDOF 13
ENDMDL
MODEL 4
REMARK VINA RESULT:      -5.6      5.122      8.391
REMARK  Name = 53394627
REMARK  13 active torsions:
REMARK  status: ('A' for Active; 'I' for Inactive)
REMARK    1  A    between atoms: N_2  and  C_7
REMARK    2  A    between atoms: C_3  and  C_17
REMARK    3  A    between atoms: C_5  and  C_11
REMARK    4  A    between atoms: C_11  and  C_12
REMARK    5  A    between atoms: C_12  and  C_13
REMARK    6  A    between atoms: C_13  and  C_14
REMARK    7  A    between atoms: C_14  and  C_15
REMARK    8  A    between atoms: C_17  and  N_18
REMARK    9  A    between atoms: C_17  and  C_22
REMARK   10  A    between atoms: C_22  and  C_23
REMARK   11  A    between atoms: C_23  and  P_24
REMARK   12  A    between atoms: P_24  and  O_26
REMARK   13  A    between atoms: P_24  and  O_28
REMARK                            x       y       z     vdW  Elec       q    Type
REMARK                         _______ _______ _______ _____ _____    ______ ____
ROOT
ATOM      1  O   UNL     1     -35.340  27.712   2.755  0.00  0.00    -0.277 OA
ATOM      2  N   UNL     1     -33.640  26.391   3.700  0.00  0.00    -0.286 N 
ATOM      3  C   UNL     1     -34.181  27.554   3.128  0.00  0.00    +0.206 C 
ATOM      4  H   UNL     1     -32.693  26.442   3.964  0.00  0.00    +0.155 HD
ENDROOT
BRANCH   2   7
ATOM      5  C   UNL     1     -35.209  23.102   3.114  0.00  0.00    -0.021 C 
ATOM      6  C   UNL     1     -34.576  24.321   2.875  0.00  0.00    +0.010 C 
ATOM      7  C   UNL     1     -34.274  25.171   3.939  0.00  0.00    +0.050 C 
ATOM      8  C   UNL     1     -35.541  22.733   4.418  0.00  0.00    -0.004 C 
ATOM      9  C   UNL     1     -34.606  24.802   5.243  0.00  0.00    +0.015 C 
ATOM     10  C   UNL     1     -35.240  23.582   5.482  0.00  0.00    +0.001 C 
BRANCH   5  11
ATOM     11  C   UNL     1     -35.536  22.183   1.965  0.00  0.00    +0.026 C 
BRANCH  11  12
ATOM     12  C   UNL     1     -35.700  20.733   2.428  0.00  0.00    +0.005 C 
BRANCH  12  13
ATOM     13  C   UNL     1     -34.529  19.867   1.961  0.00  0.00    +0.000 C 
BRANCH  13  14
ATOM     14  C   UNL     1     -33.766  20.536   0.817  0.00  0.00    +0.000 C 
BRANCH  14  15
ATOM     15  C   UNL     1     -32.457  19.804   0.518  0.00  0.00    +0.000 C 
ATOM     16  C   UNL     1     -32.409  18.447   1.202  0.00  0.00    +0.000 C 
ENDBRANCH  14  15
ENDBRANCH  13  14
ENDBRANCH  12  13
ENDBRANCH  11  12
ENDBRANCH   5  11
ENDBRANCH   2   7
BRANCH   3  17
ATOM     17  C   UNL     1     -33.153  28.682   3.039  0.00  0.00    +0.014 C 
BRANCH  17  18
ATOM     18  N   UNL     1     -33.748  29.817   3.746  0.00  0.00    +0.387 N 
ATOM     19  H   UNL     1     -33.021  30.499   3.966  0.00  0.00    -0.089 HD
ATOM     20  H   UNL     1     -34.181  29.491   4.609  0.00  0.00    -0.089 HD
ATOM     21  H   UNL     1     -34.454  30.254   3.154  0.00  0.00    -0.089 HD
ENDBRANCH  17  18
BRANCH  17  22
ATOM     22  C   UNL     1     -31.820  28.313   3.705  0.00  0.00    -0.000 C 
BRANCH  22  23
ATOM     23  C   UNL     1     -31.499  29.175   4.924  0.00  0.00    +0.114 C 
BRANCH  23  24
ATOM     24  P   UNL     1     -31.677  28.305   6.497  0.00  0.00    +0.337 P 
ATOM     25  O   UNL     1     -32.905  27.469   6.583  0.00  0.00    -0.258 OA
BRANCH  24  26
ATOM     26  O   UNL     1     -31.555  29.500   7.569  0.00  0.00    -0.324 OA
ATOM     27  H   UNL     1     -32.326  30.083   7.493  0.00  0.00    +0.220 HD
ENDBRANCH  24  26
BRANCH  24  28
ATOM     28  O   UNL     1     -30.275  27.524   6.623  0.00  0.00    -0.324 OA
ATOM     29  H   UNL     1     -29.754  27.662   5.817  0.00  0.00    +0.220 HD
ENDBRANCH  24  28
ENDBRANCH  23  24
ENDBRANCH  22  23
ENDBRANCH  17  22
ENDBRANCH   3  17
TORSDOF 13
ENDMDL
MODEL 5
REMARK VINA RESULT:      -5.5      3.535      7.004
REMARK  Name = 53394627
REMARK  13 active torsions:
REMARK  status: ('A' for Active; 'I' for Inactive)
REMARK    1  A    between atoms: N_2  and  C_7
REMARK    2  A    between atoms: C_3  and  C_17
REMARK    3  A    between atoms: C_5  and  C_11
REMARK    4  A    between atoms: C_11  and  C_12
REMARK    5  A    between atoms: C_12  and  C_13
REMARK    6  A    between atoms: C_13  and  C_14
REMARK    7  A    between atoms: C_14  and  C_15
REMARK    8  A    between atoms: C_17  and  N_18
REMARK    9  A    between atoms: C_17  and  C_22
REMARK   10  A    between atoms: C_22  and  C_23
REMARK   11  A    between atoms: C_23  and  P_24
REMARK   12  A    between atoms: P_24  and  O_26
REMARK   13  A    between atoms: P_24  and  O_28
REMARK                            x       y       z     vdW  Elec       q    Type
REMARK                         _______ _______ _______ _____ _____    ______ ____
ROOT
ATOM      1  O   UNL     1     -35.294  23.634   2.733  0.00  0.00    -0.277 OA
ATOM      2  N   UNL     1     -35.797  21.475   3.516  0.00  0.00    -0.286 N 
ATOM      3  C   UNL     1     -35.611  22.862   3.633  0.00  0.00    +0.206 C 
ATOM      4  H   UNL     1     -36.074  21.008   4.337  0.00  0.00    +0.155 HD
ENDROOT
BRANCH   2   7
ATOM      5  C   UNL     1     -34.311  19.132   1.081  0.00  0.00    -0.021 C 
ATOM      6  C   UNL     1     -34.471  19.931   2.213  0.00  0.00    +0.010 C 
ATOM      7  C   UNL     1     -35.637  20.676   2.383  0.00  0.00    +0.050 C 
ATOM      8  C   UNL     1     -35.321  19.078   0.119  0.00  0.00    -0.004 C 
ATOM      9  C   UNL     1     -36.647  20.621   1.421  0.00  0.00    +0.015 C 
ATOM     10  C   UNL     1     -36.487  19.822   0.289  0.00  0.00    +0.001 C 
BRANCH   5  11
ATOM     11  C   UNL     1     -33.050  18.328   0.897  0.00  0.00    +0.026 C 
BRANCH  11  12
ATOM     12  C   UNL     1     -31.823  19.229   0.738  0.00  0.00    +0.005 C 
BRANCH  12  13
ATOM     13  C   UNL     1     -31.696  19.742  -0.698  0.00  0.00    +0.000 C 
BRANCH  13  14
ATOM     14  C   UNL     1     -31.608  21.269  -0.735  0.00  0.00    +0.000 C 
BRANCH  14  15
ATOM     15  C   UNL     1     -32.930  21.891  -1.187  0.00  0.00    +0.000 C 
ATOM     16  C   UNL     1     -33.589  22.676  -0.065  0.00  0.00    +0.000 C 
ENDBRANCH  14  15
ENDBRANCH  13  14
ENDBRANCH  12  13
ENDBRANCH  11  12
ENDBRANCH   5  11
ENDBRANCH   2   7
BRANCH   3  17
ATOM     17  C   UNL     1     -35.888  23.361   5.052  0.00  0.00    +0.014 C 
BRANCH  17  18
ATOM     18  N   UNL     1     -36.019  22.159   5.877  0.00  0.00    +0.387 N 
ATOM     19  H   UNL     1     -35.951  21.331   5.283  0.00  0.00    -0.089 HD
ATOM     20  H   UNL     1     -36.924  22.166   6.347  0.00  0.00    -0.089 HD
ATOM     21  H   UNL     1     -35.274  22.140   6.572  0.00  0.00    -0.089 HD
ENDBRANCH  17  18
BRANCH  17  22
ATOM     22  C   UNL     1     -34.747  24.229   5.600  0.00  0.00    -0.000 C 
BRANCH  22  23
ATOM     23  C   UNL     1     -35.042  25.726   5.524  0.00  0.00    +0.114 C 
BRANCH  23  24
ATOM     24  P   UNL     1     -34.116  26.586   4.233  0.00  0.00    +0.337 P 
ATOM     25  O   UNL     1     -33.523  27.875   4.682  0.00  0.00    -0.258 OA
BRANCH  24  26
ATOM     26  O   UNL     1     -35.191  26.676   3.038  0.00  0.00    -0.324 OA
ATOM     27  H   UNL     1     -35.378  27.607   2.841  0.00  0.00    +0.220 HD
ENDBRANCH  24  26
BRANCH  24  28
ATOM     28  O   UNL     1     -33.079  25.459   3.740  0.00  0.00    -0.324 OA
ATOM     29  H   UNL     1     -32.805  25.648   2.829  0.00  0.00    +0.220 HD
ENDBRANCH  24  28
ENDBRANCH  23  24
ENDBRANCH  22  23
ENDBRANCH  17  22
ENDBRANCH   3  17
TORSDOF 13
ENDMDL
MODEL 6
REMARK VINA RESULT:      -5.4      4.330      7.606
REMARK  Name = 53394627
REMARK  13 active torsions:
REMARK  status: ('A' for Active; 'I' for Inactive)
REMARK    1  A    between atoms: N_2  and  C_7
REMARK    2  A    between atoms: C_3  and  C_17
REMARK    3  A    between atoms: C_5  and  C_11
REMARK    4  A    between atoms: C_11  and  C_12
REMARK    5  A    between atoms: C_12  and  C_13
REMARK    6  A    between atoms: C_13  and  C_14
REMARK    7  A    between atoms: C_14  and  C_15
REMARK    8  A    between atoms: C_17  and  N_18
REMARK    9  A    between atoms: C_17  and  C_22
REMARK   10  A    between atoms: C_22  and  C_23
REMARK   11  A    between atoms: C_23  and  P_24
REMARK   12  A    between atoms: P_24  and  O_26
REMARK   13  A    between atoms: P_24  and  O_28
REMARK                            x       y       z     vdW  Elec       q    Type
REMARK                         _______ _______ _______ _____ _____    ______ ____
ROOT
ATOM      1  O   UNL     1     -35.017  23.380   2.827  0.00  0.00    -0.277 OA
ATOM      2  N   UNL     1     -35.912  21.309   3.487  0.00  0.00    -0.286 N 
ATOM      3  C   UNL     1     -35.541  22.652   3.665  0.00  0.00    +0.206 C 
ATOM      4  H   UNL     1     -36.344  20.876   4.259  0.00  0.00    +0.155 HD
ENDROOT
BRANCH   2   7
ATOM      5  C   UNL     1     -34.335  19.142   0.949  0.00  0.00    -0.021 C 
ATOM      6  C   UNL     1     -34.502  19.941   2.080  0.00  0.00    +0.010 C 
ATOM      7  C   UNL     1     -35.745  20.510   2.355  0.00  0.00    +0.050 C 
ATOM      8  C   UNL     1     -35.413  18.912   0.094  0.00  0.00    -0.004 C 
ATOM      9  C   UNL     1     -36.823  20.279   1.500  0.00  0.00    +0.015 C 
ATOM     10  C   UNL     1     -36.656  19.480   0.369  0.00  0.00    +0.001 C 
BRANCH   5  11
ATOM     11  C   UNL     1     -32.991  18.529   0.651  0.00  0.00    +0.026 C 
BRANCH  11  12
ATOM     12  C   UNL     1     -31.901  19.594   0.509  0.00  0.00    +0.005 C 
BRANCH  12  13
ATOM     13  C   UNL     1     -30.566  18.970   0.102  0.00  0.00    +0.000 C 
BRANCH  13  14
ATOM     14  C   UNL     1     -30.283  17.696   0.901  0.00  0.00    +0.000 C 
BRANCH  14  15
ATOM     15  C   UNL     1     -28.789  17.539   1.185  0.00  0.00    +0.000 C 
ATOM     16  C   UNL     1     -27.961  18.525   0.378  0.00  0.00    +0.000 C 
ENDBRANCH  14  15
ENDBRANCH  13  14
ENDBRANCH  12  13
ENDBRANCH  11  12
ENDBRANCH   5  11
ENDBRANCH   2   7
BRANCH   3  17
ATOM     17  C   UNL     1     -35.900  23.167   5.059  0.00  0.00    +0.014 C 
BRANCH  17  18
ATOM     18  N   UNL     1     -35.969  21.981   5.915  0.00  0.00    +0.387 N 
ATOM     19  H   UNL     1     -35.454  22.155   6.778  0.00  0.00    -0.089 HD
ATOM     20  H   UNL     1     -35.556  21.186   5.427  0.00  0.00    -0.089 HD
ATOM     21  H   UNL     1     -36.943  21.777   6.135  0.00  0.00    -0.089 HD
ENDBRANCH  17  18
BRANCH  17  22
ATOM     22  C   UNL     1     -34.843  24.132   5.616  0.00  0.00    -0.000 C 
BRANCH  22  23
ATOM     23  C   UNL     1     -35.280  25.594   5.567  0.00  0.00    +0.114 C 
BRANCH  23  24
ATOM     24  P   UNL     1     -34.107  26.678   4.723  0.00  0.00    +0.337 P 
ATOM     25  O   UNL     1     -33.193  27.403   5.646  0.00  0.00    -0.258 OA
BRANCH  24  26
ATOM     26  O   UNL     1     -35.072  27.592   3.815  0.00  0.00    -0.324 OA
ATOM     27  H   UNL     1     -35.981  27.261   3.873  0.00  0.00    +0.220 HD
ENDBRANCH  24  26
BRANCH  24  28
ATOM     28  O   UNL     1     -33.410  25.681   3.668  0.00  0.00    -0.324 OA
ATOM     29  H   UNL     1     -33.491  26.048   2.774  0.00  0.00    +0.220 HD
ENDBRANCH  24  28
ENDBRANCH  23  24
ENDBRANCH  22  23
ENDBRANCH  17  22
ENDBRANCH   3  17
TORSDOF 13
ENDMDL
MODEL 7
REMARK VINA RESULT:      -5.4      5.982      9.609
REMARK  Name = 53394627
REMARK  13 active torsions:
REMARK  status: ('A' for Active; 'I' for Inactive)
REMARK    1  A    between atoms: N_2  and  C_7
REMARK    2  A    between atoms: C_3  and  C_17
REMARK    3  A    between atoms: C_5  and  C_11
REMARK    4  A    between atoms: C_11  and  C_12
REMARK    5  A    between atoms: C_12  and  C_13
REMARK    6  A    between atoms: C_13  and  C_14
REMARK    7  A    between atoms: C_14  and  C_15
REMARK    8  A    between atoms: C_17  and  N_18
REMARK    9  A    between atoms: C_17  and  C_22
REMARK   10  A    between atoms: C_22  and  C_23
REMARK   11  A    between atoms: C_23  and  P_24
REMARK   12  A    between atoms: P_24  and  O_26
REMARK   13  A    between atoms: P_24  and  O_28
REMARK                            x       y       z     vdW  Elec       q    Type
REMARK                         _______ _______ _______ _____ _____    ______ ____
ROOT
ATOM      1  O   UNL     1     -32.214  27.065   6.712  0.00  0.00    -0.277 OA
ATOM      2  N   UNL     1     -33.321  27.439   4.672  0.00  0.00    -0.286 N 
ATOM      3  C   UNL     1     -32.437  27.750   5.718  0.00  0.00    +0.206 C 
ATOM      4  H   UNL     1     -33.362  28.091   3.936  0.00  0.00    +0.155 HD
ENDROOT
BRANCH   2   7
ATOM      5  C   UNL     1     -34.849  24.365   3.314  0.00  0.00    -0.021 C 
ATOM      6  C   UNL     1     -34.022  25.481   3.440  0.00  0.00    +0.010 C 
ATOM      7  C   UNL     1     -34.149  26.322   4.545  0.00  0.00    +0.050 C 
ATOM      8  C   UNL     1     -35.804  24.091   4.293  0.00  0.00    -0.004 C 
ATOM      9  C   UNL     1     -35.104  26.048   5.525  0.00  0.00    +0.015 C 
ATOM     10  C   UNL     1     -35.931  24.933   5.398  0.00  0.00    +0.001 C 
BRANCH   5  11
ATOM     11  C   UNL     1     -34.712  23.457   2.119  0.00  0.00    +0.026 C 
BRANCH  11  12
ATOM     12  C   UNL     1     -35.716  22.302   2.169  0.00  0.00    +0.005 C 
BRANCH  12  13
ATOM     13  C   UNL     1     -35.292  21.159   1.244  0.00  0.00    +0.000 C 
BRANCH  13  14
ATOM     14  C   UNL     1     -34.680  20.003   2.037  0.00  0.00    +0.000 C 
BRANCH  14  15
ATOM     15  C   UNL     1     -33.572  19.311   1.242  0.00  0.00    +0.000 C 
ATOM     16  C   UNL     1     -32.778  20.305   0.410  0.00  0.00    +0.000 C 
ENDBRANCH  14  15
ENDBRANCH  13  14
ENDBRANCH  12  13
ENDBRANCH  11  12
ENDBRANCH   5  11
ENDBRANCH   2   7
BRANCH   3  17
ATOM     17  C   UNL     1     -31.708  29.073   5.480  0.00  0.00    +0.014 C 
BRANCH  17  18
ATOM     18  N   UNL     1     -32.757  30.071   5.271  0.00  0.00    +0.387 N 
ATOM     19  H   UNL     1     -33.401  30.058   6.062  0.00  0.00    -0.089 HD
ATOM     20  H   UNL     1     -33.267  29.855   4.415  0.00  0.00    -0.089 HD
ATOM     21  H   UNL     1     -32.336  30.997   5.192  0.00  0.00    -0.089 HD
ENDBRANCH  17  18
BRANCH  17  22
ATOM     22  C   UNL     1     -30.844  29.488   6.678  0.00  0.00    -0.000 C 
BRANCH  22  23
ATOM     23  C   UNL     1     -29.375  29.693   6.318  0.00  0.00    +0.114 C 
BRANCH  23  24
ATOM     24  P   UNL     1     -28.272  28.444   7.017  0.00  0.00    +0.337 P 
ATOM     25  O   UNL     1     -27.691  28.830   8.332  0.00  0.00    -0.258 OA
BRANCH  24  26
ATOM     26  O   UNL     1     -27.223  28.198   5.821  0.00  0.00    -0.324 OA
ATOM     27  H   UNL     1     -27.666  27.736   5.093  0.00  0.00    +0.220 HD
ENDBRANCH  24  26
BRANCH  24  28
ATOM     28  O   UNL     1     -29.192  27.123   7.006  0.00  0.00    -0.324 OA
ATOM     29  H   UNL     1     -28.631  26.337   7.099  0.00  0.00    +0.220 HD
ENDBRANCH  24  28
ENDBRANCH  23  24
ENDBRANCH  22  23
ENDBRANCH  17  22
ENDBRANCH   3  17
TORSDOF 13
ENDMDL
MODEL 8
REMARK VINA RESULT:      -5.4      2.774      3.414
REMARK  Name = 53394627
REMARK  13 active torsions:
REMARK  status: ('A' for Active; 'I' for Inactive)
REMARK    1  A    between atoms: N_2  and  C_7
REMARK    2  A    between atoms: C_3  and  C_17
REMARK    3  A    between atoms: C_5  and  C_11
REMARK    4  A    between atoms: C_11  and  C_12
REMARK    5  A    between atoms: C_12  and  C_13
REMARK    6  A    between atoms: C_13  and  C_14
REMARK    7  A    between atoms: C_14  and  C_15
REMARK    8  A    between atoms: C_17  and  N_18
REMARK    9  A    between atoms: C_17  and  C_22
REMARK   10  A    between atoms: C_22  and  C_23
REMARK   11  A    between atoms: C_23  and  P_24
REMARK   12  A    between atoms: P_24  and  O_26
REMARK   13  A    between atoms: P_24  and  O_28
REMARK                            x       y       z     vdW  Elec       q    Type
REMARK                         _______ _______ _______ _____ _____    ______ ____
ROOT
ATOM      1  O   UNL     1     -36.703  23.122   0.977  0.00  0.00    -0.277 OA
ATOM      2  N   UNL     1     -37.693  22.831   3.090  0.00  0.00    -0.286 N 
ATOM      3  C   UNL     1     -37.673  22.868   1.686  0.00  0.00    +0.206 C 
ATOM      4  H   UNL     1     -38.553  22.586   3.501  0.00  0.00    +0.155 HD
ENDROOT
BRANCH   2   7
ATOM      5  C   UNL     1     -35.352  24.677   5.267  0.00  0.00    -0.021 C 
ATOM      6  C   UNL     1     -36.396  24.409   4.382  0.00  0.00    +0.010 C 
ATOM      7  C   UNL     1     -36.648  23.099   3.975  0.00  0.00    +0.050 C 
ATOM      8  C   UNL     1     -34.559  23.633   5.746  0.00  0.00    -0.004 C 
ATOM      9  C   UNL     1     -35.855  22.055   4.454  0.00  0.00    +0.015 C 
ATOM     10  C   UNL     1     -34.811  22.323   5.339  0.00  0.00    +0.001 C 
BRANCH   5  11
ATOM     11  C   UNL     1     -35.080  26.093   5.706  0.00  0.00    +0.026 C 
BRANCH  11  12
ATOM     12  C   UNL     1     -33.580  26.359   5.859  0.00  0.00    +0.005 C 
BRANCH  12  13
ATOM     13  C   UNL     1     -33.085  27.359   4.812  0.00  0.00    +0.000 C 
BRANCH  13  14
ATOM     14  C   UNL     1     -33.674  27.055   3.434  0.00  0.00    +0.000 C 
BRANCH  14  15
ATOM     15  C   UNL     1     -32.885  25.955   2.723  0.00  0.00    +0.000 C 
ATOM     16  C   UNL     1     -33.796  25.065   1.891  0.00  0.00    +0.000 C 
ENDBRANCH  14  15
ENDBRANCH  13  14
ENDBRANCH  12  13
ENDBRANCH  11  12
ENDBRANCH   5  11
ENDBRANCH   2   7
BRANCH   3  17
ATOM     17  C   UNL     1     -39.031  22.508   1.083  0.00  0.00    +0.014 C 
BRANCH  17  18
ATOM     18  N   UNL     1     -39.219  21.081   1.352  0.00  0.00    +0.387 N 
ATOM     19  H   UNL     1     -40.070  20.949   1.900  0.00  0.00    -0.089 HD
ATOM     20  H   UNL     1     -38.419  20.726   1.876  0.00  0.00    -0.089 HD
ATOM     21  H   UNL     1     -39.300  20.576   0.470  0.00  0.00    -0.089 HD
ENDBRANCH  17  18
BRANCH  17  22
ATOM     22  C   UNL     1     -40.182  23.299   1.718  0.00  0.00    -0.000 C 
BRANCH  22  23
ATOM     23  C   UNL     1     -40.176  24.778   1.338  0.00  0.00    +0.114 C 
BRANCH  23  24
ATOM     24  P   UNL     1     -40.040  25.894   2.753  0.00  0.00    +0.337 P 
ATOM     25  O   UNL     1     -41.161  26.867   2.855  0.00  0.00    -0.258 OA
BRANCH  24  26
ATOM     26  O   UNL     1     -38.570  26.520   2.561  0.00  0.00    -0.324 OA
ATOM     27  H   UNL     1     -38.015  26.281   3.319  0.00  0.00    +0.220 HD
ENDBRANCH  24  26
BRANCH  24  28
ATOM     28  O   UNL     1     -39.870  24.872   3.986  0.00  0.00    -0.324 OA
ATOM     29  H   UNL     1     -39.667  23.987   3.647  0.00  0.00    +0.220 HD
ENDBRANCH  24  28
ENDBRANCH  23  24
ENDBRANCH  22  23
ENDBRANCH  17  22
ENDBRANCH   3  17
TORSDOF 13
ENDMDL
MODEL 9
REMARK VINA RESULT:      -5.3      3.170      4.145
REMARK  Name = 53394627
REMARK  13 active torsions:
REMARK  status: ('A' for Active; 'I' for Inactive)
REMARK    1  A    between atoms: N_2  and  C_7
REMARK    2  A    between atoms: C_3  and  C_17
REMARK    3  A    between atoms: C_5  and  C_11
REMARK    4  A    between atoms: C_11  and  C_12
REMARK    5  A    between atoms: C_12  and  C_13
REMARK    6  A    between atoms: C_13  and  C_14
REMARK    7  A    between atoms: C_14  and  C_15
REMARK    8  A    between atoms: C_17  and  N_18
REMARK    9  A    between atoms: C_17  and  C_22
REMARK   10  A    between atoms: C_22  and  C_23
REMARK   11  A    between atoms: C_23  and  P_24
REMARK   12  A    between atoms: P_24  and  O_26
REMARK   13  A    between atoms: P_24  and  O_28
REMARK                            x       y       z     vdW  Elec       q    Type
REMARK                         _______ _______ _______ _____ _____    ______ ____
ROOT
ATOM      1  O   UNL     1     -40.097  21.656   1.937  0.00  0.00    -0.277 OA
ATOM      2  N   UNL     1     -38.176  22.868   1.327  0.00  0.00    -0.286 N 
ATOM      3  C   UNL     1     -39.525  22.488   1.238  0.00  0.00    +0.206 C 
ATOM      4  H   UNL     1     -37.885  23.570   0.702  0.00  0.00    +0.155 HD
ENDROOT
BRANCH   2   7
ATOM      5  C   UNL     1     -35.886  22.582   4.208  0.00  0.00    -0.021 C 
ATOM      6  C   UNL     1     -36.865  23.077   3.347  0.00  0.00    +0.010 C 
ATOM      7  C   UNL     1     -37.196  22.373   2.189  0.00  0.00    +0.050 C 
ATOM      8  C   UNL     1     -35.238  21.383   3.911  0.00  0.00    -0.004 C 
ATOM      9  C   UNL     1     -36.548  21.174   1.892  0.00  0.00    +0.015 C 
ATOM     10  C   UNL     1     -35.569  20.679   2.753  0.00  0.00    +0.001 C 
BRANCH   5  11
ATOM     11  C   UNL     1     -35.528  23.343   5.459  0.00  0.00    +0.026 C 
BRANCH  11  12
ATOM     12  C   UNL     1     -35.894  24.825   5.344  0.00  0.00    +0.005 C 
BRANCH  12  13
ATOM     13  C   UNL     1     -34.708  25.718   5.712  0.00  0.00    +0.000 C 
BRANCH  13  14
ATOM     14  C   UNL     1     -34.265  26.571   4.521  0.00  0.00    +0.000 C 
BRANCH  14  15
ATOM     15  C   UNL     1     -35.297  26.528   3.393  0.00  0.00    +0.000 C 
ATOM     16  C   UNL     1     -35.198  27.754   2.500  0.00  0.00    +0.000 C 
ENDBRANCH  14  15
ENDBRANCH  13  14
ENDBRANCH  12  13
ENDBRANCH  11  12
ENDBRANCH   5  11
ENDBRANCH   2   7
BRANCH   3  17
ATOM     17  C   UNL     1     -40.273  23.272   0.158  0.00  0.00    +0.014 C 
BRANCH  17  18
ATOM     18  N   UNL     1     -41.652  22.783   0.196  0.00  0.00    +0.387 N 
ATOM     19  H   UNL     1     -42.018  22.874   1.144  0.00  0.00    -0.089 HD
ATOM     20  H   UNL     1     -41.672  21.803  -0.083  0.00  0.00    -0.089 HD
ATOM     21  H   UNL     1     -42.225  23.332  -0.444  0.00  0.00    -0.089 HD
ENDBRANCH  17  18
BRANCH  17  22
ATOM     22  C   UNL     1     -40.264  24.785   0.421  0.00  0.00    -0.000 C 
BRANCH  22  23
ATOM     23  C   UNL     1     -41.009  25.176   1.695  0.00  0.00    +0.114 C 
BRANCH  23  24
ATOM     24  P   UNL     1     -39.957  25.937   2.951  0.00  0.00    +0.337 P 
ATOM     25  O   UNL     1     -38.714  26.543   2.401  0.00  0.00    -0.258 OA
BRANCH  24  26
ATOM     26  O   UNL     1     -39.756  24.738   4.006  0.00  0.00    -0.324 OA
ATOM     27  H   UNL     1     -40.157  23.928   3.657  0.00  0.00    +0.220 HD
ENDBRANCH  24  26
BRANCH  24  28
ATOM     28  O   UNL     1     -40.971  26.943   3.692  0.00  0.00    -0.324 OA
ATOM     29  H   UNL     1     -40.512  27.384   4.424  0.00  0.00    +0.220 HD
ENDBRANCH  24  28
ENDBRANCH  23  24
ENDBRANCH  22  23
ENDBRANCH  17  22
ENDBRANCH   3  17
TORSDOF 13
ENDMDL
