MODEL 1
REMARK VINA RESULT:      -5.2      0.000      0.000
REMARK  Name = 5386599
REMARK  9 active torsions:
REMARK  status: ('A' for Active; 'I' for Inactive)
REMARK    1  A    between atoms: N_1  and  C_2
REMARK    2  A    between atoms: N_1  and  N_3
REMARK    3  A    between atoms: C_2  and  C_12
REMARK    4  A    between atoms: C_2  and  C_23
REMARK    5  A    between atoms: N_3  and  C_6
REMARK    6  A    between atoms: N_11  and  C_12
REMARK    7  A    between atoms: N_11  and  N_13
REMARK    8  A    between atoms: C_12  and  C_21
REMARK    9  A    between atoms: N_13  and  C_16
REMARK                            x       y       z     vdW  Elec       q    Type
REMARK                         _______ _______ _______ _____ _____    ______ ____
ROOT
ATOM      1  C   UNL     1     -36.045  22.971   3.406  0.00  0.00    +0.116 C 
ENDROOT
BRANCH   1   2
ATOM      2  C   UNL     1     -35.297  22.207   2.340  0.00  0.00    +0.021 C 
ATOM      3  C   UNL     1     -35.389  20.712   2.584  0.00  0.00    +0.002 C 
ENDBRANCH   1   2
BRANCH   1   4
ATOM      4  N   UNL     1     -37.327  23.068   3.557  0.00  0.00    -0.097 NA
BRANCH   4   5
ATOM      5  N   UNL     1     -37.916  23.972   2.682  0.00  0.00    -0.145 NA
BRANCH   5   8
ATOM      6  N   UNL     1     -38.008  26.207   3.542  0.00  0.00    -0.369 N 
ATOM      7  N   UNL     1     -39.782  24.794   3.816  0.00  0.00    -0.369 N 
ATOM      8  C   UNL     1     -38.515  24.950   3.307  0.00  0.00    +0.207 C 
ATOM      9  H   UNL     1     -37.105  26.442   3.224  0.00  0.00    +0.159 HD
ATOM     10  H   UNL     1     -38.547  26.874   4.026  0.00  0.00    +0.159 HD
ATOM     11  H   UNL     1     -40.252  23.934   3.711  0.00  0.00    +0.159 HD
ATOM     12  H   UNL     1     -40.220  25.541   4.284  0.00  0.00    +0.159 HD
ENDBRANCH   5   8
ENDBRANCH   4   5
ENDBRANCH   1   4
BRANCH   1  13
ATOM     13  C   UNL     1     -35.207  23.678   4.433  0.00  0.00    +0.116 C 
BRANCH  13  14
ATOM     14  C   UNL     1     -35.463  23.313   5.875  0.00  0.00    +0.021 C 
ATOM     15  C   UNL     1     -35.057  21.875   6.145  0.00  0.00    +0.002 C 
ENDBRANCH  13  14
BRANCH  13  16
ATOM     16  N   UNL     1     -34.331  24.513   3.972  0.00  0.00    -0.097 NA
BRANCH  16  17
ATOM     17  N   UNL     1     -34.896  25.666   3.445  0.00  0.00    -0.145 NA
BRANCH  17  20
ATOM     18  N   UNL     1     -34.965  27.984   3.713  0.00  0.00    -0.369 N 
ATOM     19  N   UNL     1     -33.830  26.773   5.285  0.00  0.00    -0.369 N 
ATOM     20  C   UNL     1     -34.571  26.734   4.125  0.00  0.00    +0.207 C 
ATOM     21  H   UNL     1     -35.502  28.085   2.894  0.00  0.00    +0.159 HD
ATOM     22  H   UNL     1     -34.712  28.777   4.237  0.00  0.00    +0.159 HD
ATOM     23  H   UNL     1     -33.490  25.938   5.680  0.00  0.00    +0.159 HD
ATOM     24  H   UNL     1     -33.642  27.636   5.719  0.00  0.00    +0.159 HD
ENDBRANCH  17  20
ENDBRANCH  16  17
ENDBRANCH  13  16
ENDBRANCH   1  13
TORSDOF 9
ENDMDL
MODEL 2
REMARK VINA RESULT:      -5.1      0.802      3.898
REMARK  Name = 5386599
REMARK  9 active torsions:
REMARK  status: ('A' for Active; 'I' for Inactive)
REMARK    1  A    between atoms: N_1  and  C_2
REMARK    2  A    between atoms: N_1  and  N_3
REMARK    3  A    between atoms: C_2  and  C_12
REMARK    4  A    between atoms: C_2  and  C_23
REMARK    5  A    between atoms: N_3  and  C_6
REMARK    6  A    between atoms: N_11  and  C_12
REMARK    7  A    between atoms: N_11  and  N_13
REMARK    8  A    between atoms: C_12  and  C_21
REMARK    9  A    between atoms: N_13  and  C_16
REMARK                            x       y       z     vdW  Elec       q    Type
REMARK                         _______ _______ _______ _____ _____    ______ ____
ROOT
ATOM      1  C   UNL     1     -35.282  23.348   4.500  0.00  0.00    +0.116 C 
ENDROOT
BRANCH   1   2
ATOM      2  C   UNL     1     -35.573  22.781   5.868  0.00  0.00    +0.021 C 
ATOM      3  C   UNL     1     -34.929  21.417   6.033  0.00  0.00    +0.002 C 
ENDBRANCH   1   2
BRANCH   1   4
ATOM      4  N   UNL     1     -34.381  24.223   4.182  0.00  0.00    -0.097 NA
BRANCH   4   5
ATOM      5  N   UNL     1     -34.901  25.489   3.954  0.00  0.00    -0.145 NA
BRANCH   5   8
ATOM      6  N   UNL     1     -36.307  26.516   5.601  0.00  0.00    -0.369 N 
ATOM      7  N   UNL     1     -34.035  26.578   5.827  0.00  0.00    -0.369 N 
ATOM      8  C   UNL     1     -35.094  26.155   5.062  0.00  0.00    +0.207 C 
ATOM      9  H   UNL     1     -37.144  26.269   5.142  0.00  0.00    +0.159 HD
ATOM     10  H   UNL     1     -36.341  27.021   6.446  0.00  0.00    +0.159 HD
ATOM     11  H   UNL     1     -33.112  26.379   5.544  0.00  0.00    +0.159 HD
ATOM     12  H   UNL     1     -34.198  27.079   6.659  0.00  0.00    +0.159 HD
ENDBRANCH   5   8
ENDBRANCH   4   5
ENDBRANCH   1   4
BRANCH   1  13
ATOM     13  C   UNL     1     -36.111  22.818   3.366  0.00  0.00    +0.116 C 
BRANCH  13  14
ATOM     14  C   UNL     1     -35.365  22.106   2.263  0.00  0.00    +0.021 C 
ATOM     15  C   UNL     1     -35.354  20.607   2.504  0.00  0.00    +0.002 C 
ENDBRANCH  13  14
BRANCH  13  16
ATOM     16  N   UNL     1     -37.389  23.004   3.463  0.00  0.00    -0.097 NA
BRANCH  16  17
ATOM     17  N   UNL     1     -37.894  23.858   2.492  0.00  0.00    -0.145 NA
BRANCH  17  20
ATOM     18  N   UNL     1     -39.412  24.944   3.894  0.00  0.00    -0.369 N 
ATOM     19  N   UNL     1     -37.927  26.243   2.741  0.00  0.00    -0.369 N 
ATOM     20  C   UNL     1     -38.368  24.965   3.002  0.00  0.00    +0.207 C 
ATOM     21  H   UNL     1     -39.815  24.085   4.161  0.00  0.00    +0.159 HD
ATOM     22  H   UNL     1     -39.757  25.786   4.269  0.00  0.00    +0.159 HD
ATOM     23  H   UNL     1     -37.181  26.387   2.115  0.00  0.00    +0.159 HD
ATOM     24  H   UNL     1     -38.357  27.011   3.181  0.00  0.00    +0.159 HD
ENDBRANCH  17  20
ENDBRANCH  16  17
ENDBRANCH  13  16
ENDBRANCH   1  13
TORSDOF 9
ENDMDL
MODEL 3
REMARK VINA RESULT:      -5.1      2.394      4.231
REMARK  Name = 5386599
REMARK  9 active torsions:
REMARK  status: ('A' for Active; 'I' for Inactive)
REMARK    1  A    between atoms: N_1  and  C_2
REMARK    2  A    between atoms: N_1  and  N_3
REMARK    3  A    between atoms: C_2  and  C_12
REMARK    4  A    between atoms: C_2  and  C_23
REMARK    5  A    between atoms: N_3  and  C_6
REMARK    6  A    between atoms: N_11  and  C_12
REMARK    7  A    between atoms: N_11  and  N_13
REMARK    8  A    between atoms: C_12  and  C_21
REMARK    9  A    between atoms: N_13  and  C_16
REMARK                            x       y       z     vdW  Elec       q    Type
REMARK                         _______ _______ _______ _____ _____    ______ ____
ROOT
ATOM      1  C   UNL     1     -36.266  23.794   3.986  0.00  0.00    +0.116 C 
ENDROOT
BRANCH   1   2
ATOM      2  C   UNL     1     -35.651  25.165   4.125  0.00  0.00    +0.021 C 
ATOM      3  C   UNL     1     -36.041  25.798   5.447  0.00  0.00    +0.002 C 
ENDBRANCH   1   2
BRANCH   1   4
ATOM      4  N   UNL     1     -37.518  23.501   3.832  0.00  0.00    -0.097 NA
BRANCH   4   5
ATOM      5  N   UNL     1     -38.106  24.147   2.754  0.00  0.00    -0.145 NA
BRANCH   5   8
ATOM      6  N   UNL     1     -40.027  25.072   3.850  0.00  0.00    -0.369 N 
ATOM      7  N   UNL     1     -40.284  23.649   2.081  0.00  0.00    -0.369 N 
ATOM      8  C   UNL     1     -39.395  24.296   2.905  0.00  0.00    +0.207 C 
ATOM      9  H   UNL     1     -39.495  25.586   4.500  0.00  0.00    +0.159 HD
ATOM     10  H   UNL     1     -41.010  25.114   3.876  0.00  0.00    +0.159 HD
ATOM     11  H   UNL     1     -39.951  23.062   1.362  0.00  0.00    +0.159 HD
ATOM     12  H   UNL     1     -41.252  23.772   2.208  0.00  0.00    +0.159 HD
ENDBRANCH   5   8
ENDBRANCH   4   5
ENDBRANCH   1   4
BRANCH   1  13
ATOM     13  C   UNL     1     -35.316  22.631   3.996  0.00  0.00    +0.116 C 
BRANCH  13  14
ATOM     14  C   UNL     1     -34.592  22.367   5.293  0.00  0.00    +0.021 C 
ATOM     15  C   UNL     1     -35.576  22.029   6.399  0.00  0.00    +0.002 C 
ENDBRANCH  13  14
BRANCH  13  16
ATOM     16  N   UNL     1     -35.235  21.955   2.894  0.00  0.00    -0.097 NA
BRANCH  16  17
ATOM     17  N   UNL     1     -35.582  20.620   3.043  0.00  0.00    -0.145 NA
BRANCH  17  20
ATOM     18  N   UNL     1     -37.747  20.934   2.228  0.00  0.00    -0.369 N 
ATOM     19  N   UNL     1     -36.518  19.228   1.329  0.00  0.00    -0.369 N 
ATOM     20  C   UNL     1     -36.548  20.264   2.237  0.00  0.00    +0.207 C 
ATOM     21  H   UNL     1     -37.889  21.697   2.834  0.00  0.00    +0.159 HD
ATOM     22  H   UNL     1     -38.463  20.653   1.614  0.00  0.00    +0.159 HD
ATOM     23  H   UNL     1     -35.710  18.673   1.243  0.00  0.00    +0.159 HD
ATOM     24  H   UNL     1     -37.305  19.045   0.768  0.00  0.00    +0.159 HD
ENDBRANCH  17  20
ENDBRANCH  16  17
ENDBRANCH  13  16
ENDBRANCH   1  13
TORSDOF 9
ENDMDL
MODEL 4
REMARK VINA RESULT:      -5.0      1.454      1.974
REMARK  Name = 5386599
REMARK  9 active torsions:
REMARK  status: ('A' for Active; 'I' for Inactive)
REMARK    1  A    between atoms: N_1  and  C_2
REMARK    2  A    between atoms: N_1  and  N_3
REMARK    3  A    between atoms: C_2  and  C_12
REMARK    4  A    between atoms: C_2  and  C_23
REMARK    5  A    between atoms: N_3  and  C_6
REMARK    6  A    between atoms: N_11  and  C_12
REMARK    7  A    between atoms: N_11  and  N_13
REMARK    8  A    between atoms: C_12  and  C_21
REMARK    9  A    between atoms: N_13  and  C_16
REMARK                            x       y       z     vdW  Elec       q    Type
REMARK                         _______ _______ _______ _____ _____    ______ ____
ROOT
ATOM      1  C   UNL     1     -36.118  22.933   3.473  0.00  0.00    +0.116 C 
ENDROOT
BRANCH   1   2
ATOM      2  C   UNL     1     -35.335  22.219   2.399  0.00  0.00    +0.021 C 
ATOM      3  C   UNL     1     -35.384  20.716   2.606  0.00  0.00    +0.002 C 
ENDBRANCH   1   2
BRANCH   1   4
ATOM      4  N   UNL     1     -37.389  23.181   3.493  0.00  0.00    -0.097 NA
BRANCH   4   5
ATOM      5  N   UNL     1     -37.959  23.223   2.228  0.00  0.00    -0.145 NA
BRANCH   5   8
ATOM      6  N   UNL     1     -38.976  21.053   2.186  0.00  0.00    -0.369 N 
ATOM      7  N   UNL     1     -40.254  22.929   1.918  0.00  0.00    -0.369 N 
ATOM      8  C   UNL     1     -38.990  22.427   2.120  0.00  0.00    +0.207 C 
ATOM      9  H   UNL     1     -38.127  20.575   2.328  0.00  0.00    +0.159 HD
ATOM     10  H   UNL     1     -39.816  20.546   2.092  0.00  0.00    +0.159 HD
ATOM     11  H   UNL     1     -40.392  23.902   1.854  0.00  0.00    +0.159 HD
ATOM     12  H   UNL     1     -41.019  22.315   1.840  0.00  0.00    +0.159 HD
ENDBRANCH   5   8
ENDBRANCH   4   5
ENDBRANCH   1   4
BRANCH   1  13
ATOM     13  C   UNL     1     -35.342  23.386   4.677  0.00  0.00    +0.116 C 
BRANCH  13  14
ATOM     14  C   UNL     1     -35.644  22.678   5.976  0.00  0.00    +0.021 C 
ATOM     15  C   UNL     1     -34.759  21.455   6.139  0.00  0.00    +0.002 C 
ENDBRANCH  13  14
BRANCH  13  16
ATOM     16  N   UNL     1     -34.471  24.322   4.471  0.00  0.00    -0.097 NA
BRANCH  16  17
ATOM     17  N   UNL     1     -34.653  25.428   5.290  0.00  0.00    -0.145 NA
BRANCH  17  20
ATOM     18  N   UNL     1     -35.183  27.344   4.067  0.00  0.00    -0.369 N 
ATOM     19  N   UNL     1     -36.913  26.169   4.988  0.00  0.00    -0.369 N 
ATOM     20  C   UNL     1     -35.549  26.254   4.818  0.00  0.00    +0.207 C 
ATOM     21  H   UNL     1     -34.232  27.513   3.875  0.00  0.00    +0.159 HD
ATOM     22  H   UNL     1     -35.871  27.956   3.719  0.00  0.00    +0.159 HD
ATOM     23  H   UNL     1     -37.298  25.428   5.510  0.00  0.00    +0.159 HD
ATOM     24  H   UNL     1     -37.502  26.848   4.588  0.00  0.00    +0.159 HD
ENDBRANCH  17  20
ENDBRANCH  16  17
ENDBRANCH  13  16
ENDBRANCH   1  13
TORSDOF 9
ENDMDL
MODEL 5
REMARK VINA RESULT:      -5.0      2.349      4.421
REMARK  Name = 5386599
REMARK  9 active torsions:
REMARK  status: ('A' for Active; 'I' for Inactive)
REMARK    1  A    between atoms: N_1  and  C_2
REMARK    2  A    between atoms: N_1  and  N_3
REMARK    3  A    between atoms: C_2  and  C_12
REMARK    4  A    between atoms: C_2  and  C_23
REMARK    5  A    between atoms: N_3  and  C_6
REMARK    6  A    between atoms: N_11  and  C_12
REMARK    7  A    between atoms: N_11  and  N_13
REMARK    8  A    between atoms: C_12  and  C_21
REMARK    9  A    between atoms: N_13  and  C_16
REMARK                            x       y       z     vdW  Elec       q    Type
REMARK                         _______ _______ _______ _____ _____    ______ ____
ROOT
ATOM      1  C   UNL     1     -35.368  22.687   4.027  0.00  0.00    +0.116 C 
ENDROOT
BRANCH   1   2
ATOM      2  C   UNL     1     -34.658  22.365   5.320  0.00  0.00    +0.021 C 
ATOM      3  C   UNL     1     -35.656  22.063   6.422  0.00  0.00    +0.002 C 
ENDBRANCH   1   2
BRANCH   1   4
ATOM      4  N   UNL     1     -35.321  22.027   2.914  0.00  0.00    -0.097 NA
BRANCH   4   5
ATOM      5  N   UNL     1     -35.628  20.681   3.060  0.00  0.00    -0.145 NA
BRANCH   5   8
ATOM      6  N   UNL     1     -36.554  19.255   1.370  0.00  0.00    -0.369 N 
ATOM      7  N   UNL     1     -37.799  20.957   2.250  0.00  0.00    -0.369 N 
ATOM      8  C   UNL     1     -36.591  20.301   2.264  0.00  0.00    +0.207 C 
ATOM      9  H   UNL     1     -35.739  18.707   1.288  0.00  0.00    +0.159 HD
ATOM     10  H   UNL     1     -37.341  19.053   0.814  0.00  0.00    +0.159 HD
ATOM     11  H   UNL     1     -37.947  21.726   2.847  0.00  0.00    +0.159 HD
ATOM     12  H   UNL     1     -38.514  20.658   1.643  0.00  0.00    +0.159 HD
ENDBRANCH   5   8
ENDBRANCH   4   5
ENDBRANCH   1   4
BRANCH   1  13
ATOM     13  C   UNL     1     -36.258  23.896   4.037  0.00  0.00    +0.116 C 
BRANCH  13  14
ATOM     14  C   UNL     1     -35.578  25.229   4.241  0.00  0.00    +0.021 C 
ATOM     15  C   UNL     1     -36.028  25.866   5.543  0.00  0.00    +0.002 C 
ENDBRANCH  13  14
BRANCH  13  16
ATOM     16  N   UNL     1     -37.519  23.674   3.842  0.00  0.00    -0.097 NA
BRANCH  16  17
ATOM     17  N   UNL     1     -37.973  24.138   2.615  0.00  0.00    -0.145 NA
BRANCH  17  20
ATOM     18  N   UNL     1     -39.734  24.948   3.917  0.00  0.00    -0.369 N 
ATOM     19  N   UNL     1     -39.966  25.054   1.645  0.00  0.00    -0.369 N 
ATOM     20  C   UNL     1     -39.158  24.683   2.698  0.00  0.00    +0.207 C 
ATOM     21  H   UNL     1     -39.252  24.727   4.747  0.00  0.00    +0.159 HD
ATOM     22  H   UNL     1     -40.626  25.359   3.961  0.00  0.00    +0.159 HD
ATOM     23  H   UNL     1     -39.662  24.915   0.720  0.00  0.00    +0.159 HD
ATOM     24  H   UNL     1     -40.846  25.459   1.820  0.00  0.00    +0.159 HD
ENDBRANCH  17  20
ENDBRANCH  16  17
ENDBRANCH  13  16
ENDBRANCH   1  13
TORSDOF 9
ENDMDL
MODEL 6
REMARK VINA RESULT:      -4.9      1.852      2.976
REMARK  Name = 5386599
REMARK  9 active torsions:
REMARK  status: ('A' for Active; 'I' for Inactive)
REMARK    1  A    between atoms: N_1  and  C_2
REMARK    2  A    between atoms: N_1  and  N_3
REMARK    3  A    between atoms: C_2  and  C_12
REMARK    4  A    between atoms: C_2  and  C_23
REMARK    5  A    between atoms: N_3  and  C_6
REMARK    6  A    between atoms: N_11  and  C_12
REMARK    7  A    between atoms: N_11  and  N_13
REMARK    8  A    between atoms: C_12  and  C_21
REMARK    9  A    between atoms: N_13  and  C_16
REMARK                            x       y       z     vdW  Elec       q    Type
REMARK                         _______ _______ _______ _____ _____    ______ ____
ROOT
ATOM      1  C   UNL     1     -35.370  24.260   5.088  0.00  0.00    +0.116 C 
ENDROOT
BRANCH   1   2
ATOM      2  C   UNL     1     -34.636  23.007   5.498  0.00  0.00    +0.021 C 
ATOM      3  C   UNL     1     -35.521  22.120   6.354  0.00  0.00    +0.002 C 
ENDBRANCH   1   2
BRANCH   1   4
ATOM      4  N   UNL     1     -36.647  24.475   5.119  0.00  0.00    -0.097 NA
BRANCH   4   5
ATOM      5  N   UNL     1     -37.285  24.168   3.925  0.00  0.00    -0.145 NA
BRANCH   5   8
ATOM      6  N   UNL     1     -37.859  26.288   2.966  0.00  0.00    -0.369 N 
ATOM      7  N   UNL     1     -39.491  24.916   3.787  0.00  0.00    -0.369 N 
ATOM      8  C   UNL     1     -38.145  25.086   3.571  0.00  0.00    +0.207 C 
ATOM      9  H   UNL     1     -36.926  26.526   2.759  0.00  0.00    +0.159 HD
ATOM     10  H   UNL     1     -38.587  26.912   2.740  0.00  0.00    +0.159 HD
ATOM     11  H   UNL     1     -39.820  24.091   4.214  0.00  0.00    +0.159 HD
ATOM     12  H   UNL     1     -40.126  25.617   3.514  0.00  0.00    +0.159 HD
ENDBRANCH   5   8
ENDBRANCH   4   5
ENDBRANCH   1   4
BRANCH   1  13
ATOM     13  C   UNL     1     -34.523  25.406   4.614  0.00  0.00    +0.116 C 
BRANCH  13  14
ATOM     14  C   UNL     1     -33.889  25.255   3.252  0.00  0.00    +0.021 C 
ATOM     15  C   UNL     1     -34.252  26.427   2.358  0.00  0.00    +0.002 C 
ENDBRANCH  13  14
BRANCH  13  16
ATOM     16  N   UNL     1     -34.444  26.422   5.413  0.00  0.00    -0.097 NA
BRANCH  16  17
ATOM     17  N   UNL     1     -33.267  26.451   6.148  0.00  0.00    -0.145 NA
BRANCH  17  20
ATOM     18  N   UNL     1     -31.933  28.102   7.120  0.00  0.00    -0.369 N 
ATOM     19  N   UNL     1     -32.644  28.447   4.975  0.00  0.00    -0.369 N 
ATOM     20  C   UNL     1     -32.657  27.604   6.064  0.00  0.00    +0.207 C 
ATOM     21  H   UNL     1     -31.867  27.587   7.957  0.00  0.00    +0.159 HD
ATOM     22  H   UNL     1     -31.480  28.971   7.039  0.00  0.00    +0.159 HD
ATOM     23  H   UNL     1     -33.129  28.199   4.155  0.00  0.00    +0.159 HD
ATOM     24  H   UNL     1     -32.150  29.297   5.018  0.00  0.00    +0.159 HD
ENDBRANCH  17  20
ENDBRANCH  16  17
ENDBRANCH  13  16
ENDBRANCH   1  13
TORSDOF 9
ENDMDL
MODEL 7
REMARK VINA RESULT:      -4.8      1.531      4.460
REMARK  Name = 5386599
REMARK  9 active torsions:
REMARK  status: ('A' for Active; 'I' for Inactive)
REMARK    1  A    between atoms: N_1  and  C_2
REMARK    2  A    between atoms: N_1  and  N_3
REMARK    3  A    between atoms: C_2  and  C_12
REMARK    4  A    between atoms: C_2  and  C_23
REMARK    5  A    between atoms: N_3  and  C_6
REMARK    6  A    between atoms: N_11  and  C_12
REMARK    7  A    between atoms: N_11  and  N_13
REMARK    8  A    between atoms: C_12  and  C_21
REMARK    9  A    between atoms: N_13  and  C_16
REMARK                            x       y       z     vdW  Elec       q    Type
REMARK                         _______ _______ _______ _____ _____    ______ ____
ROOT
ATOM      1  C   UNL     1     -34.551  24.715   4.078  0.00  0.00    +0.116 C 
ENDROOT
BRANCH   1   2
ATOM      2  C   UNL     1     -34.650  25.195   2.650  0.00  0.00    +0.021 C 
ATOM      3  C   UNL     1     -34.635  24.024   1.686  0.00  0.00    +0.002 C 
ENDBRANCH   1   2
BRANCH   1   4
ATOM      4  N   UNL     1     -33.635  25.002   4.947  0.00  0.00    -0.097 NA
BRANCH   4   5
ATOM      5  N   UNL     1     -34.060  25.901   5.916  0.00  0.00    -0.145 NA
BRANCH   5   8
ATOM      6  N   UNL     1     -32.910  27.841   5.106  0.00  0.00    -0.369 N 
ATOM      7  N   UNL     1     -32.583  27.121   7.249  0.00  0.00    -0.369 N 
ATOM      8  C   UNL     1     -33.235  26.904   6.059  0.00  0.00    +0.207 C 
ATOM      9  H   UNL     1     -33.315  27.793   4.209  0.00  0.00    +0.159 HD
ATOM     10  H   UNL     1     -32.273  28.562   5.319  0.00  0.00    +0.159 HD
ATOM     11  H   UNL     1     -32.734  26.514   8.010  0.00  0.00    +0.159 HD
ATOM     12  H   UNL     1     -31.965  27.881   7.340  0.00  0.00    +0.159 HD
ENDBRANCH   5   8
ENDBRANCH   4   5
ENDBRANCH   1   4
BRANCH   1  13
ATOM     13  C   UNL     1     -35.659  23.823   4.561  0.00  0.00    +0.116 C 
BRANCH  13  14
ATOM     14  C   UNL     1     -35.273  22.409   4.923  0.00  0.00    +0.021 C 
ATOM     15  C   UNL     1     -35.462  22.165   6.410  0.00  0.00    +0.002 C 
ENDBRANCH  13  14
BRANCH  13  16
ATOM     16  N   UNL     1     -36.831  24.368   4.643  0.00  0.00    -0.097 NA
BRANCH  16  17
ATOM     17  N   UNL     1     -37.725  23.889   3.696  0.00  0.00    -0.145 NA
BRANCH  17  20
ATOM     18  N   UNL     1     -38.330  26.132   3.469  0.00  0.00    -0.369 N 
ATOM     19  N   UNL     1     -39.847  24.558   2.804  0.00  0.00    -0.369 N 
ATOM     20  C   UNL     1     -38.599  24.792   3.337  0.00  0.00    +0.207 C 
ATOM     21  H   UNL     1     -37.466  26.426   3.839  0.00  0.00    +0.159 HD
ATOM     22  H   UNL     1     -38.999  26.798   3.193  0.00  0.00    +0.159 HD
ATOM     23  H   UNL     1     -40.156  23.634   2.660  0.00  0.00    +0.159 HD
ATOM     24  H   UNL     1     -40.430  25.314   2.566  0.00  0.00    +0.159 HD
ENDBRANCH  17  20
ENDBRANCH  16  17
ENDBRANCH  13  16
ENDBRANCH   1  13
TORSDOF 9
ENDMDL
MODEL 8
REMARK VINA RESULT:      -4.8      1.606      2.121
REMARK  Name = 5386599
REMARK  9 active torsions:
REMARK  status: ('A' for Active; 'I' for Inactive)
REMARK    1  A    between atoms: N_1  and  C_2
REMARK    2  A    between atoms: N_1  and  N_3
REMARK    3  A    between atoms: C_2  and  C_12
REMARK    4  A    between atoms: C_2  and  C_23
REMARK    5  A    between atoms: N_3  and  C_6
REMARK    6  A    between atoms: N_11  and  C_12
REMARK    7  A    between atoms: N_11  and  N_13
REMARK    8  A    between atoms: C_12  and  C_21
REMARK    9  A    between atoms: N_13  and  C_16
REMARK                            x       y       z     vdW  Elec       q    Type
REMARK                         _______ _______ _______ _____ _____    ______ ____
ROOT
ATOM      1  C   UNL     1     -36.181  21.952   2.913  0.00  0.00    +0.116 C 
ENDROOT
BRANCH   1   2
ATOM      2  C   UNL     1     -35.462  20.664   2.594  0.00  0.00    +0.021 C 
ATOM      3  C   UNL     1     -34.674  20.792   1.303  0.00  0.00    +0.002 C 
ENDBRANCH   1   2
BRANCH   1   4
ATOM      4  N   UNL     1     -37.034  22.585   2.172  0.00  0.00    -0.097 NA
BRANCH   4   5
ATOM      5  N   UNL     1     -38.300  22.017   2.184  0.00  0.00    -0.145 NA
BRANCH   5   8
ATOM      6  N   UNL     1     -40.436  22.908   1.558  0.00  0.00    -0.369 N 
ATOM      7  N   UNL     1     -39.128  24.010   3.072  0.00  0.00    -0.369 N 
ATOM      8  C   UNL     1     -39.248  22.915   2.252  0.00  0.00    +0.207 C 
ATOM      9  H   UNL     1     -40.638  22.171   0.936  0.00  0.00    +0.159 HD
ATOM     10  H   UNL     1     -41.085  23.638   1.683  0.00  0.00    +0.159 HD
ATOM     11  H   UNL     1     -38.319  24.127   3.622  0.00  0.00    +0.159 HD
ATOM     12  H   UNL     1     -39.851  24.677   3.111  0.00  0.00    +0.159 HD
ENDBRANCH   5   8
ENDBRANCH   4   5
ENDBRANCH   1   4
BRANCH   1  13
ATOM     13  C   UNL     1     -35.901  22.559   4.258  0.00  0.00    +0.116 C 
BRANCH  13  14
ATOM     14  C   UNL     1     -35.083  21.725   5.214  0.00  0.00    +0.021 C 
ATOM     15  C   UNL     1     -35.400  22.092   6.652  0.00  0.00    +0.002 C 
ENDBRANCH  13  14
BRANCH  13  16
ATOM     16  N   UNL     1     -36.369  23.751   4.451  0.00  0.00    -0.097 NA
BRANCH  16  17
ATOM     17  N   UNL     1     -35.440  24.751   4.201  0.00  0.00    -0.145 NA
BRANCH  17  20
ATOM     18  N   UNL     1     -34.396  25.945   5.915  0.00  0.00    -0.369 N 
ATOM     19  N   UNL     1     -36.531  26.544   5.361  0.00  0.00    -0.369 N 
ATOM     20  C   UNL     1     -35.475  25.698   5.102  0.00  0.00    +0.207 C 
ATOM     21  H   UNL     1     -33.578  25.404   5.824  0.00  0.00    +0.159 HD
ATOM     22  H   UNL     1     -34.440  26.662   6.587  0.00  0.00    +0.159 HD
ATOM     23  H   UNL     1     -37.364  26.465   4.841  0.00  0.00    +0.159 HD
ATOM     24  H   UNL     1     -36.453  27.226   6.066  0.00  0.00    +0.159 HD
ENDBRANCH  17  20
ENDBRANCH  16  17
ENDBRANCH  13  16
ENDBRANCH   1  13
TORSDOF 9
ENDMDL
MODEL 9
REMARK VINA RESULT:      -4.8      0.925      3.607
REMARK  Name = 5386599
REMARK  9 active torsions:
REMARK  status: ('A' for Active; 'I' for Inactive)
REMARK    1  A    between atoms: N_1  and  C_2
REMARK    2  A    between atoms: N_1  and  N_3
REMARK    3  A    between atoms: C_2  and  C_12
REMARK    4  A    between atoms: C_2  and  C_23
REMARK    5  A    between atoms: N_3  and  C_6
REMARK    6  A    between atoms: N_11  and  C_12
REMARK    7  A    between atoms: N_11  and  N_13
REMARK    8  A    between atoms: C_12  and  C_21
REMARK    9  A    between atoms: N_13  and  C_16
REMARK                            x       y       z     vdW  Elec       q    Type
REMARK                         _______ _______ _______ _____ _____    ______ ____
ROOT
ATOM      1  C   UNL     1     -34.934  23.788   3.126  0.00  0.00    +0.116 C 
ENDROOT
BRANCH   1   2
ATOM      2  C   UNL     1     -35.224  23.078   1.826  0.00  0.00    +0.021 C 
ATOM      3  C   UNL     1     -35.030  21.580   1.975  0.00  0.00    +0.002 C 
ENDBRANCH   1   2
BRANCH   1   4
ATOM      4  N   UNL     1     -34.058  24.717   3.340  0.00  0.00    -0.097 NA
BRANCH   4   5
ATOM      5  N   UNL     1     -34.513  25.987   3.010  0.00  0.00    -0.145 NA
BRANCH   5   8
ATOM      6  N   UNL     1     -33.532  27.507   4.583  0.00  0.00    -0.369 N 
ATOM      7  N   UNL     1     -35.747  26.965   4.732  0.00  0.00    -0.369 N 
ATOM      8  C   UNL     1     -34.570  26.780   4.047  0.00  0.00    +0.207 C 
ATOM      9  H   UNL     1     -32.636  27.457   4.178  0.00  0.00    +0.159 HD
ATOM     10  H   UNL     1     -33.685  28.077   5.371  0.00  0.00    +0.159 HD
ATOM     11  H   UNL     1     -36.564  26.496   4.442  0.00  0.00    +0.159 HD
ATOM     12  H   UNL     1     -35.773  27.566   5.511  0.00  0.00    +0.159 HD
ENDBRANCH   5   8
ENDBRANCH   4   5
ENDBRANCH   1   4
BRANCH   1  13
ATOM     13  C   UNL     1     -35.777  23.394   4.305  0.00  0.00    +0.116 C 
BRANCH  13  14
ATOM     14  C   UNL     1     -35.039  23.087   5.585  0.00  0.00    +0.021 C 
ATOM     15  C   UNL     1     -35.196  21.623   5.956  0.00  0.00    +0.002 C 
ENDBRANCH  13  14
BRANCH  13  16
ATOM     16  N   UNL     1     -37.057  23.385   4.109  0.00  0.00    -0.097 NA
BRANCH  16  17
ATOM     17  N   UNL     1     -37.629  24.649   4.161  0.00  0.00    -0.145 NA
BRANCH  17  20
ATOM     18  N   UNL     1     -38.605  24.604   2.041  0.00  0.00    -0.369 N 
ATOM     19  N   UNL     1     -39.978  24.992   3.827  0.00  0.00    -0.369 N 
ATOM     20  C   UNL     1     -38.690  24.747   3.405  0.00  0.00    +0.207 C 
ATOM     21  H   UNL     1     -37.733  24.425   1.619  0.00  0.00    +0.159 HD
ATOM     22  H   UNL     1     -39.414  24.680   1.487  0.00  0.00    +0.159 HD
ATOM     23  H   UNL     1     -40.167  25.113   4.785  0.00  0.00    +0.159 HD
ATOM     24  H   UNL     1     -40.708  25.047   3.170  0.00  0.00    +0.159 HD
ENDBRANCH  17  20
ENDBRANCH  16  17
ENDBRANCH  13  16
ENDBRANCH   1  13
TORSDOF 9
ENDMDL
