MODEL 1
REMARK VINA RESULT:      -5.6      0.000      0.000
REMARK  Name = 50906606
REMARK  7 active torsions:
REMARK  status: ('A' for Active; 'I' for Inactive)
REMARK    1  A    between atoms: C_2  and  N_9
REMARK    2  A    between atoms: C_3  and  O_20
REMARK    3  A    between atoms: C_5  and  O_18
REMARK    4  A    between atoms: C_6  and  O_22
REMARK    5  A    between atoms: C_10  and  C_12
REMARK    6  A    between atoms: C_12  and  C_13
REMARK    7  A    between atoms: C_13  and  O_16
REMARK                            x       y       z     vdW  Elec       q    Type
REMARK                         _______ _______ _______ _____ _____    ______ ____
ROOT
ATOM      1  O   UNL     1     -38.277  21.066   1.864  0.00  0.00    -0.330 OA
ATOM      2  C   UNL     1     -37.284  22.874   3.154  0.00  0.00    +0.128 C 
ATOM      3  C   UNL     1     -38.446  23.790   2.751  0.00  0.00    +0.163 C 
ATOM      4  C   UNL     1     -37.060  21.783   2.096  0.00  0.00    +0.138 C 
ATOM      5  C   UNL     1     -39.676  22.983   2.335  0.00  0.00    +0.199 C 
ATOM      6  C   UNL     1     -39.310  21.891   1.334  0.00  0.00    +0.263 C 
ATOM      7  C   UNL     1     -36.021  20.758   2.540  0.00  0.00    +0.034 C 
ENDROOT
BRANCH   2   9
ATOM      8  O   UNL     1     -35.883  23.322   5.651  0.00  0.00    -0.275 OA
ATOM      9  N   UNL     1     -36.085  23.656   3.360  0.00  0.00    -0.301 N 
ATOM     10  C   UNL     1     -35.485  23.812   4.596  0.00  0.00    +0.225 C 
ATOM     11  H   UNL     1     -35.676  24.098   2.581  0.00  0.00    +0.150 HD
BRANCH  10  12
ATOM     12  C   UNL     1     -34.243  24.686   4.546  0.00  0.00    +0.112 C 
BRANCH  12  13
ATOM     13  C   UNL     1     -34.482  26.133   5.015  0.00  0.00    +0.097 C 
ATOM     14  C   UNL     1     -34.203  27.101   3.860  0.00  0.00    +0.030 C 
ATOM     15  C   UNL     1     -33.616  26.505   6.219  0.00  0.00    +0.030 C 
BRANCH  13  16
ATOM     16  O   UNL     1     -35.849  26.299   5.395  0.00  0.00    -0.386 OA
ATOM     17  H   UNL     1     -36.163  25.490   5.830  0.00  0.00    +0.210 HD
ENDBRANCH  13  16
ENDBRANCH  12  13
ENDBRANCH  10  12
ENDBRANCH   2   9
BRANCH   5  18
ATOM     18  O   UNL     1     -40.618  23.877   1.742  0.00  0.00    -0.346 OA
ATOM     19  C   UNL     1     -40.054  24.556   0.632  0.00  0.00    +0.174 C 
ENDBRANCH   5  18
BRANCH   3  20
ATOM     20  O   UNL     1     -38.791  24.610   3.870  0.00  0.00    -0.380 OA
ATOM     21  H   UNL     1     -38.590  25.537   3.666  0.00  0.00    +0.211 HD
ENDBRANCH   3  20
BRANCH   6  22
ATOM     22  O   UNL     1     -40.478  21.109   1.093  0.00  0.00    -0.358 OA
ATOM     23  H   UNL     1     -40.239  20.169   1.069  0.00  0.00    +0.213 HD
ENDBRANCH   6  22
TORSDOF 7
ENDMDL
MODEL 2
REMARK VINA RESULT:      -5.3      2.833      5.029
REMARK  Name = 50906606
REMARK  7 active torsions:
REMARK  status: ('A' for Active; 'I' for Inactive)
REMARK    1  A    between atoms: C_2  and  N_9
REMARK    2  A    between atoms: C_3  and  O_20
REMARK    3  A    between atoms: C_5  and  O_18
REMARK    4  A    between atoms: C_6  and  O_22
REMARK    5  A    between atoms: C_10  and  C_12
REMARK    6  A    between atoms: C_12  and  C_13
REMARK    7  A    between atoms: C_13  and  O_16
REMARK                            x       y       z     vdW  Elec       q    Type
REMARK                         _______ _______ _______ _____ _____    ______ ____
ROOT
ATOM      1  O   UNL     1     -36.802  25.451   2.816  0.00  0.00    -0.330 OA
ATOM      2  C   UNL     1     -34.703  26.201   3.791  0.00  0.00    +0.128 C 
ATOM      3  C   UNL     1     -34.846  25.146   4.894  0.00  0.00    +0.163 C 
ATOM      4  C   UNL     1     -36.081  26.610   3.247  0.00  0.00    +0.138 C 
ATOM      5  C   UNL     1     -35.772  24.009   4.462  0.00  0.00    +0.199 C 
ATOM      6  C   UNL     1     -37.077  24.546   3.880  0.00  0.00    +0.263 C 
ATOM      7  C   UNL     1     -35.970  27.536   2.039  0.00  0.00    +0.034 C 
ENDROOT
BRANCH   2   9
ATOM      8  O   UNL     1     -31.882  26.781   3.468  0.00  0.00    -0.275 OA
ATOM      9  N   UNL     1     -33.979  27.348   4.293  0.00  0.00    -0.301 N 
ATOM     10  C   UNL     1     -32.625  27.539   4.087  0.00  0.00    +0.225 C 
ATOM     11  H   UNL     1     -34.475  28.026   4.806  0.00  0.00    +0.150 HD
BRANCH  10  12
ATOM     12  C   UNL     1     -32.103  28.817   4.722  0.00  0.00    +0.112 C 
BRANCH  12  13
ATOM     13  C   UNL     1     -31.334  28.589   6.036  0.00  0.00    +0.097 C 
ATOM     14  C   UNL     1     -31.693  29.688   7.042  0.00  0.00    +0.030 C 
ATOM     15  C   UNL     1     -29.819  28.557   5.827  0.00  0.00    +0.030 C 
BRANCH  13  16
ATOM     16  O   UNL     1     -31.719  27.338   6.610  0.00  0.00    -0.386 OA
ATOM     17  H   UNL     1     -30.926  26.807   6.787  0.00  0.00    +0.210 HD
ENDBRANCH  13  16
ENDBRANCH  12  13
ENDBRANCH  10  12
ENDBRANCH   2   9
BRANCH   5  18
ATOM     18  O   UNL     1     -36.057  23.205   5.607  0.00  0.00    -0.346 OA
ATOM     19  C   UNL     1     -35.414  21.943   5.523  0.00  0.00    +0.174 C 
ENDBRANCH   5  18
BRANCH   3  20
ATOM     20  O   UNL     1     -33.554  24.605   5.179  0.00  0.00    -0.380 OA
ATOM     21  H   UNL     1     -33.651  23.714   5.550  0.00  0.00    +0.211 HD
ENDBRANCH   3  20
BRANCH   6  22
ATOM     22  O   UNL     1     -37.827  23.436   3.390  0.00  0.00    -0.358 OA
ATOM     23  H   UNL     1     -37.505  22.619   3.805  0.00  0.00    +0.213 HD
ENDBRANCH   6  22
TORSDOF 7
ENDMDL
MODEL 3
REMARK VINA RESULT:      -5.2      2.699      3.576
REMARK  Name = 50906606
REMARK  7 active torsions:
REMARK  status: ('A' for Active; 'I' for Inactive)
REMARK    1  A    between atoms: C_2  and  N_9
REMARK    2  A    between atoms: C_3  and  O_20
REMARK    3  A    between atoms: C_5  and  O_18
REMARK    4  A    between atoms: C_6  and  O_22
REMARK    5  A    between atoms: C_10  and  C_12
REMARK    6  A    between atoms: C_12  and  C_13
REMARK    7  A    between atoms: C_13  and  O_16
REMARK                            x       y       z     vdW  Elec       q    Type
REMARK                         _______ _______ _______ _____ _____    ______ ____
ROOT
ATOM      1  O   UNL     1     -35.858  21.054   4.342  0.00  0.00    -0.330 OA
ATOM      2  C   UNL     1     -35.331  23.424   4.186  0.00  0.00    +0.128 C 
ATOM      3  C   UNL     1     -35.267  23.302   2.659  0.00  0.00    +0.163 C 
ATOM      4  C   UNL     1     -35.000  22.079   4.853  0.00  0.00    +0.138 C 
ATOM      5  C   UNL     1     -36.049  22.086   2.162  0.00  0.00    +0.199 C 
ATOM      6  C   UNL     1     -35.679  20.830   2.947  0.00  0.00    +0.263 C 
ATOM      7  C   UNL     1     -35.212  22.121   6.363  0.00  0.00    +0.034 C 
ENDROOT
BRANCH   2   9
ATOM      8  O   UNL     1     -36.022  25.832   5.643  0.00  0.00    -0.275 OA
ATOM      9  N   UNL     1     -34.434  24.465   4.638  0.00  0.00    -0.301 N 
ATOM     10  C   UNL     1     -34.860  25.583   5.331  0.00  0.00    +0.225 C 
ATOM     11  H   UNL     1     -33.473  24.372   4.444  0.00  0.00    +0.150 HD
BRANCH  10  12
ATOM     12  C   UNL     1     -33.724  26.529   5.685  0.00  0.00    +0.112 C 
BRANCH  12  13
ATOM     13  C   UNL     1     -33.115  27.251   4.470  0.00  0.00    +0.097 C 
ATOM     14  C   UNL     1     -32.163  28.353   4.948  0.00  0.00    +0.030 C 
ATOM     15  C   UNL     1     -34.183  27.855   3.556  0.00  0.00    +0.030 C 
BRANCH  13  16
ATOM     16  O   UNL     1     -32.350  26.329   3.692  0.00  0.00    -0.386 OA
ATOM     17  H   UNL     1     -32.596  26.413   2.757  0.00  0.00    +0.210 HD
ENDBRANCH  13  16
ENDBRANCH  12  13
ENDBRANCH  10  12
ENDBRANCH   2   9
BRANCH   5  18
ATOM     18  O   UNL     1     -35.744  21.892   0.781  0.00  0.00    -0.346 OA
ATOM     19  C   UNL     1     -34.349  21.729   0.580  0.00  0.00    +0.174 C 
ENDBRANCH   5  18
BRANCH   3  20
ATOM     20  O   UNL     1     -35.835  24.481   2.083  0.00  0.00    -0.380 OA
ATOM     21  H   UNL     1     -35.961  25.150   2.774  0.00  0.00    +0.211 HD
ENDBRANCH   3  20
BRANCH   6  22
ATOM     22  O   UNL     1     -36.534  19.775   2.512  0.00  0.00    -0.358 OA
ATOM     23  H   UNL     1     -36.884  19.984   1.631  0.00  0.00    +0.213 HD
ENDBRANCH   6  22
TORSDOF 7
ENDMDL
MODEL 4
REMARK VINA RESULT:      -5.1      1.835      6.132
REMARK  Name = 50906606
REMARK  7 active torsions:
REMARK  status: ('A' for Active; 'I' for Inactive)
REMARK    1  A    between atoms: C_2  and  N_9
REMARK    2  A    between atoms: C_3  and  O_20
REMARK    3  A    between atoms: C_5  and  O_18
REMARK    4  A    between atoms: C_6  and  O_22
REMARK    5  A    between atoms: C_10  and  C_12
REMARK    6  A    between atoms: C_12  and  C_13
REMARK    7  A    between atoms: C_13  and  O_16
REMARK                            x       y       z     vdW  Elec       q    Type
REMARK                         _______ _______ _______ _____ _____    ______ ____
ROOT
ATOM      1  O   UNL     1     -37.668  25.781   3.569  0.00  0.00    -0.330 OA
ATOM      2  C   UNL     1     -37.463  23.438   2.943  0.00  0.00    +0.128 C 
ATOM      3  C   UNL     1     -36.241  23.308   3.859  0.00  0.00    +0.163 C 
ATOM      4  C   UNL     1     -37.623  24.886   2.452  0.00  0.00    +0.138 C 
ATOM      5  C   UNL     1     -36.228  24.395   4.933  0.00  0.00    +0.199 C 
ATOM      6  C   UNL     1     -36.463  25.777   4.327  0.00  0.00    +0.263 C 
ATOM      7  C   UNL     1     -38.919  25.087   1.672  0.00  0.00    +0.034 C 
ENDROOT
BRANCH   2   9
ATOM      8  O   UNL     1     -39.328  21.354   2.186  0.00  0.00    -0.275 OA
ATOM      9  N   UNL     1     -37.349  22.520   1.832  0.00  0.00    -0.301 N 
ATOM     10  C   UNL     1     -38.297  21.553   1.548  0.00  0.00    +0.225 C 
ATOM     11  H   UNL     1     -36.560  22.587   1.248  0.00  0.00    +0.150 HD
BRANCH  10  12
ATOM     12  C   UNL     1     -37.941  20.713   0.333  0.00  0.00    +0.112 C 
BRANCH  12  13
ATOM     13  C   UNL     1     -36.854  19.657   0.605  0.00  0.00    +0.097 C 
ATOM     14  C   UNL     1     -35.510  20.148   0.057  0.00  0.00    +0.030 C 
ATOM     15  C   UNL     1     -37.195  18.299  -0.010  0.00  0.00    +0.030 C 
BRANCH  13  16
ATOM     16  O   UNL     1     -36.702  19.471   2.013  0.00  0.00    -0.386 OA
ATOM     17  H   UNL     1     -36.309  18.600   2.183  0.00  0.00    +0.210 HD
ENDBRANCH  13  16
ENDBRANCH  12  13
ENDBRANCH  10  12
ENDBRANCH   2   9
BRANCH   5  18
ATOM     18  O   UNL     1     -34.957  24.370   5.581  0.00  0.00    -0.346 OA
ATOM     19  C   UNL     1     -33.904  24.601   4.659  0.00  0.00    +0.174 C 
ENDBRANCH   5  18
BRANCH   3  20
ATOM     20  O   UNL     1     -36.283  22.030   4.499  0.00  0.00    -0.380 OA
ATOM     21  H   UNL     1     -35.518  21.503   4.219  0.00  0.00    +0.211 HD
ENDBRANCH   3  20
BRANCH   6  22
ATOM     22  O   UNL     1     -36.561  26.714   5.398  0.00  0.00    -0.358 OA
ATOM     23  H   UNL     1     -37.474  26.734   5.728  0.00  0.00    +0.213 HD
ENDBRANCH   6  22
TORSDOF 7
ENDMDL
MODEL 5
REMARK VINA RESULT:      -5.1      2.654      4.853
REMARK  Name = 50906606
REMARK  7 active torsions:
REMARK  status: ('A' for Active; 'I' for Inactive)
REMARK    1  A    between atoms: C_2  and  N_9
REMARK    2  A    between atoms: C_3  and  O_20
REMARK    3  A    between atoms: C_5  and  O_18
REMARK    4  A    between atoms: C_6  and  O_22
REMARK    5  A    between atoms: C_10  and  C_12
REMARK    6  A    between atoms: C_12  and  C_13
REMARK    7  A    between atoms: C_13  and  O_16
REMARK                            x       y       z     vdW  Elec       q    Type
REMARK                         _______ _______ _______ _____ _____    ______ ____
ROOT
ATOM      1  O   UNL     1     -34.963  24.320   5.822  0.00  0.00    -0.330 OA
ATOM      2  C   UNL     1     -35.752  26.369   4.774  0.00  0.00    +0.128 C 
ATOM      3  C   UNL     1     -36.665  25.542   3.860  0.00  0.00    +0.163 C 
ATOM      4  C   UNL     1     -34.534  25.544   5.217  0.00  0.00    +0.138 C 
ATOM      5  C   UNL     1     -36.956  24.166   4.457  0.00  0.00    +0.199 C 
ATOM      6  C   UNL     1     -35.673  23.478   4.918  0.00  0.00    +0.263 C 
ATOM      7  C   UNL     1     -33.690  26.278   6.255  0.00  0.00    +0.034 C 
ENDROOT
BRANCH   2   9
ATOM      8  O   UNL     1     -34.425  26.595   2.208  0.00  0.00    -0.275 OA
ATOM      9  N   UNL     1     -35.345  27.582   4.100  0.00  0.00    -0.301 N 
ATOM     10  C   UNL     1     -34.714  27.589   2.869  0.00  0.00    +0.225 C 
ATOM     11  H   UNL     1     -35.526  28.444   4.538  0.00  0.00    +0.150 HD
BRANCH  10  12
ATOM     12  C   UNL     1     -34.383  28.990   2.381  0.00  0.00    +0.112 C 
BRANCH  12  13
ATOM     13  C   UNL     1     -35.556  29.694   1.674  0.00  0.00    +0.097 C 
ATOM     14  C   UNL     1     -35.188  29.967   0.212  0.00  0.00    +0.030 C 
ATOM     15  C   UNL     1     -35.947  31.004   2.360  0.00  0.00    +0.030 C 
BRANCH  13  16
ATOM     16  O   UNL     1     -36.704  28.843   1.678  0.00  0.00    -0.386 OA
ATOM     17  H   UNL     1     -37.037  28.747   0.771  0.00  0.00    +0.210 HD
ENDBRANCH  13  16
ENDBRANCH  12  13
ENDBRANCH  10  12
ENDBRANCH   2   9
BRANCH   5  18
ATOM     18  O   UNL     1     -37.590  23.369   3.458  0.00  0.00    -0.346 OA
ATOM     19  C   UNL     1     -36.770  23.235   2.308  0.00  0.00    +0.174 C 
ENDBRANCH   5  18
BRANCH   3  20
ATOM     20  O   UNL     1     -37.900  26.242   3.692  0.00  0.00    -0.380 OA
ATOM     21  H   UNL     1     -37.793  27.161   3.985  0.00  0.00    +0.211 HD
ENDBRANCH   3  20
BRANCH   6  22
ATOM     22  O   UNL     1     -36.038  22.264   5.572  0.00  0.00    -0.358 OA
ATOM     23  H   UNL     1     -36.206  21.577   4.908  0.00  0.00    +0.213 HD
ENDBRANCH   6  22
TORSDOF 7
ENDMDL
MODEL 6
REMARK VINA RESULT:      -5.0      1.021      1.084
REMARK  Name = 50906606
REMARK  7 active torsions:
REMARK  status: ('A' for Active; 'I' for Inactive)
REMARK    1  A    between atoms: C_2  and  N_9
REMARK    2  A    between atoms: C_3  and  O_20
REMARK    3  A    between atoms: C_5  and  O_18
REMARK    4  A    between atoms: C_6  and  O_22
REMARK    5  A    between atoms: C_10  and  C_12
REMARK    6  A    between atoms: C_12  and  C_13
REMARK    7  A    between atoms: C_13  and  O_16
REMARK                            x       y       z     vdW  Elec       q    Type
REMARK                         _______ _______ _______ _____ _____    ______ ____
ROOT
ATOM      1  O   UNL     1     -38.823  22.349   0.983  0.00  0.00    -0.330 OA
ATOM      2  C   UNL     1     -37.580  23.514   2.721  0.00  0.00    +0.128 C 
ATOM      3  C   UNL     1     -38.676  24.585   2.777  0.00  0.00    +0.163 C 
ATOM      4  C   UNL     1     -37.531  22.859   1.331  0.00  0.00    +0.138 C 
ATOM      5  C   UNL     1     -40.001  24.058   2.227  0.00  0.00    +0.199 C 
ATOM      6  C   UNL     1     -39.808  23.373   0.876  0.00  0.00    +0.263 C 
ATOM      7  C   UNL     1     -36.564  21.679   1.287  0.00  0.00    +0.034 C 
ENDROOT
BRANCH   2   9
ATOM      8  O   UNL     1     -36.277  23.475   5.308  0.00  0.00    -0.275 OA
ATOM      9  N   UNL     1     -36.302  24.095   3.069  0.00  0.00    -0.301 N 
ATOM     10  C   UNL     1     -35.759  24.024   4.339  0.00  0.00    +0.225 C 
ATOM     11  H   UNL     1     -35.794  24.562   2.368  0.00  0.00    +0.150 HD
BRANCH  10  12
ATOM     12  C   UNL     1     -34.411  24.717   4.446  0.00  0.00    +0.112 C 
BRANCH  12  13
ATOM     13  C   UNL     1     -34.502  26.182   4.912  0.00  0.00    +0.097 C 
ATOM     14  C   UNL     1     -33.999  27.109   3.799  0.00  0.00    +0.030 C 
ATOM     15  C   UNL     1     -33.706  26.437   6.193  0.00  0.00    +0.030 C 
BRANCH  13  16
ATOM     16  O   UNL     1     -35.864  26.523   5.172  0.00  0.00    -0.386 OA
ATOM     17  H   UNL     1     -36.315  26.714   4.335  0.00  0.00    +0.210 HD
ENDBRANCH  13  16
ENDBRANCH  12  13
ENDBRANCH  10  12
ENDBRANCH   2   9
BRANCH   5  18
ATOM     18  O   UNL     1     -40.894  25.162   2.076  0.00  0.00    -0.346 OA
ATOM     19  C   UNL     1     -40.345  26.157   1.227  0.00  0.00    +0.174 C 
ENDBRANCH   5  18
BRANCH   3  20
ATOM     20  O   UNL     1     -38.866  24.974   4.139  0.00  0.00    -0.380 OA
ATOM     21  H   UNL     1     -38.069  24.760   4.650  0.00  0.00    +0.211 HD
ENDBRANCH   3  20
BRANCH   6  22
ATOM     22  O   UNL     1     -41.058  22.803   0.492  0.00  0.00    -0.358 OA
ATOM     23  H   UNL     1     -41.774  23.425   0.699  0.00  0.00    +0.213 HD
ENDBRANCH   6  22
TORSDOF 7
ENDMDL
MODEL 7
REMARK VINA RESULT:      -4.9      2.745      4.539
REMARK  Name = 50906606
REMARK  7 active torsions:
REMARK  status: ('A' for Active; 'I' for Inactive)
REMARK    1  A    between atoms: C_2  and  N_9
REMARK    2  A    between atoms: C_3  and  O_20
REMARK    3  A    between atoms: C_5  and  O_18
REMARK    4  A    between atoms: C_6  and  O_22
REMARK    5  A    between atoms: C_10  and  C_12
REMARK    6  A    between atoms: C_12  and  C_13
REMARK    7  A    between atoms: C_13  and  O_16
REMARK                            x       y       z     vdW  Elec       q    Type
REMARK                         _______ _______ _______ _____ _____    ______ ____
ROOT
ATOM      1  O   UNL     1     -35.915  23.436   5.406  0.00  0.00    -0.330 OA
ATOM      2  C   UNL     1     -36.179  24.665   3.323  0.00  0.00    +0.128 C 
ATOM      3  C   UNL     1     -35.763  23.414   2.540  0.00  0.00    +0.163 C 
ATOM      4  C   UNL     1     -35.570  24.651   4.733  0.00  0.00    +0.138 C 
ATOM      5  C   UNL     1     -35.977  22.143   3.361  0.00  0.00    +0.199 C 
ATOM      6  C   UNL     1     -35.385  22.281   4.762  0.00  0.00    +0.263 C 
ATOM      7  C   UNL     1     -36.093  25.797   5.595  0.00  0.00    +0.034 C 
ENDROOT
BRANCH   2   9
ATOM      8  O   UNL     1     -37.918  26.734   2.278  0.00  0.00    -0.275 OA
ATOM      9  N   UNL     1     -35.791  25.855   2.598  0.00  0.00    -0.301 N 
ATOM     10  C   UNL     1     -36.699  26.791   2.137  0.00  0.00    +0.225 C 
ATOM     11  H   UNL     1     -34.834  26.007   2.426  0.00  0.00    +0.150 HD
BRANCH  10  12
ATOM     12  C   UNL     1     -36.039  27.945   1.401  0.00  0.00    +0.112 C 
BRANCH  12  13
ATOM     13  C   UNL     1     -35.150  28.826   2.298  0.00  0.00    +0.097 C 
ATOM     14  C   UNL     1     -35.623  30.281   2.223  0.00  0.00    +0.030 C 
ATOM     15  C   UNL     1     -33.672  28.745   1.912  0.00  0.00    +0.030 C 
BRANCH  13  16
ATOM     16  O   UNL     1     -35.267  28.405   3.658  0.00  0.00    -0.386 OA
ATOM     17  H   UNL     1     -35.111  27.449   3.714  0.00  0.00    +0.210 HD
ENDBRANCH  13  16
ENDBRANCH  12  13
ENDBRANCH  10  12
ENDBRANCH   2   9
BRANCH   5  18
ATOM     18  O   UNL     1     -35.345  21.059   2.682  0.00  0.00    -0.346 OA
ATOM     19  C   UNL     1     -36.301  20.177   2.117  0.00  0.00    +0.174 C 
ENDBRANCH   5  18
BRANCH   3  20
ATOM     20  O   UNL     1     -36.554  23.334   1.352  0.00  0.00    -0.380 OA
ATOM     21  H   UNL     1     -37.261  23.997   1.389  0.00  0.00    +0.211 HD
ENDBRANCH   3  20
BRANCH   6  22
ATOM     22  O   UNL     1     -35.734  21.112   5.501  0.00  0.00    -0.358 OA
ATOM     23  H   UNL     1     -35.114  20.396   5.286  0.00  0.00    +0.213 HD
ENDBRANCH   6  22
TORSDOF 7
ENDMDL
MODEL 8
REMARK VINA RESULT:      -4.9      2.774      3.521
REMARK  Name = 50906606
REMARK  7 active torsions:
REMARK  status: ('A' for Active; 'I' for Inactive)
REMARK    1  A    between atoms: C_2  and  N_9
REMARK    2  A    between atoms: C_3  and  O_20
REMARK    3  A    between atoms: C_5  and  O_18
REMARK    4  A    between atoms: C_6  and  O_22
REMARK    5  A    between atoms: C_10  and  C_12
REMARK    6  A    between atoms: C_12  and  C_13
REMARK    7  A    between atoms: C_13  and  O_16
REMARK                            x       y       z     vdW  Elec       q    Type
REMARK                         _______ _______ _______ _____ _____    ______ ____
ROOT
ATOM      1  O   UNL     1     -39.238  26.491   0.418  0.00  0.00    -0.330 OA
ATOM      2  C   UNL     1     -38.477  25.767   2.613  0.00  0.00    +0.128 C 
ATOM      3  C   UNL     1     -39.913  25.874   3.138  0.00  0.00    +0.163 C 
ATOM      4  C   UNL     1     -38.257  26.727   1.433  0.00  0.00    +0.138 C 
ATOM      5  C   UNL     1     -40.932  25.800   2.002  0.00  0.00    +0.199 C 
ATOM      6  C   UNL     1     -40.566  26.750   0.865  0.00  0.00    +0.263 C 
ATOM      7  C   UNL     1     -36.891  26.531   0.781  0.00  0.00    +0.034 C 
ENDROOT
BRANCH   2   9
ATOM      8  O   UNL     1     -37.106  23.821   4.265  0.00  0.00    -0.275 OA
ATOM      9  N   UNL     1     -37.537  26.029   3.681  0.00  0.00    -0.301 N 
ATOM     10  C   UNL     1     -36.930  25.028   4.417  0.00  0.00    +0.225 C 
ATOM     11  H   UNL     1     -37.319  26.965   3.893  0.00  0.00    +0.150 HD
BRANCH  10  12
ATOM     12  C   UNL     1     -35.991  25.564   5.485  0.00  0.00    +0.112 C 
BRANCH  12  13
ATOM     13  C   UNL     1     -34.713  26.212   4.919  0.00  0.00    +0.097 C 
ATOM     14  C   UNL     1     -34.095  25.294   3.859  0.00  0.00    +0.030 C 
ATOM     15  C   UNL     1     -33.681  26.510   6.008  0.00  0.00    +0.030 C 
BRANCH  13  16
ATOM     16  O   UNL     1     -35.040  27.448   4.281  0.00  0.00    -0.386 OA
ATOM     17  H   UNL     1     -35.992  27.473   4.095  0.00  0.00    +0.210 HD
ENDBRANCH  13  16
ENDBRANCH  12  13
ENDBRANCH  10  12
ENDBRANCH   2   9
BRANCH   5  18
ATOM     18  O   UNL     1     -42.212  26.153   2.524  0.00  0.00    -0.346 OA
ATOM     19  C   UNL     1     -42.188  27.441   3.118  0.00  0.00    +0.174 C 
ENDBRANCH   5  18
BRANCH   3  20
ATOM     20  O   UNL     1     -40.151  24.792   4.042  0.00  0.00    -0.380 OA
ATOM     21  H   UNL     1     -40.126  23.953   3.555  0.00  0.00    +0.211 HD
ENDBRANCH   3  20
BRANCH   6  22
ATOM     22  O   UNL     1     -41.487  26.532  -0.202  0.00  0.00    -0.358 OA
ATOM     23  H   UNL     1     -42.209  27.178  -0.143  0.00  0.00    +0.213 HD
ENDBRANCH   6  22
TORSDOF 7
ENDMDL
MODEL 9
REMARK VINA RESULT:      -4.8      2.558      5.590
REMARK  Name = 50906606
REMARK  7 active torsions:
REMARK  status: ('A' for Active; 'I' for Inactive)
REMARK    1  A    between atoms: C_2  and  N_9
REMARK    2  A    between atoms: C_3  and  O_20
REMARK    3  A    between atoms: C_5  and  O_18
REMARK    4  A    between atoms: C_6  and  O_22
REMARK    5  A    between atoms: C_10  and  C_12
REMARK    6  A    between atoms: C_12  and  C_13
REMARK    7  A    between atoms: C_13  and  O_16
REMARK                            x       y       z     vdW  Elec       q    Type
REMARK                         _______ _______ _______ _____ _____    ______ ____
ROOT
ATOM      1  O   UNL     1     -37.196  24.901   1.634  0.00  0.00    -0.330 OA
ATOM      2  C   UNL     1     -36.225  22.836   2.479  0.00  0.00    +0.128 C 
ATOM      3  C   UNL     1     -36.047  23.490   3.854  0.00  0.00    +0.163 C 
ATOM      4  C   UNL     1     -36.212  23.896   1.366  0.00  0.00    +0.138 C 
ATOM      5  C   UNL     1     -36.993  24.676   4.035  0.00  0.00    +0.199 C 
ATOM      6  C   UNL     1     -36.936  25.620   2.836  0.00  0.00    +0.263 C 
ATOM      7  C   UNL     1     -36.549  23.301   0.002  0.00  0.00    +0.034 C 
ENDROOT
BRANCH   2   9
ATOM      8  O   UNL     1     -36.585  19.999   2.009  0.00  0.00    -0.275 OA
ATOM      9  N   UNL     1     -35.194  21.843   2.265  0.00  0.00    -0.301 N 
ATOM     10  C   UNL     1     -35.466  20.505   2.047  0.00  0.00    +0.225 C 
ATOM     11  H   UNL     1     -34.254  22.135   2.274  0.00  0.00    +0.150 HD
BRANCH  10  12
ATOM     12  C   UNL     1     -34.211  19.669   1.857  0.00  0.00    +0.112 C 
BRANCH  12  13
ATOM     13  C   UNL     1     -33.717  19.611   0.400  0.00  0.00    +0.097 C 
ATOM     14  C   UNL     1     -33.740  18.161  -0.095  0.00  0.00    +0.030 C 
ATOM     15  C   UNL     1     -32.310  20.188   0.239  0.00  0.00    +0.030 C 
BRANCH  13  16
ATOM     16  O   UNL     1     -34.594  20.367  -0.438  0.00  0.00    -0.386 OA
ATOM     17  H   UNL     1     -34.151  20.557  -1.280  0.00  0.00    +0.210 HD
ENDBRANCH  13  16
ENDBRANCH  12  13
ENDBRANCH  10  12
ENDBRANCH   2   9
BRANCH   5  18
ATOM     18  O   UNL     1     -36.605  25.382   5.214  0.00  0.00    -0.346 OA
ATOM     19  C   UNL     1     -35.269  25.848   5.120  0.00  0.00    +0.174 C 
ENDBRANCH   5  18
BRANCH   3  20
ATOM     20  O   UNL     1     -36.330  22.517   4.863  0.00  0.00    -0.380 OA
ATOM     21  H   UNL     1     -35.846  22.741   5.673  0.00  0.00    +0.211 HD
ENDBRANCH   3  20
BRANCH   6  22
ATOM     22  O   UNL     1     -37.930  26.626   3.023  0.00  0.00    -0.358 OA
ATOM     23  H   UNL     1     -38.010  27.156   2.215  0.00  0.00    +0.213 HD
ENDBRANCH   6  22
TORSDOF 7
ENDMDL
