MODEL 1
REMARK VINA RESULT:      -6.2      0.000      0.000
REMARK  Name = 53321283
REMARK  10 active torsions:
REMARK  status: ('A' for Active; 'I' for Inactive)
REMARK    1  A    between atoms: C_5  and  C_28
REMARK    2  A    between atoms: C_12  and  O_22
REMARK    3  A    between atoms: C_14  and  O_24
REMARK    4  A    between atoms: C_18  and  O_26
REMARK    5  A    between atoms: C_28  and  C_30
REMARK    6  A    between atoms: C_30  and  C_31
REMARK    7  A    between atoms: C_31  and  C_32
REMARK    8  A    between atoms: C_32  and  C_34
REMARK    9  A    between atoms: C_34  and  C_37
REMARK   10  A    between atoms: C_37  and  O_38
REMARK                            x       y       z     vdW  Elec       q    Type
REMARK                         _______ _______ _______ _____ _____    ______ ____
ROOT
ATOM      1  O   UNL     1     -35.574  20.625   3.860  0.00  0.00    -0.292 OA
ATOM      2  C   UNL     1     -34.696  20.163   0.439  0.00  0.00    +0.011 C 
ATOM      3  C   UNL     1     -34.172  21.579   0.139  0.00  0.00    +0.021 C 
ATOM      4  C   UNL     1     -35.694  23.510   3.232  0.00  0.00    +0.024 C 
ATOM      5  C   UNL     1     -33.807  19.337  -0.521  0.00  0.00    +0.001 C 
ATOM      6  C   UNL     1     -35.105  24.896   2.746  0.00  0.00    +0.034 C 
ATOM      7  C   UNL     1     -34.820  22.651   0.992  0.00  0.00    -0.019 C 
ATOM      8  C   UNL     1     -35.182  22.397   2.276  0.00  0.00    +0.006 C 
ATOM      9  C   UNL     1     -34.175  21.612  -1.394  0.00  0.00    +0.004 C 
ATOM     10  C   UNL     1     -33.762  20.188  -1.808  0.00  0.00    +0.000 C 
ATOM     11  C   UNL     1     -34.437  19.899   1.915  0.00  0.00    +0.069 C 
ATOM     12  C   UNL     1     -34.905  24.035   0.380  0.00  0.00    +0.129 C 
ATOM     13  C   UNL     1     -35.484  25.128   1.281  0.00  0.00    +0.036 C 
ATOM     14  C   UNL     1     -35.429  26.115   3.665  0.00  0.00    +0.113 C 
ATOM     15  C   UNL     1     -35.226  23.323   4.706  0.00  0.00    +0.007 C 
ATOM     16  C   UNL     1     -35.107  20.960   2.772  0.00  0.00    +0.169 C 
ATOM     17  C   UNL     1     -36.203  19.977   0.126  0.00  0.00    +0.001 C 
ATOM     18  C   UNL     1     -34.994  25.820   5.117  0.00  0.00    +0.135 C 
ATOM     19  C   UNL     1     -35.562  24.502   5.625  0.00  0.00    +0.032 C 
ATOM     20  C   UNL     1     -37.239  23.424   3.181  0.00  0.00    +0.005 C 
ATOM     21  C   UNL     1     -34.749  27.404   3.168  0.00  0.00    +0.032 C 
ENDROOT
BRANCH  12  22
ATOM     22  O   UNL     1     -35.710  24.002  -0.796  0.00  0.00    -0.380 OA
ATOM     23  H   UNL     1     -35.252  23.496  -1.486  0.00  0.00    +0.211 HD
ENDBRANCH  12  22
BRANCH  14  24
ATOM     24  O   UNL     1     -36.835  26.369   3.647  0.00  0.00    -0.384 OA
ATOM     25  H   UNL     1     -37.314  25.555   3.870  0.00  0.00    +0.210 HD
ENDBRANCH  14  24
BRANCH  18  26
ATOM     26  O   UNL     1     -33.573  25.748   5.224  0.00  0.00    -0.382 OA
ATOM     27  H   UNL     1     -33.280  24.841   5.043  0.00  0.00    +0.210 HD
ENDBRANCH  18  26
BRANCH   5  28
ATOM     28  C   UNL     1     -34.236  17.900  -0.775  0.00  0.00    +0.000 C 
ATOM     29  C   UNL     1     -33.432  16.949   0.119  0.00  0.00    +0.000 C 
BRANCH  28  30
ATOM     30  C   UNL     1     -34.086  17.559  -2.274  0.00  0.00    +0.004 C 
BRANCH  30  31
ATOM     31  C   UNL     1     -35.236  16.705  -2.832  0.00  0.00    +0.023 C 
BRANCH  31  32
ATOM     32  C   UNL     1     -36.652  17.255  -2.693  0.00  0.00    -0.034 C 
ATOM     33  C   UNL     1     -37.027  18.458  -3.164  0.00  0.00    -0.009 C 
BRANCH  32  34
ATOM     34  C   UNL     1     -37.610  16.318  -1.958  0.00  0.00    +0.117 C 
ATOM     35  C   UNL     1     -37.022  14.981  -1.500  0.00  0.00    +0.016 C 
BRANCH  34  37
ATOM     36  O   UNL     1     -39.156  17.776  -0.750  0.00  0.00    -0.250 OA
ATOM     37  C   UNL     1     -38.174  17.045  -0.744  0.00  0.00    +0.317 C 
BRANCH  37  38
ATOM     38  O   UNL     1     -37.438  16.816   0.375  0.00  0.00    -0.480 OA
ATOM     39  H   UNL     1     -37.855  16.510   1.157  0.00  0.00    +0.295 HD
ENDBRANCH  37  38
ENDBRANCH  34  37
ENDBRANCH  32  34
ENDBRANCH  31  32
ENDBRANCH  30  31
ENDBRANCH  28  30
ENDBRANCH   5  28
TORSDOF 10
ENDMDL
MODEL 2
REMARK VINA RESULT:      -6.1      1.900      8.983
REMARK  Name = 53321283
REMARK  10 active torsions:
REMARK  status: ('A' for Active; 'I' for Inactive)
REMARK    1  A    between atoms: C_5  and  C_28
REMARK    2  A    between atoms: C_12  and  O_22
REMARK    3  A    between atoms: C_14  and  O_24
REMARK    4  A    between atoms: C_18  and  O_26
REMARK    5  A    between atoms: C_28  and  C_30
REMARK    6  A    between atoms: C_30  and  C_31
REMARK    7  A    between atoms: C_31  and  C_32
REMARK    8  A    between atoms: C_32  and  C_34
REMARK    9  A    between atoms: C_34  and  C_37
REMARK   10  A    between atoms: C_37  and  O_38
REMARK                            x       y       z     vdW  Elec       q    Type
REMARK                         _______ _______ _______ _____ _____    ______ ____
ROOT
ATOM      1  O   UNL     1     -33.349  19.115   1.704  0.00  0.00    -0.292 OA
ATOM      2  C   UNL     1     -35.670  21.697   2.499  0.00  0.00    +0.011 C 
ATOM      3  C   UNL     1     -36.913  21.119   1.798  0.00  0.00    +0.021 C 
ATOM      4  C   UNL     1     -35.167  18.443  -0.526  0.00  0.00    +0.024 C 
ATOM      5  C   UNL     1     -36.346  22.451   3.669  0.00  0.00    +0.001 C 
ATOM      6  C   UNL     1     -36.543  18.000  -1.169  0.00  0.00    +0.034 C 
ATOM      7  C   UNL     1     -36.576  20.246   0.606  0.00  0.00    -0.019 C 
ATOM      8  C   UNL     1     -35.460  19.472   0.600  0.00  0.00    +0.006 C 
ATOM      9  C   UNL     1     -37.837  22.339   1.710  0.00  0.00    +0.004 C 
ATOM     10  C   UNL     1     -37.585  23.105   3.021  0.00  0.00    +0.000 C 
ATOM     11  C   UNL     1     -34.813  20.515   2.928  0.00  0.00    +0.069 C 
ATOM     12  C   UNL     1     -37.616  20.185  -0.495  0.00  0.00    +0.129 C 
ATOM     13  C   UNL     1     -37.304  19.236  -1.654  0.00  0.00    +0.036 C 
ATOM     14  C   UNL     1     -36.442  16.876  -2.247  0.00  0.00    +0.113 C 
ATOM     15  C   UNL     1     -34.479  17.143  -0.013  0.00  0.00    +0.007 C 
ATOM     16  C   UNL     1     -34.456  19.653   1.729  0.00  0.00    +0.169 C 
ATOM     17  C   UNL     1     -34.839  22.654   1.606  0.00  0.00    +0.001 C 
ATOM     18  C   UNL     1     -35.691  15.653  -1.678  0.00  0.00    +0.135 C 
ATOM     19  C   UNL     1     -34.350  16.042  -1.071  0.00  0.00    +0.032 C 
ATOM     20  C   UNL     1     -34.211  19.162  -1.509  0.00  0.00    +0.005 C 
ATOM     21  C   UNL     1     -37.830  16.446  -2.758  0.00  0.00    +0.032 C 
ENDROOT
BRANCH  12  22
ATOM     22  O   UNL     1     -37.806  21.479  -1.062  0.00  0.00    -0.380 OA
ATOM     23  H   UNL     1     -38.648  21.847  -0.751  0.00  0.00    +0.211 HD
ENDBRANCH  12  22
BRANCH  14  24
ATOM     24  O   UNL     1     -35.730  17.367  -3.385  0.00  0.00    -0.384 OA
ATOM     25  H   UNL     1     -36.343  17.466  -4.131  0.00  0.00    +0.210 HD
ENDBRANCH  14  24
BRANCH  18  26
ATOM     26  O   UNL     1     -36.455  15.008  -0.660  0.00  0.00    -0.382 OA
ATOM     27  H   UNL     1     -35.862  14.515  -0.073  0.00  0.00    +0.210 HD
ENDBRANCH  18  26
BRANCH   5  28
ATOM     28  C   UNL     1     -35.479  23.445   4.427  0.00  0.00    +0.000 C 
ATOM     29  C   UNL     1     -34.812  22.753   5.621  0.00  0.00    +0.000 C 
BRANCH  28  30
ATOM     30  C   UNL     1     -36.322  24.666   4.856  0.00  0.00    +0.004 C 
BRANCH  30  31
ATOM     31  C   UNL     1     -35.688  26.016   4.488  0.00  0.00    +0.023 C 
BRANCH  31  32
ATOM     32  C   UNL     1     -34.247  26.259   4.927  0.00  0.00    -0.034 C 
ATOM     33  C   UNL     1     -33.855  26.250   6.213  0.00  0.00    -0.009 C 
BRANCH  32  34
ATOM     34  C   UNL     1     -33.286  26.525   3.769  0.00  0.00    +0.117 C 
ATOM     35  C   UNL     1     -33.900  26.508   2.367  0.00  0.00    +0.016 C 
BRANCH  34  37
ATOM     36  O   UNL     1     -33.183  28.955   4.025  0.00  0.00    -0.250 OA
ATOM     37  C   UNL     1     -32.611  27.873   3.991  0.00  0.00    +0.317 C 
BRANCH  37  38
ATOM     38  O   UNL     1     -31.264  27.753   4.122  0.00  0.00    -0.480 OA
ATOM     39  H   UNL     1     -30.696  28.074   3.450  0.00  0.00    +0.295 HD
ENDBRANCH  37  38
ENDBRANCH  34  37
ENDBRANCH  32  34
ENDBRANCH  31  32
ENDBRANCH  30  31
ENDBRANCH  28  30
ENDBRANCH   5  28
TORSDOF 10
ENDMDL
MODEL 3
REMARK VINA RESULT:      -6.0      9.088     13.173
REMARK  Name = 53321283
REMARK  10 active torsions:
REMARK  status: ('A' for Active; 'I' for Inactive)
REMARK    1  A    between atoms: C_5  and  C_28
REMARK    2  A    between atoms: C_12  and  O_22
REMARK    3  A    between atoms: C_14  and  O_24
REMARK    4  A    between atoms: C_18  and  O_26
REMARK    5  A    between atoms: C_28  and  C_30
REMARK    6  A    between atoms: C_30  and  C_31
REMARK    7  A    between atoms: C_31  and  C_32
REMARK    8  A    between atoms: C_32  and  C_34
REMARK    9  A    between atoms: C_34  and  C_37
REMARK   10  A    between atoms: C_37  and  O_38
REMARK                            x       y       z     vdW  Elec       q    Type
REMARK                         _______ _______ _______ _____ _____    ______ ____
ROOT
ATOM      1  O   UNL     1     -31.701  33.338   2.671  0.00  0.00    -0.292 OA
ATOM      2  C   UNL     1     -34.988  32.993   1.341  0.00  0.00    +0.011 C 
ATOM      3  C   UNL     1     -35.471  31.820   2.214  0.00  0.00    +0.021 C 
ATOM      4  C   UNL     1     -31.990  30.541   3.576  0.00  0.00    +0.024 C 
ATOM      5  C   UNL     1     -36.327  33.733   1.118  0.00  0.00    +0.001 C 
ATOM      6  C   UNL     1     -32.662  29.359   4.386  0.00  0.00    +0.034 C 
ATOM      7  C   UNL     1     -34.348  30.910   2.670  0.00  0.00    -0.019 C 
ATOM      8  C   UNL     1     -33.116  31.409   2.950  0.00  0.00    +0.006 C 
ATOM      9  C   UNL     1     -36.695  31.318   1.439  0.00  0.00    +0.004 C 
ATOM     10  C   UNL     1     -37.343  32.596   0.877  0.00  0.00    +0.000 C 
ATOM     11  C   UNL     1     -33.973  33.770   2.166  0.00  0.00    +0.069 C 
ATOM     12  C   UNL     1     -34.719  29.463   2.925  0.00  0.00    +0.129 C 
ATOM     13  C   UNL     1     -33.598  28.573   3.465  0.00  0.00    +0.036 C 
ATOM     14  C   UNL     1     -31.672  28.450   5.179  0.00  0.00    +0.113 C 
ATOM     15  C   UNL     1     -31.098  31.320   4.588  0.00  0.00    +0.007 C 
ATOM     16  C   UNL     1     -32.835  32.864   2.604  0.00  0.00    +0.169 C 
ATOM     17  C   UNL     1     -34.348  32.550   0.000  0.00  0.00    +0.001 C 
ATOM     18  C   UNL     1     -30.783  29.306   6.107  0.00  0.00    +0.135 C 
ATOM     19  C   UNL     1     -30.103  30.441   5.353  0.00  0.00    +0.032 C 
ATOM     20  C   UNL     1     -31.113  30.076   2.388  0.00  0.00    +0.005 C 
ATOM     21  C   UNL     1     -32.413  27.381   6.006  0.00  0.00    +0.032 C 
ENDROOT
BRANCH  12  22
ATOM     22  O   UNL     1     -35.182  28.857   1.720  0.00  0.00    -0.380 OA
ATOM     23  H   UNL     1     -34.425  28.654   1.148  0.00  0.00    +0.211 HD
ENDBRANCH  12  22
BRANCH  14  24
ATOM     24  O   UNL     1     -30.835  27.740   4.264  0.00  0.00    -0.384 OA
ATOM     25  H   UNL     1     -31.271  27.691   3.398  0.00  0.00    +0.210 HD
ENDBRANCH  14  24
BRANCH  18  26
ATOM     26  O   UNL     1     -31.550  29.887   7.162  0.00  0.00    -0.382 OA
ATOM     27  H   UNL     1     -31.987  29.185   7.668  0.00  0.00    +0.210 HD
ENDBRANCH  18  26
BRANCH   5  28
ATOM     28  C   UNL     1     -36.346  34.786   0.020  0.00  0.00    +0.000 C 
ATOM     29  C   UNL     1     -35.868  36.132   0.578  0.00  0.00    +0.000 C 
BRANCH  28  30
ATOM     30  C   UNL     1     -37.758  34.881  -0.601  0.00  0.00    +0.004 C 
BRANCH  30  31
ATOM     31  C   UNL     1     -38.582  36.072  -0.087  0.00  0.00    +0.023 C 
BRANCH  31  32
ATOM     32  C   UNL     1     -39.943  35.770   0.531  0.00  0.00    -0.034 C 
ATOM     33  C   UNL     1     -41.109  36.100  -0.053  0.00  0.00    -0.009 C 
BRANCH  32  34
ATOM     34  C   UNL     1     -39.865  35.065   1.884  0.00  0.00    +0.117 C 
ATOM     35  C   UNL     1     -38.884  35.661   2.897  0.00  0.00    +0.016 C 
BRANCH  34  37
ATOM     36  O   UNL     1     -42.123  34.211   2.267  0.00  0.00    -0.250 OA
ATOM     37  C   UNL     1     -41.255  35.040   2.507  0.00  0.00    +0.317 C 
BRANCH  37  38
ATOM     38  O   UNL     1     -41.449  36.080   3.360  0.00  0.00    -0.480 OA
ATOM     39  H   UNL     1     -42.319  36.329   3.606  0.00  0.00    +0.295 HD
ENDBRANCH  37  38
ENDBRANCH  34  37
ENDBRANCH  32  34
ENDBRANCH  31  32
ENDBRANCH  30  31
ENDBRANCH  28  30
ENDBRANCH   5  28
TORSDOF 10
ENDMDL
MODEL 4
REMARK VINA RESULT:      -5.8      4.761     10.373
REMARK  Name = 53321283
REMARK  10 active torsions:
REMARK  status: ('A' for Active; 'I' for Inactive)
REMARK    1  A    between atoms: C_5  and  C_28
REMARK    2  A    between atoms: C_12  and  O_22
REMARK    3  A    between atoms: C_14  and  O_24
REMARK    4  A    between atoms: C_18  and  O_26
REMARK    5  A    between atoms: C_28  and  C_30
REMARK    6  A    between atoms: C_30  and  C_31
REMARK    7  A    between atoms: C_31  and  C_32
REMARK    8  A    between atoms: C_32  and  C_34
REMARK    9  A    between atoms: C_34  and  C_37
REMARK   10  A    between atoms: C_37  and  O_38
REMARK                            x       y       z     vdW  Elec       q    Type
REMARK                         _______ _______ _______ _____ _____    ______ ____
ROOT
ATOM      1  O   UNL     1     -33.794  24.494   4.951  0.00  0.00    -0.292 OA
ATOM      2  C   UNL     1     -32.934  27.887   4.287  0.00  0.00    +0.011 C 
ATOM      3  C   UNL     1     -34.162  28.278   3.445  0.00  0.00    +0.021 C 
ATOM      4  C   UNL     1     -35.529  24.677   2.566  0.00  0.00    +0.024 C 
ATOM      5  C   UNL     1     -32.618  29.247   4.952  0.00  0.00    +0.001 C 
ATOM      6  C   UNL     1     -36.717  25.262   1.701  0.00  0.00    +0.034 C 
ATOM      7  C   UNL     1     -34.769  27.112   2.693  0.00  0.00    -0.019 C 
ATOM      8  C   UNL     1     -34.773  25.863   3.227  0.00  0.00    +0.006 C 
ATOM      9  C   UNL     1     -33.690  29.565   2.757  0.00  0.00    +0.004 C 
ATOM     10  C   UNL     1     -32.828  30.272   3.817  0.00  0.00    +0.000 C 
ATOM     11  C   UNL     1     -33.389  26.806   5.257  0.00  0.00    +0.069 C 
ATOM     12  C   UNL     1     -35.485  27.446   1.399  0.00  0.00    +0.129 C 
ATOM     13  C   UNL     1     -36.167  26.273   0.692  0.00  0.00    +0.036 C 
ATOM     14  C   UNL     1     -37.656  24.197   1.054  0.00  0.00    +0.113 C 
ATOM     15  C   UNL     1     -36.171  23.702   3.597  0.00  0.00    +0.007 C 
ATOM     16  C   UNL     1     -33.977  25.626   4.502  0.00  0.00    +0.169 C 
ATOM     17  C   UNL     1     -31.739  27.370   3.445  0.00  0.00    +0.001 C 
ATOM     18  C   UNL     1     -38.195  23.233   2.133  0.00  0.00    +0.135 C 
ATOM     19  C   UNL     1     -37.074  22.633   2.972  0.00  0.00    +0.032 C 
ATOM     20  C   UNL     1     -34.464  23.910   1.745  0.00  0.00    +0.005 C 
ATOM     21  C   UNL     1     -38.832  24.850   0.302  0.00  0.00    +0.032 C 
ENDROOT
BRANCH  12  22
ATOM     22  O   UNL     1     -34.569  28.014   0.466  0.00  0.00    -0.380 OA
ATOM     23  H   UNL     1     -33.660  27.830   0.752  0.00  0.00    +0.211 HD
ENDBRANCH  12  22
BRANCH  14  24
ATOM     24  O   UNL     1     -36.929  23.442   0.083  0.00  0.00    -0.384 OA
ATOM     25  H   UNL     1     -36.863  22.519   0.374  0.00  0.00    +0.210 HD
ENDBRANCH  14  24
BRANCH  18  26
ATOM     26  O   UNL     1     -39.088  23.903   3.022  0.00  0.00    -0.382 OA
ATOM     27  H   UNL     1     -39.354  23.298   3.731  0.00  0.00    +0.210 HD
ENDBRANCH  18  26
BRANCH   5  28
ATOM     28  C   UNL     1     -31.259  29.375   5.623  0.00  0.00    +0.000 C 
ATOM     29  C   UNL     1     -31.438  29.625   7.125  0.00  0.00    +0.000 C 
BRANCH  28  30
ATOM     30  C   UNL     1     -30.432  30.488   4.940  0.00  0.00    +0.004 C 
BRANCH  30  31
ATOM     31  C   UNL     1     -28.936  30.449   5.289  0.00  0.00    +0.023 C 
BRANCH  31  32
ATOM     32  C   UNL     1     -28.211  29.117   5.131  0.00  0.00    -0.034 C 
ATOM     33  C   UNL     1     -28.153  28.440   3.970  0.00  0.00    -0.009 C 
BRANCH  32  34
ATOM     34  C   UNL     1     -27.561  28.611   6.418  0.00  0.00    +0.117 C 
ATOM     35  C   UNL     1     -27.908  29.381   7.694  0.00  0.00    +0.016 C 
BRANCH  34  37
ATOM     36  O   UNL     1     -27.224  26.191   6.331  0.00  0.00    -0.250 OA
ATOM     37  C   UNL     1     -27.934  27.146   6.614  0.00  0.00    +0.317 C 
BRANCH  37  38
ATOM     38  O   UNL     1     -29.186  27.004   7.124  0.00  0.00    -0.480 OA
ATOM     39  H   UNL     1     -29.423  26.216   7.574  0.00  0.00    +0.295 HD
ENDBRANCH  37  38
ENDBRANCH  34  37
ENDBRANCH  32  34
ENDBRANCH  31  32
ENDBRANCH  30  31
ENDBRANCH  28  30
ENDBRANCH   5  28
TORSDOF 10
ENDMDL
MODEL 5
REMARK VINA RESULT:      -5.8      3.435      8.514
REMARK  Name = 53321283
REMARK  10 active torsions:
REMARK  status: ('A' for Active; 'I' for Inactive)
REMARK    1  A    between atoms: C_5  and  C_28
REMARK    2  A    between atoms: C_12  and  O_22
REMARK    3  A    between atoms: C_14  and  O_24
REMARK    4  A    between atoms: C_18  and  O_26
REMARK    5  A    between atoms: C_28  and  C_30
REMARK    6  A    between atoms: C_30  and  C_31
REMARK    7  A    between atoms: C_31  and  C_32
REMARK    8  A    between atoms: C_32  and  C_34
REMARK    9  A    between atoms: C_34  and  C_37
REMARK   10  A    between atoms: C_37  and  O_38
REMARK                            x       y       z     vdW  Elec       q    Type
REMARK                         _______ _______ _______ _____ _____    ______ ____
ROOT
ATOM      1  O   UNL     1     -31.406  22.191  -1.600  0.00  0.00    -0.292 OA
ATOM      2  C   UNL     1     -34.313  21.580   0.365  0.00  0.00    +0.011 C 
ATOM      3  C   UNL     1     -33.737  20.509   1.308  0.00  0.00    +0.021 C 
ATOM      4  C   UNL     1     -30.499  19.518  -0.728  0.00  0.00    +0.024 C 
ATOM      5  C   UNL     1     -35.344  22.244   1.309  0.00  0.00    +0.001 C 
ATOM      6  C   UNL     1     -30.079  18.424   0.336  0.00  0.00    +0.034 C 
ATOM      7  C   UNL     1     -32.620  19.698   0.683  0.00  0.00    -0.019 C 
ATOM      8  C   UNL     1     -31.752  20.266  -0.194  0.00  0.00    +0.006 C 
ATOM      9  C   UNL     1     -35.003  19.876   1.898  0.00  0.00    +0.004 C 
ATOM     10  C   UNL     1     -35.980  21.054   2.058  0.00  0.00    +0.000 C 
ATOM     11  C   UNL     1     -33.158  22.485  -0.036  0.00  0.00    +0.069 C 
ATOM     12  C   UNL     1     -32.450  18.282   1.195  0.00  0.00    +0.129 C 
ATOM     13  C   UNL     1     -31.267  17.502   0.618  0.00  0.00    +0.036 C 
ATOM     14  C   UNL     1     -28.763  17.651   0.010  0.00  0.00    +0.113 C 
ATOM     15  C   UNL     1     -29.261  20.444  -0.922  0.00  0.00    +0.007 C 
ATOM     16  C   UNL     1     -32.047  21.676  -0.684  0.00  0.00    +0.169 C 
ATOM     17  C   UNL     1     -34.990  20.997  -0.902  0.00  0.00    +0.001 C 
ATOM     18  C   UNL     1     -27.605  18.643  -0.233  0.00  0.00    +0.135 C 
ATOM     19  C   UNL     1     -27.968  19.698  -1.269  0.00  0.00    +0.032 C 
ATOM     20  C   UNL     1     -30.914  18.940  -2.103  0.00  0.00    +0.005 C 
ATOM     21  C   UNL     1     -28.383  16.669   1.135  0.00  0.00    +0.032 C 
ENDROOT
BRANCH  12  22
ATOM     22  O   UNL     1     -33.622  17.518   0.921  0.00  0.00    -0.380 OA
ATOM     23  H   UNL     1     -33.667  17.326  -0.029  0.00  0.00    +0.211 HD
ENDBRANCH  12  22
BRANCH  14  24
ATOM     24  O   UNL     1     -28.949  16.862  -1.166  0.00  0.00    -0.384 OA
ATOM     25  H   UNL     1     -29.409  17.389  -1.840  0.00  0.00    +0.210 HD
ENDBRANCH  14  24
BRANCH  18  26
ATOM     26  O   UNL     1     -27.250  19.324   0.970  0.00  0.00    -0.382 OA
ATOM     27  H   UNL     1     -26.347  19.669   0.893  0.00  0.00    +0.210 HD
ENDBRANCH  18  26
BRANCH   5  28
ATOM     28  C   UNL     1     -36.374  23.153   0.656  0.00  0.00    +0.000 C 
ATOM     29  C   UNL     1     -35.684  24.102  -0.330  0.00  0.00    +0.000 C 
BRANCH  28  30
ATOM     30  C   UNL     1     -37.171  23.916   1.739  0.00  0.00    +0.004 C 
BRANCH  30  31
ATOM     31  C   UNL     1     -36.494  25.214   2.205  0.00  0.00    +0.023 C 
BRANCH  31  32
ATOM     32  C   UNL     1     -35.294  25.087   3.138  0.00  0.00    -0.034 C 
ATOM     33  C   UNL     1     -34.024  25.282   2.739  0.00  0.00    -0.009 C 
BRANCH  32  34
ATOM     34  C   UNL     1     -35.663  24.705   4.571  0.00  0.00    +0.117 C 
ATOM     35  C   UNL     1     -34.874  23.545   5.182  0.00  0.00    +0.016 C 
BRANCH  34  37
ATOM     36  O   UNL     1     -34.477  26.242   6.058  0.00  0.00    -0.250 OA
ATOM     37  C   UNL     1     -35.501  25.930   5.462  0.00  0.00    +0.317 C 
BRANCH  37  38
ATOM     38  O   UNL     1     -36.651  26.648   5.555  0.00  0.00    -0.480 OA
ATOM     39  H   UNL     1     -37.234  26.509   6.276  0.00  0.00    +0.295 HD
ENDBRANCH  37  38
ENDBRANCH  34  37
ENDBRANCH  32  34
ENDBRANCH  31  32
ENDBRANCH  30  31
ENDBRANCH  28  30
ENDBRANCH   5  28
TORSDOF 10
ENDMDL
MODEL 6
REMARK VINA RESULT:      -5.7      3.840     10.454
REMARK  Name = 53321283
REMARK  10 active torsions:
REMARK  status: ('A' for Active; 'I' for Inactive)
REMARK    1  A    between atoms: C_5  and  C_28
REMARK    2  A    between atoms: C_12  and  O_22
REMARK    3  A    between atoms: C_14  and  O_24
REMARK    4  A    between atoms: C_18  and  O_26
REMARK    5  A    between atoms: C_28  and  C_30
REMARK    6  A    between atoms: C_30  and  C_31
REMARK    7  A    between atoms: C_31  and  C_32
REMARK    8  A    between atoms: C_32  and  C_34
REMARK    9  A    between atoms: C_34  and  C_37
REMARK   10  A    between atoms: C_37  and  O_38
REMARK                            x       y       z     vdW  Elec       q    Type
REMARK                         _______ _______ _______ _____ _____    ______ ____
ROOT
ATOM      1  O   UNL     1     -33.250  25.468   0.328  0.00  0.00    -0.292 OA
ATOM      2  C   UNL     1     -33.691  26.189   3.788  0.00  0.00    +0.011 C 
ATOM      3  C   UNL     1     -34.229  24.822   4.245  0.00  0.00    +0.021 C 
ATOM      4  C   UNL     1     -35.215  23.299   0.735  0.00  0.00    +0.024 C 
ATOM      5  C   UNL     1     -32.955  26.634   5.074  0.00  0.00    +0.001 C 
ATOM      6  C   UNL     1     -35.762  21.966   1.388  0.00  0.00    +0.034 C 
ATOM      7  C   UNL     1     -34.972  24.075   3.156  0.00  0.00    -0.019 C 
ATOM      8  C   UNL     1     -34.588  24.173   1.856  0.00  0.00    +0.006 C 
ATOM      9  C   UNL     1     -34.851  25.153   5.607  0.00  0.00    +0.004 C 
ATOM     10  C   UNL     1     -33.908  26.208   6.212  0.00  0.00    +0.000 C 
ATOM     11  C   UNL     1     -32.776  25.931   2.600  0.00  0.00    +0.069 C 
ATOM     12  C   UNL     1     -36.056  23.121   3.614  0.00  0.00    +0.129 C 
ATOM     13  C   UNL     1     -36.741  22.310   2.512  0.00  0.00    +0.036 C 
ATOM     14  C   UNL     1     -36.326  20.915   0.381  0.00  0.00    +0.113 C 
ATOM     15  C   UNL     1     -34.192  22.869  -0.358  0.00  0.00    +0.007 C 
ATOM     16  C   UNL     1     -33.527  25.203   1.498  0.00  0.00    +0.169 C 
ATOM     17  C   UNL     1     -34.802  27.195   3.388  0.00  0.00    +0.001 C 
ATOM     18  C   UNL     1     -35.275  20.596  -0.704  0.00  0.00    +0.135 C 
ATOM     19  C   UNL     1     -34.743  21.858  -1.369  0.00  0.00    +0.032 C 
ATOM     20  C   UNL     1     -36.307  24.180   0.082  0.00  0.00    +0.005 C 
ATOM     21  C   UNL     1     -36.757  19.617   1.089  0.00  0.00    +0.032 C 
ENDROOT
BRANCH  12  22
ATOM     22  O   UNL     1     -37.082  23.837   4.298  0.00  0.00    -0.380 OA
ATOM     23  H   UNL     1     -37.661  24.270   3.650  0.00  0.00    +0.211 HD
ENDBRANCH  12  22
BRANCH  14  24
ATOM     24  O   UNL     1     -37.497  21.436  -0.250  0.00  0.00    -0.384 OA
ATOM     25  H   UNL     1     -37.863  22.155   0.290  0.00  0.00    +0.210 HD
ENDBRANCH  14  24
BRANCH  18  26
ATOM     26  O   UNL     1     -34.161  19.896  -0.151  0.00  0.00    -0.382 OA
ATOM     27  H   UNL     1     -33.754  19.342  -0.835  0.00  0.00    +0.210 HD
ENDBRANCH  18  26
BRANCH   5  28
ATOM     28  C   UNL     1     -32.553  28.098   5.154  0.00  0.00    +0.000 C 
ATOM     29  C   UNL     1     -31.652  28.459   3.968  0.00  0.00    +0.000 C 
BRANCH  28  30
ATOM     30  C   UNL     1     -31.874  28.389   6.511  0.00  0.00    +0.004 C 
BRANCH  30  31
ATOM     31  C   UNL     1     -31.090  29.711   6.541  0.00  0.00    +0.023 C 
BRANCH  31  32
ATOM     32  C   UNL     1     -29.581  29.638   6.334  0.00  0.00    -0.034 C 
ATOM     33  C   UNL     1     -28.860  30.636   5.791  0.00  0.00    -0.009 C 
BRANCH  32  34
ATOM     34  C   UNL     1     -28.957  28.321   6.793  0.00  0.00    +0.117 C 
ATOM     35  C   UNL     1     -28.156  27.553   5.739  0.00  0.00    +0.016 C 
BRANCH  34  37
ATOM     36  O   UNL     1     -26.939  28.120   8.158  0.00  0.00    -0.250 OA
ATOM     37  C   UNL     1     -28.054  28.595   7.990  0.00  0.00    +0.317 C 
BRANCH  37  38
ATOM     38  O   UNL     1     -28.642  29.424   8.892  0.00  0.00    -0.480 OA
ATOM     39  H   UNL     1     -29.326  30.005   8.620  0.00  0.00    +0.295 HD
ENDBRANCH  37  38
ENDBRANCH  34  37
ENDBRANCH  32  34
ENDBRANCH  31  32
ENDBRANCH  30  31
ENDBRANCH  28  30
ENDBRANCH   5  28
TORSDOF 10
ENDMDL
MODEL 7
REMARK VINA RESULT:      -5.7      1.974      8.507
REMARK  Name = 53321283
REMARK  10 active torsions:
REMARK  status: ('A' for Active; 'I' for Inactive)
REMARK    1  A    between atoms: C_5  and  C_28
REMARK    2  A    between atoms: C_12  and  O_22
REMARK    3  A    between atoms: C_14  and  O_24
REMARK    4  A    between atoms: C_18  and  O_26
REMARK    5  A    between atoms: C_28  and  C_30
REMARK    6  A    between atoms: C_30  and  C_31
REMARK    7  A    between atoms: C_31  and  C_32
REMARK    8  A    between atoms: C_32  and  C_34
REMARK    9  A    between atoms: C_34  and  C_37
REMARK   10  A    between atoms: C_37  and  O_38
REMARK                            x       y       z     vdW  Elec       q    Type
REMARK                         _______ _______ _______ _____ _____    ______ ____
ROOT
ATOM      1  O   UNL     1     -33.105  19.099   1.509  0.00  0.00    -0.292 OA
ATOM      2  C   UNL     1     -35.744  21.411   2.123  0.00  0.00    +0.011 C 
ATOM      3  C   UNL     1     -36.906  20.607   1.512  0.00  0.00    +0.021 C 
ATOM      4  C   UNL     1     -34.845  17.981  -0.601  0.00  0.00    +0.024 C 
ATOM      5  C   UNL     1     -36.500  22.175   3.235  0.00  0.00    +0.001 C 
ATOM      6  C   UNL     1     -36.157  17.298  -1.163  0.00  0.00    +0.034 C 
ATOM      7  C   UNL     1     -36.470  19.678   0.396  0.00  0.00    -0.019 C 
ATOM      8  C   UNL     1     -35.259  19.064   0.433  0.00  0.00    +0.006 C 
ATOM      9  C   UNL     1     -37.988  21.679   1.335  0.00  0.00    +0.004 C 
ATOM     10  C   UNL     1     -37.825  22.593   2.562  0.00  0.00    +0.000 C 
ATOM     11  C   UNL     1     -34.728  20.401   2.636  0.00  0.00    +0.069 C 
ATOM     12  C   UNL     1     -37.506  19.374  -0.667  0.00  0.00    +0.129 C 
ATOM     13  C   UNL     1     -37.084  18.369  -1.741  0.00  0.00    +0.036 C 
ATOM     14  C   UNL     1     -35.919  16.101  -2.136  0.00  0.00    +0.113 C 
ATOM     15  C   UNL     1     -33.980  16.839   0.012  0.00  0.00    +0.007 C 
ATOM     16  C   UNL     1     -34.274  19.484   1.513  0.00  0.00    +0.169 C 
ATOM     17  C   UNL     1     -35.063  22.381   1.123  0.00  0.00    +0.001 C 
ATOM     18  C   UNL     1     -35.001  15.049  -1.476  0.00  0.00    +0.135 C 
ATOM     19  C   UNL     1     -33.716  15.670  -0.943  0.00  0.00    +0.032 C 
ATOM     20  C   UNL     1     -34.008  18.725  -1.670  0.00  0.00    +0.005 C 
ATOM     21  C   UNL     1     -37.242  15.441  -2.568  0.00  0.00    +0.032 C 
ENDROOT
BRANCH  12  22
ATOM     22  O   UNL     1     -37.878  20.571  -1.345  0.00  0.00    -0.380 OA
ATOM     23  H   UNL     1     -37.082  21.086  -1.551  0.00  0.00    +0.211 HD
ENDBRANCH  12  22
BRANCH  14  24
ATOM     24  O   UNL     1     -35.296  16.571  -3.332  0.00  0.00    -0.384 OA
ATOM     25  H   UNL     1     -35.343  17.540  -3.362  0.00  0.00    +0.210 HD
ENDBRANCH  14  24
BRANCH  18  26
ATOM     26  O   UNL     1     -35.656  14.407  -0.383  0.00  0.00    -0.382 OA
ATOM     27  H   UNL     1     -35.037  13.805   0.058  0.00  0.00    +0.210 HD
ENDBRANCH  18  26
BRANCH   5  28
ATOM     28  C   UNL     1     -35.765  23.344   3.875  0.00  0.00    +0.000 C 
ATOM     29  C   UNL     1     -35.209  22.927   5.241  0.00  0.00    +0.000 C 
BRANCH  28  30
ATOM     30  C   UNL     1     -36.702  24.569   3.976  0.00  0.00    +0.004 C 
BRANCH  30  31
ATOM     31  C   UNL     1     -36.015  25.902   3.642  0.00  0.00    +0.023 C 
BRANCH  31  32
ATOM     32  C   UNL     1     -35.202  25.971   2.353  0.00  0.00    -0.034 C 
ATOM     33  C   UNL     1     -33.895  25.663   2.286  0.00  0.00    -0.009 C 
BRANCH  32  34
ATOM     34  C   UNL     1     -36.008  26.433   1.139  0.00  0.00    +0.117 C 
ATOM     35  C   UNL     1     -36.677  25.329   0.317  0.00  0.00    +0.016 C 
BRANCH  34  37
ATOM     36  O   UNL     1     -38.260  27.144   1.771  0.00  0.00    -0.250 OA
ATOM     37  C   UNL     1     -37.078  27.413   1.603  0.00  0.00    +0.317 C 
BRANCH  37  38
ATOM     38  O   UNL     1     -36.577  28.663   1.791  0.00  0.00    -0.480 OA
ATOM     39  H   UNL     1     -35.663  28.827   1.660  0.00  0.00    +0.295 HD
ENDBRANCH  37  38
ENDBRANCH  34  37
ENDBRANCH  32  34
ENDBRANCH  31  32
ENDBRANCH  30  31
ENDBRANCH  28  30
ENDBRANCH   5  28
TORSDOF 10
ENDMDL
MODEL 8
REMARK VINA RESULT:      -5.6      4.698      6.867
REMARK  Name = 53321283
REMARK  10 active torsions:
REMARK  status: ('A' for Active; 'I' for Inactive)
REMARK    1  A    between atoms: C_5  and  C_28
REMARK    2  A    between atoms: C_12  and  O_22
REMARK    3  A    between atoms: C_14  and  O_24
REMARK    4  A    between atoms: C_18  and  O_26
REMARK    5  A    between atoms: C_28  and  C_30
REMARK    6  A    between atoms: C_30  and  C_31
REMARK    7  A    between atoms: C_31  and  C_32
REMARK    8  A    between atoms: C_32  and  C_34
REMARK    9  A    between atoms: C_34  and  C_37
REMARK   10  A    between atoms: C_37  and  O_38
REMARK                            x       y       z     vdW  Elec       q    Type
REMARK                         _______ _______ _______ _____ _____    ______ ____
ROOT
ATOM      1  O   UNL     1     -41.280  23.185  -0.774  0.00  0.00    -0.292 OA
ATOM      2  C   UNL     1     -38.369  22.809   1.243  0.00  0.00    +0.011 C 
ATOM      3  C   UNL     1     -38.893  23.460   2.535  0.00  0.00    +0.021 C 
ATOM      4  C   UNL     1     -42.040  25.356   1.082  0.00  0.00    +0.024 C 
ATOM      5  C   UNL     1     -37.391  21.770   1.842  0.00  0.00    +0.001 C 
ATOM      6  C   UNL     1     -42.409  25.971   2.492  0.00  0.00    +0.034 C 
ATOM      7  C   UNL     1     -39.952  24.515   2.287  0.00  0.00    -0.019 C 
ATOM      8  C   UNL     1     -40.841  24.386   1.268  0.00  0.00    +0.006 C 
ATOM      9  C   UNL     1     -37.600  23.737   3.311  0.00  0.00    +0.004 C 
ATOM     10  C   UNL     1     -36.695  22.535   2.989  0.00  0.00    +0.000 C 
ATOM     11  C   UNL     1     -39.570  22.202   0.533  0.00  0.00    +0.069 C 
ATOM     12  C   UNL     1     -40.046  25.627   3.313  0.00  0.00    +0.129 C 
ATOM     13  C   UNL     1     -41.173  26.639   3.099  0.00  0.00    +0.036 C 
ATOM     14  C   UNL     1     -43.673  26.886   2.508  0.00  0.00    +0.113 C 
ATOM     15  C   UNL     1     -43.328  24.654   0.556  0.00  0.00    +0.007 C 
ATOM     16  C   UNL     1     -40.622  23.264   0.264  0.00  0.00    +0.169 C 
ATOM     17  C   UNL     1     -37.642  23.799   0.296  0.00  0.00    +0.001 C 
ATOM     18  C   UNL     1     -44.884  26.138   1.911  0.00  0.00    +0.135 C 
ATOM     19  C   UNL     1     -44.570  25.550   0.541  0.00  0.00    +0.032 C 
ATOM     20  C   UNL     1     -41.574  26.398   0.037  0.00  0.00    +0.005 C 
ATOM     21  C   UNL     1     -44.010  27.373   3.931  0.00  0.00    +0.032 C 
ENDROOT
BRANCH  12  22
ATOM     22  O   UNL     1     -38.828  26.367   3.345  0.00  0.00    -0.380 OA
ATOM     23  H   UNL     1     -39.024  27.315   3.281  0.00  0.00    +0.211 HD
ENDBRANCH  12  22
BRANCH  14  24
ATOM     24  O   UNL     1     -43.426  28.059   1.731  0.00  0.00    -0.384 OA
ATOM     25  H   UNL     1     -43.181  27.802   0.827  0.00  0.00    +0.210 HD
ENDBRANCH  14  24
BRANCH  18  26
ATOM     26  O   UNL     1     -45.294  25.064   2.757  0.00  0.00    -0.382 OA
ATOM     27  H   UNL     1     -45.131  25.301   3.683  0.00  0.00    +0.210 HD
ENDBRANCH  18  26
BRANCH   5  28
ATOM     28  C   UNL     1     -36.407  21.128   0.875  0.00  0.00    +0.000 C 
ATOM     29  C   UNL     1     -36.820  19.679   0.594  0.00  0.00    +0.000 C 
BRANCH  28  30
ATOM     30  C   UNL     1     -34.971  21.228   1.435  0.00  0.00    +0.004 C 
BRANCH  30  31
ATOM     31  C   UNL     1     -34.358  19.870   1.811  0.00  0.00    +0.023 C 
BRANCH  31  32
ATOM     32  C   UNL     1     -33.164  19.387   0.993  0.00  0.00    -0.034 C 
ATOM     33  C   UNL     1     -32.357  20.213   0.303  0.00  0.00    -0.009 C 
BRANCH  32  34
ATOM     34  C   UNL     1     -32.970  17.871   1.019  0.00  0.00    +0.117 C 
ATOM     35  C   UNL     1     -33.887  17.060   0.099  0.00  0.00    +0.016 C 
BRANCH  34  37
ATOM     36  O   UNL     1     -30.578  17.598   1.446  0.00  0.00    -0.250 OA
ATOM     37  C   UNL     1     -31.522  17.555   0.667  0.00  0.00    +0.317 C 
BRANCH  37  38
ATOM     38  O   UNL     1     -31.374  17.238  -0.646  0.00  0.00    -0.480 OA
ATOM     39  H   UNL     1     -31.585  16.376  -0.948  0.00  0.00    +0.295 HD
ENDBRANCH  37  38
ENDBRANCH  34  37
ENDBRANCH  32  34
ENDBRANCH  31  32
ENDBRANCH  30  31
ENDBRANCH  28  30
ENDBRANCH   5  28
TORSDOF 10
ENDMDL
MODEL 9
REMARK VINA RESULT:      -5.6      2.277      9.041
REMARK  Name = 53321283
REMARK  10 active torsions:
REMARK  status: ('A' for Active; 'I' for Inactive)
REMARK    1  A    between atoms: C_5  and  C_28
REMARK    2  A    between atoms: C_12  and  O_22
REMARK    3  A    between atoms: C_14  and  O_24
REMARK    4  A    between atoms: C_18  and  O_26
REMARK    5  A    between atoms: C_28  and  C_30
REMARK    6  A    between atoms: C_30  and  C_31
REMARK    7  A    between atoms: C_31  and  C_32
REMARK    8  A    between atoms: C_32  and  C_34
REMARK    9  A    between atoms: C_34  and  C_37
REMARK   10  A    between atoms: C_37  and  O_38
REMARK                            x       y       z     vdW  Elec       q    Type
REMARK                         _______ _______ _______ _____ _____    ______ ____
ROOT
ATOM      1  O   UNL     1     -35.217  19.502   1.331  0.00  0.00    -0.292 OA
ATOM      2  C   UNL     1     -36.245  22.514   2.930  0.00  0.00    +0.011 C 
ATOM      3  C   UNL     1     -37.674  22.603   2.364  0.00  0.00    +0.021 C 
ATOM      4  C   UNL     1     -37.348  20.056  -0.638  0.00  0.00    +0.024 C 
ATOM      5  C   UNL     1     -36.458  23.186   4.307  0.00  0.00    +0.001 C 
ATOM      6  C   UNL     1     -38.841  20.303  -1.102  0.00  0.00    +0.034 C 
ATOM      7  C   UNL     1     -37.821  21.954   1.003  0.00  0.00    -0.019 C 
ATOM      8  C   UNL     1     -37.107  20.845   0.678  0.00  0.00    +0.006 C 
ATOM      9  C   UNL     1     -38.045  24.065   2.640  0.00  0.00    +0.004 C 
ATOM     10  C   UNL     1     -37.392  24.376   3.998  0.00  0.00    +0.000 C 
ATOM     11  C   UNL     1     -35.889  21.037   3.003  0.00  0.00    +0.069 C 
ATOM     12  C   UNL     1     -38.896  22.524   0.100  0.00  0.00    +0.129 C 
ATOM     13  C   UNL     1     -39.092  21.807  -1.238  0.00  0.00    +0.036 C 
ATOM     14  C   UNL     1     -39.291  19.489  -2.356  0.00  0.00    +0.113 C 
ATOM     15  C   UNL     1     -37.186  18.515  -0.475  0.00  0.00    +0.007 C 
ATOM     16  C   UNL     1     -36.013  20.390   1.634  0.00  0.00    +0.169 C 
ATOM     17  C   UNL     1     -35.190  23.269   2.082  0.00  0.00    +0.001 C 
ATOM     18  C   UNL     1     -39.035  17.983  -2.136  0.00  0.00    +0.135 C 
ATOM     19  C   UNL     1     -37.599  17.706  -1.708  0.00  0.00    +0.032 C 
ATOM     20  C   UNL     1     -36.280  20.570  -1.634  0.00  0.00    +0.005 C 
ATOM     21  C   UNL     1     -40.777  19.724  -2.688  0.00  0.00    +0.032 C 
ENDROOT
BRANCH  12  22
ATOM     22  O   UNL     1     -38.611  23.888  -0.201  0.00  0.00    -0.380 OA
ATOM     23  H   UNL     1     -39.276  24.457   0.217  0.00  0.00    +0.211 HD
ENDBRANCH  12  22
BRANCH  14  24
ATOM     24  O   UNL     1     -38.551  19.921  -3.499  0.00  0.00    -0.384 OA
ATOM     25  H   UNL     1     -38.519  19.204  -4.153  0.00  0.00    +0.210 HD
ENDBRANCH  14  24
BRANCH  18  26
ATOM     26  O   UNL     1     -39.895  17.457  -1.125  0.00  0.00    -0.382 OA
ATOM     27  H   UNL     1     -39.790  17.971  -0.310  0.00  0.00    +0.210 HD
ENDBRANCH  18  26
BRANCH   5  28
ATOM     28  C   UNL     1     -35.203  23.598   5.063  0.00  0.00    +0.000 C 
ATOM     29  C   UNL     1     -34.919  22.598   6.189  0.00  0.00    +0.000 C 
BRANCH  28  30
ATOM     30  C   UNL     1     -35.350  25.043   5.589  0.00  0.00    +0.004 C 
BRANCH  30  31
ATOM     31  C   UNL     1     -34.061  25.873   5.485  0.00  0.00    +0.023 C 
BRANCH  31  32
ATOM     32  C   UNL     1     -33.926  26.816   4.294  0.00  0.00    -0.034 C 
ATOM     33  C   UNL     1     -34.913  27.032   3.406  0.00  0.00    -0.009 C 
BRANCH  32  34
ATOM     34  C   UNL     1     -32.559  27.492   4.194  0.00  0.00    +0.117 C 
ATOM     35  C   UNL     1     -32.154  27.986   2.802  0.00  0.00    +0.016 C 
BRANCH  34  37
ATOM     36  O   UNL     1     -32.183  28.609   6.335  0.00  0.00    -0.250 OA
ATOM     37  C   UNL     1     -32.520  28.669   5.160  0.00  0.00    +0.317 C 
BRANCH  37  38
ATOM     38  O   UNL     1     -32.938  29.822   4.575  0.00  0.00    -0.480 OA
ATOM     39  H   UNL     1     -33.680  29.816   4.002  0.00  0.00    +0.295 HD
ENDBRANCH  37  38
ENDBRANCH  34  37
ENDBRANCH  32  34
ENDBRANCH  31  32
ENDBRANCH  30  31
ENDBRANCH  28  30
ENDBRANCH   5  28
TORSDOF 10
ENDMDL
