MODEL 1
REMARK VINA RESULT:      -6.3      0.000      0.000
REMARK  Name = 57332105
REMARK  9 active torsions:
REMARK  status: ('A' for Active; 'I' for Inactive)
REMARK    1  A    between atoms: C_1  and  C_4
REMARK    2  A    between atoms: C_2  and  C_17
REMARK    3  A    between atoms: C_4  and  C_7
REMARK    4  A    between atoms: C_7  and  C_8
REMARK    5  A    between atoms: C_9  and  N_14
REMARK    6  A    between atoms: C_18  and  C_21
REMARK    7  A    between atoms: N_20  and  C_23
REMARK    8  A    between atoms: C_23  and  C_24
REMARK    9  A    between atoms: C_24  and  S_25
REMARK                            x       y       z     vdW  Elec       q    Type
REMARK                         _______ _______ _______ _____ _____    ______ ____
ROOT
ATOM      1  C   UNL     1     -35.599  21.352   2.587  0.00  0.00    -0.023 C 
ATOM      2  C   UNL     1     -34.695  21.053   1.630  0.00  0.00    -0.026 C 
ATOM      3  C   UNL     1     -34.238  22.034   0.581  0.00  0.00    +0.031 C 
ENDROOT
BRANCH   1   4
ATOM      4  C   UNL     1     -36.278  22.680   2.826  0.00  0.00    +0.084 C 
ATOM      5  C   UNL     1     -37.798  22.548   2.733  0.00  0.00    +0.013 C 
BRANCH   4   7
ATOM      6  O   UNL     1     -36.258  22.565   5.241  0.00  0.00    -0.291 OA
ATOM      7  C   UNL     1     -35.894  23.158   4.225  0.00  0.00    +0.177 C 
BRANCH   7   8
ATOM      8  C   UNL     1     -35.049  24.374   4.375  0.00  0.00    +0.035 C 
ATOM      9  C   UNL     1     -33.463  26.652   4.654  0.00  0.00    +0.048 C 
ATOM     10  C   UNL     1     -34.937  24.997   5.617  0.00  0.00    +0.004 C 
ATOM     11  C   UNL     1     -34.369  24.890   3.271  0.00  0.00    +0.004 C 
ATOM     12  C   UNL     1     -34.144  26.136   5.757  0.00  0.00    +0.015 C 
ATOM     13  C   UNL     1     -33.577  26.029   3.411  0.00  0.00    +0.015 C 
BRANCH   9  14
ATOM     14  N   UNL     1     -32.663  27.805   4.796  0.00  0.00    -0.304 N 
ATOM     15  C   UNL     1     -32.045  28.119   6.069  0.00  0.00    +0.112 C 
ATOM     16  C   UNL     1     -32.443  28.688   3.668  0.00  0.00    +0.112 C 
ENDBRANCH   9  14
ENDBRANCH   7   8
ENDBRANCH   4   7
ENDBRANCH   1   4
BRANCH   2  17
ATOM     17  C   UNL     1     -34.135  19.700   1.587  0.00  0.00    +0.000 C 
ATOM     18  C   UNL     1     -33.062  19.306   0.885  0.00  0.00    +0.057 C 
BRANCH  18  21
ATOM     19  O   UNL     1     -31.727  17.505   1.706  0.00  0.00    -0.270 OA
ATOM     20  N   UNL     1     -33.297  17.090   0.044  0.00  0.00    -0.299 N 
ATOM     21  C   UNL     1     -32.609  17.887   0.943  0.00  0.00    +0.246 C 
ATOM     22  H   UNL     1     -33.987  17.506  -0.522  0.00  0.00    +0.150 HD
BRANCH  20  23
ATOM     23  C   UNL     1     -33.045  15.674  -0.100  0.00  0.00    +0.116 C 
BRANCH  23  24
ATOM     24  C   UNL     1     -33.845  15.062  -1.234  0.00  0.00    +0.179 C 
BRANCH  24  25
ATOM     25  S   UNL     1     -35.579  15.044  -0.900  0.00  0.00    +0.024 S 
ATOM     26  O   UNL     1     -35.970  16.391  -1.733  0.00  0.00    -0.069 OA
ATOM     27  O   UNL     1     -35.788  15.292   0.515  0.00  0.00    -0.069 OA
ATOM     28  O   UNL     1     -36.170  13.897  -1.565  0.00  0.00    -0.069 OA
ENDBRANCH  24  25
ENDBRANCH  23  24
ENDBRANCH  20  23
ENDBRANCH  18  21
ENDBRANCH   2  17
TORSDOF 9
ENDMDL
MODEL 2
REMARK VINA RESULT:      -6.2      0.929      1.697
REMARK  Name = 57332105
REMARK  9 active torsions:
REMARK  status: ('A' for Active; 'I' for Inactive)
REMARK    1  A    between atoms: C_1  and  C_4
REMARK    2  A    between atoms: C_2  and  C_17
REMARK    3  A    between atoms: C_4  and  C_7
REMARK    4  A    between atoms: C_7  and  C_8
REMARK    5  A    between atoms: C_9  and  N_14
REMARK    6  A    between atoms: C_18  and  C_21
REMARK    7  A    between atoms: N_20  and  C_23
REMARK    8  A    between atoms: C_23  and  C_24
REMARK    9  A    between atoms: C_24  and  S_25
REMARK                            x       y       z     vdW  Elec       q    Type
REMARK                         _______ _______ _______ _____ _____    ______ ____
ROOT
ATOM      1  C   UNL     1     -35.855  21.643   2.515  0.00  0.00    -0.023 C 
ATOM      2  C   UNL     1     -34.913  21.332   1.600  0.00  0.00    -0.026 C 
ATOM      3  C   UNL     1     -34.249  22.351   0.710  0.00  0.00    +0.031 C 
ENDROOT
BRANCH   1   4
ATOM      4  C   UNL     1     -36.385  23.016   2.858  0.00  0.00    +0.084 C 
ATOM      5  C   UNL     1     -37.913  23.042   2.821  0.00  0.00    +0.013 C 
BRANCH   4   7
ATOM      6  O   UNL     1     -36.223  22.699   5.249  0.00  0.00    -0.291 OA
ATOM      7  C   UNL     1     -35.904  23.367   4.265  0.00  0.00    +0.177 C 
BRANCH   7   8
ATOM      8  C   UNL     1     -35.017  24.547   4.460  0.00  0.00    +0.035 C 
ATOM      9  C   UNL     1     -33.357  26.758   4.825  0.00  0.00    +0.048 C 
ATOM     10  C   UNL     1     -34.317  25.078   3.378  0.00  0.00    +0.004 C 
ATOM     11  C   UNL     1     -34.888  25.120   5.725  0.00  0.00    +0.004 C 
ATOM     12  C   UNL     1     -33.487  26.184   3.561  0.00  0.00    +0.015 C 
ATOM     13  C   UNL     1     -34.058  26.224   5.908  0.00  0.00    +0.015 C 
BRANCH   9  14
ATOM     14  N   UNL     1     -32.517  27.875   5.010  0.00  0.00    -0.304 N 
ATOM     15  C   UNL     1     -32.212  28.757   3.900  0.00  0.00    +0.112 C 
ATOM     16  C   UNL     1     -31.951  28.160   6.313  0.00  0.00    +0.112 C 
ENDBRANCH   9  14
ENDBRANCH   7   8
ENDBRANCH   4   7
ENDBRANCH   1   4
BRANCH   2  17
ATOM     17  C   UNL     1     -34.521  19.930   1.440  0.00  0.00    +0.000 C 
ATOM     18  C   UNL     1     -33.300  19.478   1.116  0.00  0.00    +0.057 C 
BRANCH  18  21
ATOM     19  O   UNL     1     -32.040  17.474   1.427  0.00  0.00    -0.270 OA
ATOM     20  N   UNL     1     -34.088  17.371   0.333  0.00  0.00    -0.299 N 
ATOM     21  C   UNL     1     -33.052  18.013   0.991  0.00  0.00    +0.246 C 
ATOM     22  H   UNL     1     -34.854  17.907   0.025  0.00  0.00    +0.150 HD
BRANCH  20  23
ATOM     23  C   UNL     1     -34.092  15.948   0.079  0.00  0.00    +0.116 C 
BRANCH  23  24
ATOM     24  C   UNL     1     -35.472  15.434  -0.282  0.00  0.00    +0.179 C 
BRANCH  24  25
ATOM     25  S   UNL     1     -36.466  16.669  -1.059  0.00  0.00    +0.024 S 
ATOM     26  O   UNL     1     -37.652  15.683  -1.591  0.00  0.00    -0.069 OA
ATOM     27  O   UNL     1     -35.749  17.198  -2.205  0.00  0.00    -0.069 OA
ATOM     28  O   UNL     1     -37.010  17.542  -0.035  0.00  0.00    -0.069 OA
ENDBRANCH  24  25
ENDBRANCH  23  24
ENDBRANCH  20  23
ENDBRANCH  18  21
ENDBRANCH   2  17
TORSDOF 9
ENDMDL
MODEL 3
REMARK VINA RESULT:      -6.2      4.397      9.692
REMARK  Name = 57332105
REMARK  9 active torsions:
REMARK  status: ('A' for Active; 'I' for Inactive)
REMARK    1  A    between atoms: C_1  and  C_4
REMARK    2  A    between atoms: C_2  and  C_17
REMARK    3  A    between atoms: C_4  and  C_7
REMARK    4  A    between atoms: C_7  and  C_8
REMARK    5  A    between atoms: C_9  and  N_14
REMARK    6  A    between atoms: C_18  and  C_21
REMARK    7  A    between atoms: N_20  and  C_23
REMARK    8  A    between atoms: C_23  and  C_24
REMARK    9  A    between atoms: C_24  and  S_25
REMARK                            x       y       z     vdW  Elec       q    Type
REMARK                         _______ _______ _______ _____ _____    ______ ____
ROOT
ATOM      1  C   UNL     1     -35.263  23.393   3.499  0.00  0.00    -0.023 C 
ATOM      2  C   UNL     1     -34.911  23.469   4.800  0.00  0.00    -0.026 C 
ATOM      3  C   UNL     1     -35.389  22.499   5.850  0.00  0.00    +0.031 C 
ENDROOT
BRANCH   1   4
ATOM      4  C   UNL     1     -36.131  22.345   2.843  0.00  0.00    +0.084 C 
ATOM      5  C   UNL     1     -37.598  22.774   2.830  0.00  0.00    +0.013 C 
BRANCH   4   7
ATOM      6  O   UNL     1     -36.118  22.804   0.469  0.00  0.00    -0.291 OA
ATOM      7  C   UNL     1     -35.642  22.164   1.407  0.00  0.00    +0.177 C 
BRANCH   7   8
ATOM      8  C   UNL     1     -34.552  21.189   1.125  0.00  0.00    +0.035 C 
ATOM      9  C   UNL     1     -32.511  19.363   0.598  0.00  0.00    +0.048 C 
ATOM     10  C   UNL     1     -33.535  21.521   0.231  0.00  0.00    +0.004 C 
ATOM     11  C   UNL     1     -34.550  19.945   1.756  0.00  0.00    +0.004 C 
ATOM     12  C   UNL     1     -32.514  20.607  -0.032  0.00  0.00    +0.015 C 
ATOM     13  C   UNL     1     -33.530  19.033   1.492  0.00  0.00    +0.015 C 
BRANCH   9  14
ATOM     14  N   UNL     1     -31.479  18.440   0.331  0.00  0.00    -0.304 N 
ATOM     15  C   UNL     1     -31.762  17.020   0.269  0.00  0.00    +0.112 C 
ATOM     16  C   UNL     1     -30.123  18.899   0.108  0.00  0.00    +0.112 C 
ENDBRANCH   9  14
ENDBRANCH   7   8
ENDBRANCH   4   7
ENDBRANCH   1   4
BRANCH   2  17
ATOM     17  C   UNL     1     -34.033  24.561   5.230  0.00  0.00    +0.000 C 
ATOM     18  C   UNL     1     -34.423  25.769   5.665  0.00  0.00    +0.057 C 
BRANCH  18  21
ATOM     19  O   UNL     1     -32.974  26.863   7.216  0.00  0.00    -0.270 OA
ATOM     20  N   UNL     1     -33.034  27.591   5.010  0.00  0.00    -0.299 N 
ATOM     21  C   UNL     1     -33.406  26.782   6.071  0.00  0.00    +0.246 C 
ATOM     22  H   UNL     1     -33.449  27.435   4.131  0.00  0.00    +0.150 HD
BRANCH  20  23
ATOM     23  C   UNL     1     -32.065  28.656   5.139  0.00  0.00    +0.116 C 
BRANCH  23  24
ATOM     24  C   UNL     1     -32.351  29.808   4.196  0.00  0.00    +0.179 C 
BRANCH  24  25
ATOM     25  S   UNL     1     -33.391  29.333   2.850  0.00  0.00    +0.024 S 
ATOM     26  O   UNL     1     -33.243  30.700   1.974  0.00  0.00    -0.069 OA
ATOM     27  O   UNL     1     -34.758  29.228   3.326  0.00  0.00    -0.069 OA
ATOM     28  O   UNL     1     -32.754  28.246   2.129  0.00  0.00    -0.069 OA
ENDBRANCH  24  25
ENDBRANCH  23  24
ENDBRANCH  20  23
ENDBRANCH  18  21
ENDBRANCH   2  17
TORSDOF 9
ENDMDL
MODEL 4
REMARK VINA RESULT:      -6.2      4.513      9.809
REMARK  Name = 57332105
REMARK  9 active torsions:
REMARK  status: ('A' for Active; 'I' for Inactive)
REMARK    1  A    between atoms: C_1  and  C_4
REMARK    2  A    between atoms: C_2  and  C_17
REMARK    3  A    between atoms: C_4  and  C_7
REMARK    4  A    between atoms: C_7  and  C_8
REMARK    5  A    between atoms: C_9  and  N_14
REMARK    6  A    between atoms: C_18  and  C_21
REMARK    7  A    between atoms: N_20  and  C_23
REMARK    8  A    between atoms: C_23  and  C_24
REMARK    9  A    between atoms: C_24  and  S_25
REMARK                            x       y       z     vdW  Elec       q    Type
REMARK                         _______ _______ _______ _____ _____    ______ ____
ROOT
ATOM      1  C   UNL     1     -35.370  23.590   3.705  0.00  0.00    -0.023 C 
ATOM      2  C   UNL     1     -35.049  23.611   5.015  0.00  0.00    -0.026 C 
ATOM      3  C   UNL     1     -35.386  22.498   5.973  0.00  0.00    +0.031 C 
ENDROOT
BRANCH   1   4
ATOM      4  C   UNL     1     -36.063  22.481   2.947  0.00  0.00    +0.084 C 
ATOM      5  C   UNL     1     -37.566  22.740   2.842  0.00  0.00    +0.013 C 
BRANCH   4   7
ATOM      6  O   UNL     1     -35.763  23.231   0.668  0.00  0.00    -0.291 OA
ATOM      7  C   UNL     1     -35.458  22.423   1.545  0.00  0.00    +0.177 C 
BRANCH   7   8
ATOM      8  C   UNL     1     -34.464  21.362   1.224  0.00  0.00    +0.035 C 
ATOM      9  C   UNL     1     -32.600  19.376   0.623  0.00  0.00    +0.048 C 
ATOM     10  C   UNL     1     -33.443  21.618   0.309  0.00  0.00    +0.004 C 
ATOM     11  C   UNL     1     -34.554  20.113   1.838  0.00  0.00    +0.004 C 
ATOM     12  C   UNL     1     -32.511  20.625   0.009  0.00  0.00    +0.015 C 
ATOM     13  C   UNL     1     -33.623  19.120   1.537  0.00  0.00    +0.015 C 
BRANCH   9  14
ATOM     14  N   UNL     1     -31.659  18.371   0.317  0.00  0.00    -0.304 N 
ATOM     15  C   UNL     1     -30.270  18.712   0.083  0.00  0.00    +0.112 C 
ATOM     16  C   UNL     1     -32.067  16.983   0.239  0.00  0.00    +0.112 C 
ENDBRANCH   9  14
ENDBRANCH   7   8
ENDBRANCH   4   7
ENDBRANCH   1   4
BRANCH   2  17
ATOM     17  C   UNL     1     -34.350  24.783   5.551  0.00  0.00    +0.000 C 
ATOM     18  C   UNL     1     -34.004  25.883   4.865  0.00  0.00    +0.057 C 
BRANCH  18  21
ATOM     19  O   UNL     1     -33.123  27.028   6.766  0.00  0.00    -0.270 OA
ATOM     20  N   UNL     1     -32.871  27.968   4.656  0.00  0.00    -0.299 N 
ATOM     21  C   UNL     1     -33.294  27.000   5.551  0.00  0.00    +0.246 C 
ATOM     22  H   UNL     1     -33.065  27.841   3.699  0.00  0.00    +0.150 HD
BRANCH  20  23
ATOM     23  C   UNL     1     -32.160  29.158   5.066  0.00  0.00    +0.116 C 
BRANCH  23  24
ATOM     24  C   UNL     1     -31.030  29.505   4.117  0.00  0.00    +0.179 C 
BRANCH  24  25
ATOM     25  S   UNL     1     -29.799  28.240   4.046  0.00  0.00    +0.024 S 
ATOM     26  O   UNL     1     -29.837  27.819   5.621  0.00  0.00    -0.069 OA
ATOM     27  O   UNL     1     -28.514  28.850   3.756  0.00  0.00    -0.069 OA
ATOM     28  O   UNL     1     -30.311  27.136   3.255  0.00  0.00    -0.069 OA
ENDBRANCH  24  25
ENDBRANCH  23  24
ENDBRANCH  20  23
ENDBRANCH  18  21
ENDBRANCH   2  17
TORSDOF 9
ENDMDL
MODEL 5
REMARK VINA RESULT:      -6.2      4.651      9.923
REMARK  Name = 57332105
REMARK  9 active torsions:
REMARK  status: ('A' for Active; 'I' for Inactive)
REMARK    1  A    between atoms: C_1  and  C_4
REMARK    2  A    between atoms: C_2  and  C_17
REMARK    3  A    between atoms: C_4  and  C_7
REMARK    4  A    between atoms: C_7  and  C_8
REMARK    5  A    between atoms: C_9  and  N_14
REMARK    6  A    between atoms: C_18  and  C_21
REMARK    7  A    between atoms: N_20  and  C_23
REMARK    8  A    between atoms: C_23  and  C_24
REMARK    9  A    between atoms: C_24  and  S_25
REMARK                            x       y       z     vdW  Elec       q    Type
REMARK                         _______ _______ _______ _____ _____    ______ ____
ROOT
ATOM      1  C   UNL     1     -35.324  23.323   3.605  0.00  0.00    -0.023 C 
ATOM      2  C   UNL     1     -35.053  23.366   4.927  0.00  0.00    -0.026 C 
ATOM      3  C   UNL     1     -35.399  22.256   5.884  0.00  0.00    +0.031 C 
ENDROOT
BRANCH   1   4
ATOM      4  C   UNL     1     -35.961  22.189   2.835  0.00  0.00    +0.084 C 
ATOM      5  C   UNL     1     -37.468  22.400   2.689  0.00  0.00    +0.013 C 
BRANCH   4   7
ATOM      6  O   UNL     1     -35.613  22.948   0.566  0.00  0.00    -0.291 OA
ATOM      7  C   UNL     1     -35.318  22.143   1.450  0.00  0.00    +0.177 C 
BRANCH   7   8
ATOM      8  C   UNL     1     -34.297  21.101   1.154  0.00  0.00    +0.035 C 
ATOM      9  C   UNL     1     -32.386  19.147   0.597  0.00  0.00    +0.048 C 
ATOM     10  C   UNL     1     -34.373  19.855   1.776  0.00  0.00    +0.004 C 
ATOM     11  C   UNL     1     -33.267  21.371   0.254  0.00  0.00    +0.004 C 
ATOM     12  C   UNL     1     -33.417  18.878   1.497  0.00  0.00    +0.015 C 
ATOM     13  C   UNL     1     -32.311  20.395  -0.024  0.00  0.00    +0.015 C 
BRANCH   9  14
ATOM     14  N   UNL     1     -31.419  18.160   0.317  0.00  0.00    -0.304 N 
ATOM     15  C   UNL     1     -30.010  18.499   0.287  0.00  0.00    +0.112 C 
ATOM     16  C   UNL     1     -31.821  16.791   0.061  0.00  0.00    +0.112 C 
ENDBRANCH   9  14
ENDBRANCH   7   8
ENDBRANCH   4   7
ENDBRANCH   1   4
BRANCH   2  17
ATOM     17  C   UNL     1     -34.403  24.560   5.474  0.00  0.00    +0.000 C 
ATOM     18  C   UNL     1     -34.066  25.665   4.790  0.00  0.00    +0.057 C 
BRANCH  18  21
ATOM     19  O   UNL     1     -33.310  26.865   6.710  0.00  0.00    -0.270 OA
ATOM     20  N   UNL     1     -32.939  27.754   4.595  0.00  0.00    -0.299 N 
ATOM     21  C   UNL     1     -33.407  26.805   5.488  0.00  0.00    +0.246 C 
ATOM     22  H   UNL     1     -33.074  27.601   3.632  0.00  0.00    +0.150 HD
BRANCH  20  23
ATOM     23  C   UNL     1     -32.263  28.961   5.016  0.00  0.00    +0.116 C 
BRANCH  23  24
ATOM     24  C   UNL     1     -30.950  29.166   4.286  0.00  0.00    +0.179 C 
BRANCH  24  25
ATOM     25  S   UNL     1     -29.591  28.410   5.123  0.00  0.00    +0.024 S 
ATOM     26  O   UNL     1     -29.213  27.319   3.971  0.00  0.00    -0.069 OA
ATOM     27  O   UNL     1     -30.090  27.705   6.289  0.00  0.00    -0.069 OA
ATOM     28  O   UNL     1     -28.511  29.375   5.224  0.00  0.00    -0.069 OA
ENDBRANCH  24  25
ENDBRANCH  23  24
ENDBRANCH  20  23
ENDBRANCH  18  21
ENDBRANCH   2  17
TORSDOF 9
ENDMDL
MODEL 6
REMARK VINA RESULT:      -6.2      4.458      9.906
REMARK  Name = 57332105
REMARK  9 active torsions:
REMARK  status: ('A' for Active; 'I' for Inactive)
REMARK    1  A    between atoms: C_1  and  C_4
REMARK    2  A    between atoms: C_2  and  C_17
REMARK    3  A    between atoms: C_4  and  C_7
REMARK    4  A    between atoms: C_7  and  C_8
REMARK    5  A    between atoms: C_9  and  N_14
REMARK    6  A    between atoms: C_18  and  C_21
REMARK    7  A    between atoms: N_20  and  C_23
REMARK    8  A    between atoms: C_23  and  C_24
REMARK    9  A    between atoms: C_24  and  S_25
REMARK                            x       y       z     vdW  Elec       q    Type
REMARK                         _______ _______ _______ _____ _____    ______ ____
ROOT
ATOM      1  C   UNL     1     -35.211  22.131   2.911  0.00  0.00    -0.023 C 
ATOM      2  C   UNL     1     -35.098  22.477   4.211  0.00  0.00    -0.026 C 
ATOM      3  C   UNL     1     -35.162  21.487   5.345  0.00  0.00    +0.031 C 
ENDROOT
BRANCH   1   4
ATOM      4  C   UNL     1     -35.373  20.740   2.342  0.00  0.00    +0.084 C 
ATOM      5  C   UNL     1     -36.849  20.370   2.200  0.00  0.00    +0.013 C 
BRANCH   4   7
ATOM      6  O   UNL     1     -35.203  21.283  -0.008  0.00  0.00    -0.291 OA
ATOM      7  C   UNL     1     -34.708  20.716   0.967  0.00  0.00    +0.177 C 
BRANCH   7   8
ATOM      8  C   UNL     1     -33.418  19.993   0.792  0.00  0.00    +0.035 C 
ATOM      9  C   UNL     1     -31.001  18.639   0.467  0.00  0.00    +0.048 C 
ATOM     10  C   UNL     1     -32.401  20.558   0.023  0.00  0.00    +0.004 C 
ATOM     11  C   UNL     1     -33.227  18.752   1.398  0.00  0.00    +0.004 C 
ATOM     12  C   UNL     1     -31.193  19.881  -0.140  0.00  0.00    +0.015 C 
ATOM     13  C   UNL     1     -32.020  18.075   1.235  0.00  0.00    +0.015 C 
BRANCH   9  14
ATOM     14  N   UNL     1     -29.780  17.954   0.300  0.00  0.00    -0.304 N 
ATOM     15  C   UNL     1     -29.006  17.542   1.455  0.00  0.00    +0.112 C 
ATOM     16  C   UNL     1     -29.285  17.649  -1.027  0.00  0.00    +0.112 C 
ENDBRANCH   9  14
ENDBRANCH   7   8
ENDBRANCH   4   7
ENDBRANCH   1   4
BRANCH   2  17
ATOM     17  C   UNL     1     -34.923  23.891   4.550  0.00  0.00    +0.000 C 
ATOM     18  C   UNL     1     -34.735  24.899   3.683  0.00  0.00    +0.057 C 
BRANCH  18  21
ATOM     19  O   UNL     1     -35.348  26.805   4.982  0.00  0.00    -0.270 OA
ATOM     20  N   UNL     1     -33.460  26.910   3.632  0.00  0.00    -0.299 N 
ATOM     21  C   UNL     1     -34.571  26.294   4.182  0.00  0.00    +0.246 C 
ATOM     22  H   UNL     1     -32.906  26.402   2.997  0.00  0.00    +0.150 HD
BRANCH  20  23
ATOM     23  C   UNL     1     -33.080  28.269   3.949  0.00  0.00    +0.116 C 
BRANCH  23  24
ATOM     24  C   UNL     1     -31.657  28.360   4.464  0.00  0.00    +0.179 C 
BRANCH  24  25
ATOM     25  S   UNL     1     -31.571  28.246   6.224  0.00  0.00    +0.024 S 
ATOM     26  O   UNL     1     -30.004  27.806   6.333  0.00  0.00    -0.069 OA
ATOM     27  O   UNL     1     -32.399  27.139   6.665  0.00  0.00    -0.069 OA
ATOM     28  O   UNL     1     -31.722  29.577   6.785  0.00  0.00    -0.069 OA
ENDBRANCH  24  25
ENDBRANCH  23  24
ENDBRANCH  20  23
ENDBRANCH  18  21
ENDBRANCH   2  17
TORSDOF 9
ENDMDL
MODEL 7
REMARK VINA RESULT:      -6.1      5.064      9.897
REMARK  Name = 57332105
REMARK  9 active torsions:
REMARK  status: ('A' for Active; 'I' for Inactive)
REMARK    1  A    between atoms: C_1  and  C_4
REMARK    2  A    between atoms: C_2  and  C_17
REMARK    3  A    between atoms: C_4  and  C_7
REMARK    4  A    between atoms: C_7  and  C_8
REMARK    5  A    between atoms: C_9  and  N_14
REMARK    6  A    between atoms: C_18  and  C_21
REMARK    7  A    between atoms: N_20  and  C_23
REMARK    8  A    between atoms: C_23  and  C_24
REMARK    9  A    between atoms: C_24  and  S_25
REMARK                            x       y       z     vdW  Elec       q    Type
REMARK                         _______ _______ _______ _____ _____    ______ ____
ROOT
ATOM      1  C   UNL     1     -36.256  24.848   4.218  0.00  0.00    -0.023 C 
ATOM      2  C   UNL     1     -35.430  24.409   5.191  0.00  0.00    -0.026 C 
ATOM      3  C   UNL     1     -35.333  22.966   5.614  0.00  0.00    +0.031 C 
ENDROOT
BRANCH   1   4
ATOM      4  C   UNL     1     -37.183  24.020   3.359  0.00  0.00    +0.084 C 
ATOM      5  C   UNL     1     -38.536  24.710   3.182  0.00  0.00    +0.013 C 
BRANCH   4   7
ATOM      6  O   UNL     1     -36.502  24.742   1.154  0.00  0.00    -0.291 OA
ATOM      7  C   UNL     1     -36.521  23.841   1.993  0.00  0.00    +0.177 C 
BRANCH   7   8
ATOM      8  C   UNL     1     -35.873  22.542   1.661  0.00  0.00    +0.035 C 
ATOM      9  C   UNL     1     -34.659  20.110   1.037  0.00  0.00    +0.048 C 
ATOM     10  C   UNL     1     -36.210  21.393   2.375  0.00  0.00    +0.004 C 
ATOM     11  C   UNL     1     -34.929  22.477   0.637  0.00  0.00    +0.004 C 
ATOM     12  C   UNL     1     -35.603  20.176   2.062  0.00  0.00    +0.015 C 
ATOM     13  C   UNL     1     -34.322  21.262   0.325  0.00  0.00    +0.015 C 
BRANCH   9  14
ATOM     14  N   UNL     1     -34.044  18.880   0.723  0.00  0.00    -0.304 N 
ATOM     15  C   UNL     1     -32.899  18.417   1.482  0.00  0.00    +0.112 C 
ATOM     16  C   UNL     1     -34.553  18.061  -0.358  0.00  0.00    +0.112 C 
ENDBRANCH   9  14
ENDBRANCH   7   8
ENDBRANCH   4   7
ENDBRANCH   1   4
BRANCH   2  17
ATOM     17  C   UNL     1     -34.589  25.383   5.892  0.00  0.00    +0.000 C 
ATOM     18  C   UNL     1     -33.808  26.314   5.323  0.00  0.00    +0.057 C 
BRANCH  18  21
ATOM     19  O   UNL     1     -32.812  27.039   7.368  0.00  0.00    -0.270 OA
ATOM     20  N   UNL     1     -32.531  28.321   5.451  0.00  0.00    -0.299 N 
ATOM     21  C   UNL     1     -33.006  27.240   6.174  0.00  0.00    +0.246 C 
ATOM     22  H   UNL     1     -32.750  28.380   4.493  0.00  0.00    +0.150 HD
BRANCH  20  23
ATOM     23  C   UNL     1     -31.727  29.367   6.042  0.00  0.00    +0.116 C 
BRANCH  23  24
ATOM     24  C   UNL     1     -30.558  29.760   5.160  0.00  0.00    +0.179 C 
BRANCH  24  25
ATOM     25  S   UNL     1     -29.488  28.397   4.818  0.00  0.00    +0.024 S 
ATOM     26  O   UNL     1     -29.576  27.684   6.282  0.00  0.00    -0.069 OA
ATOM     27  O   UNL     1     -28.139  28.896   4.621  0.00  0.00    -0.069 OA
ATOM     28  O   UNL     1     -30.128  27.536   3.840  0.00  0.00    -0.069 OA
ENDBRANCH  24  25
ENDBRANCH  23  24
ENDBRANCH  20  23
ENDBRANCH  18  21
ENDBRANCH   2  17
TORSDOF 9
ENDMDL
MODEL 8
REMARK VINA RESULT:      -6.1      5.529     10.632
REMARK  Name = 57332105
REMARK  9 active torsions:
REMARK  status: ('A' for Active; 'I' for Inactive)
REMARK    1  A    between atoms: C_1  and  C_4
REMARK    2  A    between atoms: C_2  and  C_17
REMARK    3  A    between atoms: C_4  and  C_7
REMARK    4  A    between atoms: C_7  and  C_8
REMARK    5  A    between atoms: C_9  and  N_14
REMARK    6  A    between atoms: C_18  and  C_21
REMARK    7  A    between atoms: N_20  and  C_23
REMARK    8  A    between atoms: C_23  and  C_24
REMARK    9  A    between atoms: C_24  and  S_25
REMARK                            x       y       z     vdW  Elec       q    Type
REMARK                         _______ _______ _______ _____ _____    ______ ____
ROOT
ATOM      1  C   UNL     1     -34.471  24.308   5.395  0.00  0.00    -0.023 C 
ATOM      2  C   UNL     1     -33.991  25.203   4.506  0.00  0.00    -0.026 C 
ATOM      3  C   UNL     1     -33.917  24.946   3.024  0.00  0.00    +0.031 C 
ENDROOT
BRANCH   1   4
ATOM      4  C   UNL     1     -35.049  22.943   5.103  0.00  0.00    +0.084 C 
ATOM      5  C   UNL     1     -35.423  22.214   6.393  0.00  0.00    +0.013 C 
BRANCH   4   7
ATOM      6  O   UNL     1     -37.089  24.062   4.444  0.00  0.00    -0.291 OA
ATOM      7  C   UNL     1     -36.299  23.137   4.247  0.00  0.00    +0.177 C 
BRANCH   7   8
ATOM      8  C   UNL     1     -36.577  22.188   3.135  0.00  0.00    +0.035 C 
ATOM      9  C   UNL     1     -37.100  20.408   1.051  0.00  0.00    +0.048 C 
ATOM     10  C   UNL     1     -35.666  21.175   2.838  0.00  0.00    +0.004 C 
ATOM     11  C   UNL     1     -37.750  22.312   2.389  0.00  0.00    +0.004 C 
ATOM     12  C   UNL     1     -35.928  20.285   1.797  0.00  0.00    +0.015 C 
ATOM     13  C   UNL     1     -38.011  21.423   1.348  0.00  0.00    +0.015 C 
BRANCH   9  14
ATOM     14  N   UNL     1     -37.363  19.509  -0.003  0.00  0.00    -0.304 N 
ATOM     15  C   UNL     1     -36.344  18.578  -0.446  0.00  0.00    +0.112 C 
ATOM     16  C   UNL     1     -38.657  19.501  -0.654  0.00  0.00    +0.112 C 
ENDBRANCH   9  14
ENDBRANCH   7   8
ENDBRANCH   4   7
ENDBRANCH   1   4
BRANCH   2  17
ATOM     17  C   UNL     1     -33.495  26.490   5.001  0.00  0.00    +0.000 C 
ATOM     18  C   UNL     1     -32.839  27.417   4.285  0.00  0.00    +0.057 C 
BRANCH  18  21
ATOM     19  O   UNL     1     -32.780  29.788   4.555  0.00  0.00    -0.270 OA
ATOM     20  N   UNL     1     -31.515  28.451   5.973  0.00  0.00    -0.299 N 
ATOM     21  C   UNL     1     -32.395  28.685   4.930  0.00  0.00    +0.246 C 
ATOM     22  H   UNL     1     -31.275  27.521   6.187  0.00  0.00    +0.150 HD
BRANCH  20  23
ATOM     23  C   UNL     1     -30.934  29.514   6.762  0.00  0.00    +0.116 C 
BRANCH  23  24
ATOM     24  C   UNL     1     -29.491  29.786   6.383  0.00  0.00    +0.179 C 
BRANCH  24  25
ATOM     25  S   UNL     1     -28.388  28.560   7.013  0.00  0.00    +0.024 S 
ATOM     26  O   UNL     1     -27.142  28.855   6.003  0.00  0.00    -0.069 OA
ATOM     27  O   UNL     1     -28.928  27.245   6.718  0.00  0.00    -0.069 OA
ATOM     28  O   UNL     1     -27.996  28.934   8.360  0.00  0.00    -0.069 OA
ENDBRANCH  24  25
ENDBRANCH  23  24
ENDBRANCH  20  23
ENDBRANCH  18  21
ENDBRANCH   2  17
TORSDOF 9
ENDMDL
MODEL 9
REMARK VINA RESULT:      -6.1      5.727     10.031
REMARK  Name = 57332105
REMARK  9 active torsions:
REMARK  status: ('A' for Active; 'I' for Inactive)
REMARK    1  A    between atoms: C_1  and  C_4
REMARK    2  A    between atoms: C_2  and  C_17
REMARK    3  A    between atoms: C_4  and  C_7
REMARK    4  A    between atoms: C_7  and  C_8
REMARK    5  A    between atoms: C_9  and  N_14
REMARK    6  A    between atoms: C_18  and  C_21
REMARK    7  A    between atoms: N_20  and  C_23
REMARK    8  A    between atoms: C_23  and  C_24
REMARK    9  A    between atoms: C_24  and  S_25
REMARK                            x       y       z     vdW  Elec       q    Type
REMARK                         _______ _______ _______ _____ _____    ______ ____
ROOT
ATOM      1  C   UNL     1     -37.583  25.168   3.811  0.00  0.00    -0.023 C 
ATOM      2  C   UNL     1     -38.009  25.915   2.771  0.00  0.00    -0.026 C 
ATOM      3  C   UNL     1     -37.091  26.744   1.910  0.00  0.00    +0.031 C 
ENDROOT
BRANCH   1   4
ATOM      4  C   UNL     1     -36.159  24.978   4.283  0.00  0.00    +0.084 C 
ATOM      5  C   UNL     1     -35.907  25.728   5.591  0.00  0.00    +0.013 C 
BRANCH   4   7
ATOM      6  O   UNL     1     -36.102  22.951   5.599  0.00  0.00    -0.291 OA
ATOM      7  C   UNL     1     -35.934  23.483   4.502  0.00  0.00    +0.177 C 
BRANCH   7   8
ATOM      8  C   UNL     1     -35.503  22.635   3.357  0.00  0.00    +0.035 C 
ATOM      9  C   UNL     1     -34.697  21.047   1.210  0.00  0.00    +0.048 C 
ATOM     10  C   UNL     1     -35.585  21.246   3.449  0.00  0.00    +0.004 C 
ATOM     11  C   UNL     1     -35.018  23.230   2.192  0.00  0.00    +0.004 C 
ATOM     12  C   UNL     1     -35.182  20.452   2.375  0.00  0.00    +0.015 C 
ATOM     13  C   UNL     1     -34.615  22.437   1.120  0.00  0.00    +0.015 C 
BRANCH   9  14
ATOM     14  N   UNL     1     -34.288  20.243   0.126  0.00  0.00    -0.304 N 
ATOM     15  C   UNL     1     -34.345  20.754  -1.230  0.00  0.00    +0.112 C 
ATOM     16  C   UNL     1     -33.801  18.898   0.353  0.00  0.00    +0.112 C 
ENDBRANCH   9  14
ENDBRANCH   7   8
ENDBRANCH   4   7
ENDBRANCH   1   4
BRANCH   2  17
ATOM     17  C   UNL     1     -39.441  25.944   2.465  0.00  0.00    +0.000 C 
ATOM     18  C   UNL     1     -40.170  24.927   1.978  0.00  0.00    +0.057 C 
BRANCH  18  21
ATOM     19  O   UNL     1     -42.255  24.386   0.949  0.00  0.00    -0.270 OA
ATOM     20  N   UNL     1     -42.150  26.171   2.434  0.00  0.00    -0.299 N 
ATOM     21  C   UNL     1     -41.626  25.108   1.716  0.00  0.00    +0.246 C 
ATOM     22  H   UNL     1     -41.549  26.684   3.021  0.00  0.00    +0.150 HD
BRANCH  20  23
ATOM     23  C   UNL     1     -43.540  26.560   2.356  0.00  0.00    +0.116 C 
BRANCH  23  24
ATOM     24  C   UNL     1     -43.975  27.374   3.559  0.00  0.00    +0.179 C 
BRANCH  24  25
ATOM     25  S   UNL     1     -42.805  28.627   3.981  0.00  0.00    +0.024 S 
ATOM     26  O   UNL     1     -42.505  29.157   2.468  0.00  0.00    -0.069 OA
ATOM     27  O   UNL     1     -41.606  27.995   4.501  0.00  0.00    -0.069 OA
ATOM     28  O   UNL     1     -43.489  29.676   4.716  0.00  0.00    -0.069 OA
ENDBRANCH  24  25
ENDBRANCH  23  24
ENDBRANCH  20  23
ENDBRANCH  18  21
ENDBRANCH   2  17
TORSDOF 9
ENDMDL
