MODEL 1
REMARK VINA RESULT:      -6.5      0.000      0.000
REMARK  Name = 56842819
REMARK  7 active torsions:
REMARK  status: ('A' for Active; 'I' for Inactive)
REMARK    1  A    between atoms: C_1  and  C_8
REMARK    2  A    between atoms: C_1  and  N_15
REMARK    3  A    between atoms: C_1  and  C_25
REMARK    4  A    between atoms: C_4  and  C_11
REMARK    5  A    between atoms: C_16  and  C_20
REMARK    6  A    between atoms: C_25  and  C_28
REMARK    7  A    between atoms: C_30  and  N_33
REMARK                            x       y       z     vdW  Elec       q    Type
REMARK                         _______ _______ _______ _____ _____    ______ ____
ROOT
ATOM      1  C   UNL     1     -34.306  25.920   4.205  0.00  0.00    +0.155 C 
ENDROOT
BRANCH   1   8
ATOM      2  O   UNL     1     -36.366  26.715   5.096  0.00  0.00    -0.273 OA
ATOM      3  N   UNL     1     -36.383  25.960   2.908  0.00  0.00    -0.272 N 
ATOM      4  C   UNL     1     -37.752  26.357   2.606  0.00  0.00    +0.152 C 
ATOM      5  C   UNL     1     -37.850  26.283   1.087  0.00  0.00    +0.031 C 
ATOM      6  C   UNL     1     -35.724  25.401   1.731  0.00  0.00    +0.094 C 
ATOM      7  C   UNL     1     -36.841  25.198   0.719  0.00  0.00    +0.024 C 
ATOM      8  C   UNL     1     -35.777  26.243   4.122  0.00  0.00    +0.244 C 
BRANCH   4  11
ATOM      9  O   UNL     1     -38.250  24.273   3.666  0.00  0.00    -0.274 OA
ATOM     10  N   UNL     1     -39.962  25.783   3.373  0.00  0.00    -0.327 N 
ATOM     11  C   UNL     1     -38.656  25.363   3.271  0.00  0.00    +0.237 C 
ATOM     12  H   UNL     1     -40.634  25.201   3.795  0.00  0.00    +0.145 HD
ATOM     13  H   UNL     1     -40.224  26.665   3.024  0.00  0.00    +0.145 HD
ENDBRANCH   4  11
ENDBRANCH   1   8
BRANCH   1  15
ATOM     14  O   UNL     1     -31.778  26.783   3.065  0.00  0.00    -0.273 OA
ATOM     15  N   UNL     1     -33.687  27.207   4.333  0.00  0.00    -0.297 N 
ATOM     16  C   UNL     1     -32.467  27.535   3.749  0.00  0.00    +0.241 C 
ATOM     17  H   UNL     1     -34.150  27.896   4.862  0.00  0.00    +0.150 HD
BRANCH  16  20
ATOM     18  O   UNL     1     -31.724  29.430   7.505  0.00  0.00    -0.275 OA
ATOM     19  N   UNL     1     -32.562  29.279   5.324  0.00  0.00    -0.298 N 
ATOM     20  C   UNL     1     -32.062  28.949   4.020  0.00  0.00    +0.149 C 
ATOM     21  C   UNL     1     -30.560  29.114   4.155  0.00  0.00    +0.039 C 
ATOM     22  C   UNL     1     -30.284  28.855   5.636  0.00  0.00    +0.087 C 
ATOM     23  C   UNL     1     -31.580  29.236   6.308  0.00  0.00    +0.223 C 
ATOM     24  H   UNL     1     -33.501  29.510   5.504  0.00  0.00    +0.150 HD
ENDBRANCH  16  20
ENDBRANCH   1  15
BRANCH   1  25
ATOM     25  C   UNL     1     -34.034  25.000   5.387  0.00  0.00    +0.071 C 
BRANCH  25  28
ATOM     26  N   UNL     1     -34.783  22.992   4.054  0.00  0.00    -0.306 N 
ATOM     27  N   UNL     1     -35.853  21.723   5.529  0.00  0.00    -0.302 N 
ATOM     28  C   UNL     1     -34.723  23.666   5.242  0.00  0.00    +0.040 C 
ATOM     29  C   UNL     1     -35.388  22.863   6.136  0.00  0.00    +0.070 C 
ATOM     30  C   UNL     1     -35.471  21.832   4.275  0.00  0.00    +0.242 C 
ATOM     31  H   UNL     1     -34.402  23.289   3.196  0.00  0.00    +0.149 HD
ATOM     32  H   UNL     1     -36.359  20.986   5.941  0.00  0.00    +0.150 HD
BRANCH  30  33
ATOM     33  N   UNL     1     -35.745  20.841   3.250  0.00  0.00    -0.073 NA
ATOM     34  N   UNL     1     -35.938  20.145   2.530  0.00  0.00    -0.017 NA
ENDBRANCH  30  33
ENDBRANCH  25  28
ENDBRANCH   1  25
TORSDOF 7
ENDMDL
MODEL 2
REMARK VINA RESULT:      -6.5      3.420      6.937
REMARK  Name = 56842819
REMARK  7 active torsions:
REMARK  status: ('A' for Active; 'I' for Inactive)
REMARK    1  A    between atoms: C_1  and  C_8
REMARK    2  A    between atoms: C_1  and  N_15
REMARK    3  A    between atoms: C_1  and  C_25
REMARK    4  A    between atoms: C_4  and  C_11
REMARK    5  A    between atoms: C_16  and  C_20
REMARK    6  A    between atoms: C_25  and  C_28
REMARK    7  A    between atoms: C_30  and  N_33
REMARK                            x       y       z     vdW  Elec       q    Type
REMARK                         _______ _______ _______ _____ _____    ______ ____
ROOT
ATOM      1  C   UNL     1     -37.596  24.387   3.137  0.00  0.00    +0.155 C 
ENDROOT
BRANCH   1   8
ATOM      2  O   UNL     1     -38.441  22.220   2.630  0.00  0.00    -0.273 OA
ATOM      3  N   UNL     1     -36.391  22.794   1.721  0.00  0.00    -0.272 N 
ATOM      4  C   UNL     1     -36.240  21.607   0.889  0.00  0.00    +0.152 C 
ATOM      5  C   UNL     1     -35.120  21.956  -0.084  0.00  0.00    +0.031 C 
ATOM      6  C   UNL     1     -35.288  23.728   1.512  0.00  0.00    +0.094 C 
ATOM      7  C   UNL     1     -34.265  22.947   0.702  0.00  0.00    +0.024 C 
ATOM      8  C   UNL     1     -37.529  23.034   2.476  0.00  0.00    +0.244 C 
BRANCH   4  11
ATOM      9  O   UNL     1     -34.692  20.273   2.129  0.00  0.00    -0.274 OA
ATOM     10  N   UNL     1     -36.919  19.700   2.193  0.00  0.00    -0.327 N 
ATOM     11  C   UNL     1     -35.857  20.477   1.796  0.00  0.00    +0.237 C 
ATOM     12  H   UNL     1     -36.771  18.932   2.791  0.00  0.00    +0.145 HD
ATOM     13  H   UNL     1     -37.828  19.911   1.880  0.00  0.00    +0.145 HD
ENDBRANCH   4  11
ENDBRANCH   1   8
BRANCH   1  15
ATOM     14  O   UNL     1     -39.197  26.548   2.041  0.00  0.00    -0.273 OA
ATOM     15  N   UNL     1     -39.003  24.605   3.313  0.00  0.00    -0.297 N 
ATOM     16  C   UNL     1     -39.691  25.674   2.747  0.00  0.00    +0.241 C 
ATOM     17  H   UNL     1     -39.508  23.964   3.863  0.00  0.00    +0.150 HD
BRANCH  16  20
ATOM     18  O   UNL     1     -42.072  28.708   4.585  0.00  0.00    -0.275 OA
ATOM     19  N   UNL     1     -41.340  26.518   4.196  0.00  0.00    -0.298 N 
ATOM     20  C   UNL     1     -41.151  25.650   3.068  0.00  0.00    +0.149 C 
ATOM     21  C   UNL     1     -42.002  26.280   1.981  0.00  0.00    +0.039 C 
ATOM     22  C   UNL     1     -42.045  27.764   2.347  0.00  0.00    +0.087 C 
ATOM     23  C   UNL     1     -41.850  27.763   3.843  0.00  0.00    +0.223 C 
ATOM     24  H   UNL     1     -41.130  26.260   5.122  0.00  0.00    +0.150 HD
ENDBRANCH  16  20
ENDBRANCH   1  15
BRANCH   1  25
ATOM     25  C   UNL     1     -36.820  24.372   4.447  0.00  0.00    +0.071 C 
BRANCH  25  28
ATOM     26  N   UNL     1     -34.810  25.513   5.462  0.00  0.00    -0.306 N 
ATOM     27  N   UNL     1     -34.508  27.315   4.200  0.00  0.00    -0.302 N 
ATOM     28  C   UNL     1     -35.794  25.476   4.514  0.00  0.00    +0.040 C 
ATOM     29  C   UNL     1     -35.586  26.597   3.747  0.00  0.00    +0.070 C 
ATOM     30  C   UNL     1     -34.063  26.635   5.234  0.00  0.00    +0.242 C 
ATOM     31  H   UNL     1     -34.667  24.853   6.178  0.00  0.00    +0.149 HD
ATOM     32  H   UNL     1     -34.146  28.154   3.832  0.00  0.00    +0.150 HD
BRANCH  30  33
ATOM     33  N   UNL     1     -32.917  27.025   6.036  0.00  0.00    -0.073 NA
ATOM     34  N   UNL     1     -32.112  27.298   6.598  0.00  0.00    -0.017 NA
ENDBRANCH  30  33
ENDBRANCH  25  28
ENDBRANCH   1  25
TORSDOF 7
ENDMDL
MODEL 3
REMARK VINA RESULT:      -6.5      3.359      7.081
REMARK  Name = 56842819
REMARK  7 active torsions:
REMARK  status: ('A' for Active; 'I' for Inactive)
REMARK    1  A    between atoms: C_1  and  C_8
REMARK    2  A    between atoms: C_1  and  N_15
REMARK    3  A    between atoms: C_1  and  C_25
REMARK    4  A    between atoms: C_4  and  C_11
REMARK    5  A    between atoms: C_16  and  C_20
REMARK    6  A    between atoms: C_25  and  C_28
REMARK    7  A    between atoms: C_30  and  N_33
REMARK                            x       y       z     vdW  Elec       q    Type
REMARK                         _______ _______ _______ _____ _____    ______ ____
ROOT
ATOM      1  C   UNL     1     -36.024  22.652   3.126  0.00  0.00    +0.155 C 
ENDROOT
BRANCH   1   8
ATOM      2  O   UNL     1     -35.917  20.278   3.279  0.00  0.00    -0.273 OA
ATOM      3  N   UNL     1     -35.581  21.217   1.191  0.00  0.00    -0.272 N 
ATOM      4  C   UNL     1     -35.539  19.964   0.450  0.00  0.00    +0.152 C 
ATOM      5  C   UNL     1     -35.694  20.372  -1.010  0.00  0.00    +0.031 C 
ATOM      6  C   UNL     1     -35.484  22.364   0.293  0.00  0.00    +0.094 C 
ATOM      7  C   UNL     1     -35.092  21.773  -1.053  0.00  0.00    +0.024 C 
ATOM      8  C   UNL     1     -35.842  21.269   2.552  0.00  0.00    +0.244 C 
BRANCH   4  11
ATOM      9  O   UNL     1     -33.199  20.015   0.936  0.00  0.00    -0.274 OA
ATOM     10  N   UNL     1     -34.211  17.966   0.664  0.00  0.00    -0.327 N 
ATOM     11  C   UNL     1     -34.202  19.340   0.714  0.00  0.00    +0.237 C 
ATOM     12  H   UNL     1     -33.380  17.462   0.824  0.00  0.00    +0.145 HD
ATOM     13  H   UNL     1     -35.048  17.486   0.468  0.00  0.00    +0.145 HD
ENDBRANCH   4  11
ENDBRANCH   1   8
BRANCH   1  15
ATOM     14  O   UNL     1     -37.640  24.727   1.896  0.00  0.00    -0.273 OA
ATOM     15  N   UNL     1     -37.449  22.801   3.194  0.00  0.00    -0.297 N 
ATOM     16  C   UNL     1     -38.144  23.833   2.570  0.00  0.00    +0.241 C 
ATOM     17  H   UNL     1     -37.963  22.139   3.709  0.00  0.00    +0.150 HD
BRANCH  16  20
ATOM     18  O   UNL     1     -40.906  26.943   3.546  0.00  0.00    -0.275 OA
ATOM     19  N   UNL     1     -39.977  24.798   3.683  0.00  0.00    -0.298 N 
ATOM     20  C   UNL     1     -39.621  23.740   2.780  0.00  0.00    +0.149 C 
ATOM     21  C   UNL     1     -40.414  24.052   1.525  0.00  0.00    +0.039 C 
ATOM     22  C   UNL     1     -40.603  25.569   1.566  0.00  0.00    +0.087 C 
ATOM     23  C   UNL     1     -40.546  25.891   3.039  0.00  0.00    +0.223 C 
ATOM     24  H   UNL     1     -39.833  24.754   4.655  0.00  0.00    +0.150 HD
ENDBRANCH  16  20
ENDBRANCH   1  15
BRANCH   1  25
ATOM     25  C   UNL     1     -35.343  22.752   4.484  0.00  0.00    +0.071 C 
BRANCH  25  28
ATOM     26  N   UNL     1     -33.973  24.792   5.062  0.00  0.00    -0.306 N 
ATOM     27  N   UNL     1     -35.477  26.315   5.649  0.00  0.00    -0.302 N 
ATOM     28  C   UNL     1     -35.190  24.183   4.939  0.00  0.00    +0.040 C 
ATOM     29  C   UNL     1     -36.102  25.142   5.305  0.00  0.00    +0.070 C 
ATOM     30  C   UNL     1     -34.195  26.071   5.491  0.00  0.00    +0.242 C 
ATOM     31  H   UNL     1     -33.096  24.384   4.877  0.00  0.00    +0.149 HD
ATOM     32  H   UNL     1     -35.897  27.155   5.946  0.00  0.00    +0.150 HD
BRANCH  30  33
ATOM     33  N   UNL     1     -33.143  27.040   5.740  0.00  0.00    -0.073 NA
ATOM     34  N   UNL     1     -32.405  27.720   5.915  0.00  0.00    -0.017 NA
ENDBRANCH  30  33
ENDBRANCH  25  28
ENDBRANCH   1  25
TORSDOF 7
ENDMDL
MODEL 4
REMARK VINA RESULT:      -6.5      3.509      7.711
REMARK  Name = 56842819
REMARK  7 active torsions:
REMARK  status: ('A' for Active; 'I' for Inactive)
REMARK    1  A    between atoms: C_1  and  C_8
REMARK    2  A    between atoms: C_1  and  N_15
REMARK    3  A    between atoms: C_1  and  C_25
REMARK    4  A    between atoms: C_4  and  C_11
REMARK    5  A    between atoms: C_16  and  C_20
REMARK    6  A    between atoms: C_25  and  C_28
REMARK    7  A    between atoms: C_30  and  N_33
REMARK                            x       y       z     vdW  Elec       q    Type
REMARK                         _______ _______ _______ _____ _____    ______ ____
ROOT
ATOM      1  C   UNL     1     -36.024  22.525   3.179  0.00  0.00    +0.155 C 
ENDROOT
BRANCH   1   8
ATOM      2  O   UNL     1     -35.323  20.258   3.372  0.00  0.00    -0.273 OA
ATOM      3  N   UNL     1     -35.194  21.228   1.275  0.00  0.00    -0.272 N 
ATOM      4  C   UNL     1     -34.820  20.018   0.554  0.00  0.00    +0.152 C 
ATOM      5  C   UNL     1     -35.044  20.358  -0.914  0.00  0.00    +0.031 C 
ATOM      6  C   UNL     1     -35.371  22.353   0.360  0.00  0.00    +0.094 C 
ATOM      7  C   UNL     1     -34.814  21.865  -0.969  0.00  0.00    +0.024 C 
ATOM      8  C   UNL     1     -35.487  21.228   2.630  0.00  0.00    +0.244 C 
BRANCH   4  11
ATOM      9  O   UNL     1     -32.480  20.491   0.438  0.00  0.00    -0.274 OA
ATOM     10  N   UNL     1     -33.158  18.624   1.599  0.00  0.00    -0.327 N 
ATOM     11  C   UNL     1     -33.375  19.756   0.851  0.00  0.00    +0.237 C 
ATOM     12  H   UNL     1     -32.241  18.365   1.847  0.00  0.00    +0.145 HD
ATOM     13  H   UNL     1     -33.920  18.071   1.888  0.00  0.00    +0.145 HD
ENDBRANCH   4  11
ENDBRANCH   1   8
BRANCH   1  15
ATOM     14  O   UNL     1     -37.856  24.474   2.047  0.00  0.00    -0.273 OA
ATOM     15  N   UNL     1     -37.444  22.395   3.016  0.00  0.00    -0.297 N 
ATOM     16  C   UNL     1     -38.247  23.386   2.460  0.00  0.00    +0.241 C 
ATOM     17  H   UNL     1     -37.872  21.561   3.314  0.00  0.00    +0.150 HD
BRANCH  16  20
ATOM     18  O   UNL     1     -40.852  23.397  -0.926  0.00  0.00    -0.275 OA
ATOM     19  N   UNL     1     -40.270  23.742   1.316  0.00  0.00    -0.298 N 
ATOM     20  C   UNL     1     -39.685  22.985   2.386  0.00  0.00    +0.149 C 
ATOM     21  C   UNL     1     -39.870  21.543   1.952  0.00  0.00    +0.039 C 
ATOM     22  C   UNL     1     -39.912  21.611   0.425  0.00  0.00    +0.087 C 
ATOM     23  C   UNL     1     -40.423  23.003   0.148  0.00  0.00    +0.223 C 
ATOM     24  H   UNL     1     -40.536  24.686   1.400  0.00  0.00    +0.150 HD
ENDBRANCH  16  20
ENDBRANCH   1  15
BRANCH   1  25
ATOM     25  C   UNL     1     -35.598  22.700   4.630  0.00  0.00    +0.071 C 
BRANCH  25  28
ATOM     26  N   UNL     1     -34.166  24.687   5.239  0.00  0.00    -0.306 N 
ATOM     27  N   UNL     1     -35.615  26.351   5.493  0.00  0.00    -0.302 N 
ATOM     28  C   UNL     1     -35.398  24.151   4.993  0.00  0.00    +0.040 C 
ATOM     29  C   UNL     1     -36.276  25.196   5.155  0.00  0.00    +0.070 C 
ATOM     30  C   UNL     1     -34.345  26.010   5.535  0.00  0.00    +0.242 C 
ATOM     31  H   UNL     1     -33.306  24.209   5.209  0.00  0.00    +0.149 HD
ATOM     32  H   UNL     1     -36.005  27.238   5.664  0.00  0.00    +0.150 HD
BRANCH  30  33
ATOM     33  N   UNL     1     -33.265  26.926   5.855  0.00  0.00    -0.073 NA
ATOM     34  N   UNL     1     -32.506  27.568   6.080  0.00  0.00    -0.017 NA
ENDBRANCH  30  33
ENDBRANCH  25  28
ENDBRANCH   1  25
TORSDOF 7
ENDMDL
MODEL 5
REMARK VINA RESULT:      -6.4      3.447      7.461
REMARK  Name = 56842819
REMARK  7 active torsions:
REMARK  status: ('A' for Active; 'I' for Inactive)
REMARK    1  A    between atoms: C_1  and  C_8
REMARK    2  A    between atoms: C_1  and  N_15
REMARK    3  A    between atoms: C_1  and  C_25
REMARK    4  A    between atoms: C_4  and  C_11
REMARK    5  A    between atoms: C_16  and  C_20
REMARK    6  A    between atoms: C_25  and  C_28
REMARK    7  A    between atoms: C_30  and  N_33
REMARK                            x       y       z     vdW  Elec       q    Type
REMARK                         _______ _______ _______ _____ _____    ______ ____
ROOT
ATOM      1  C   UNL     1     -38.479  25.396   2.779  0.00  0.00    +0.155 C 
ENDROOT
BRANCH   1   8
ATOM      2  O   UNL     1     -37.506  23.287   2.254  0.00  0.00    -0.273 OA
ATOM      3  N   UNL     1     -36.448  24.566   3.867  0.00  0.00    -0.272 N 
ATOM      4  C   UNL     1     -35.283  23.705   4.023  0.00  0.00    +0.152 C 
ATOM      5  C   UNL     1     -34.271  24.558   4.780  0.00  0.00    +0.031 C 
ATOM      6  C   UNL     1     -36.330  25.768   4.688  0.00  0.00    +0.094 C 
ATOM      7  C   UNL     1     -35.145  25.499   5.604  0.00  0.00    +0.024 C 
ATOM      8  C   UNL     1     -37.439  24.315   2.930  0.00  0.00    +0.244 C 
BRANCH   4  11
ATOM      9  O   UNL     1     -35.996  22.599   6.019  0.00  0.00    -0.274 OA
ATOM     10  N   UNL     1     -35.754  21.345   4.105  0.00  0.00    -0.327 N 
ATOM     11  C   UNL     1     -35.718  22.515   4.825  0.00  0.00    +0.237 C 
ATOM     12  H   UNL     1     -36.027  20.506   4.543  0.00  0.00    +0.145 HD
ATOM     13  H   UNL     1     -35.506  21.345   3.152  0.00  0.00    +0.145 HD
ENDBRANCH   4  11
ENDBRANCH   1   8
BRANCH   1  15
ATOM     14  O   UNL     1     -37.014  27.715   1.827  0.00  0.00    -0.273 OA
ATOM     15  N   UNL     1     -38.319  25.828   1.421  0.00  0.00    -0.297 N 
ATOM     16  C   UNL     1     -37.596  26.959   1.054  0.00  0.00    +0.241 C 
ATOM     17  H   UNL     1     -38.744  25.297   0.710  0.00  0.00    +0.150 HD
BRANCH  16  20
ATOM     18  O   UNL     1     -40.878  27.366  -1.650  0.00  0.00    -0.275 OA
ATOM     19  N   UNL     1     -38.780  26.602  -0.946  0.00  0.00    -0.298 N 
ATOM     20  C   UNL     1     -37.567  27.168  -0.426  0.00  0.00    +0.149 C 
ATOM     21  C   UNL     1     -37.656  28.632  -0.814  0.00  0.00    +0.039 C 
ATOM     22  C   UNL     1     -39.157  28.909  -0.903  0.00  0.00    +0.087 C 
ATOM     23  C   UNL     1     -39.745  27.560  -1.236  0.00  0.00    +0.223 C 
ATOM     24  H   UNL     1     -38.914  25.637  -1.082  0.00  0.00    +0.150 HD
ENDBRANCH  16  20
ENDBRANCH   1  15
BRANCH   1  25
ATOM     25  C   UNL     1     -39.865  24.839   3.074  0.00  0.00    +0.071 C 
BRANCH  25  28
ATOM     26  N   UNL     1     -40.999  26.854   4.086  0.00  0.00    -0.306 N 
ATOM     27  N   UNL     1     -42.658  27.312   2.683  0.00  0.00    -0.302 N 
ATOM     28  C   UNL     1     -40.920  25.917   3.095  0.00  0.00    +0.040 C 
ATOM     29  C   UNL     1     -41.953  26.221   2.241  0.00  0.00    +0.070 C 
ATOM     30  C   UNL     1     -42.057  27.670   3.797  0.00  0.00    +0.242 C 
ATOM     31  H   UNL     1     -40.403  26.928   4.866  0.00  0.00    +0.149 HD
ATOM     32  H   UNL     1     -43.440  27.734   2.260  0.00  0.00    +0.150 HD
BRANCH  30  33
ATOM     33  N   UNL     1     -42.466  28.794   4.619  0.00  0.00    -0.073 NA
ATOM     34  N   UNL     1     -42.753  29.583   5.197  0.00  0.00    -0.017 NA
ENDBRANCH  30  33
ENDBRANCH  25  28
ENDBRANCH   1  25
TORSDOF 7
ENDMDL
MODEL 6
REMARK VINA RESULT:      -6.4      3.440      6.968
REMARK  Name = 56842819
REMARK  7 active torsions:
REMARK  status: ('A' for Active; 'I' for Inactive)
REMARK    1  A    between atoms: C_1  and  C_8
REMARK    2  A    between atoms: C_1  and  N_15
REMARK    3  A    between atoms: C_1  and  C_25
REMARK    4  A    between atoms: C_4  and  C_11
REMARK    5  A    between atoms: C_16  and  C_20
REMARK    6  A    between atoms: C_25  and  C_28
REMARK    7  A    between atoms: C_30  and  N_33
REMARK                            x       y       z     vdW  Elec       q    Type
REMARK                         _______ _______ _______ _____ _____    ______ ____
ROOT
ATOM      1  C   UNL     1     -38.428  25.279   2.696  0.00  0.00    +0.155 C 
ENDROOT
BRANCH   1   8
ATOM      2  O   UNL     1     -37.417  23.163   2.286  0.00  0.00    -0.273 OA
ATOM      3  N   UNL     1     -36.410  24.526   3.862  0.00  0.00    -0.272 N 
ATOM      4  C   UNL     1     -35.238  23.689   4.081  0.00  0.00    +0.152 C 
ATOM      5  C   UNL     1     -34.253  24.588   4.819  0.00  0.00    +0.031 C 
ATOM      6  C   UNL     1     -36.324  25.764   4.631  0.00  0.00    +0.094 C 
ATOM      7  C   UNL     1     -35.156  25.553   5.582  0.00  0.00    +0.024 C 
ATOM      8  C   UNL     1     -37.377  24.220   2.917  0.00  0.00    +0.244 C 
BRANCH   4  11
ATOM      9  O   UNL     1     -35.978  22.663   6.108  0.00  0.00    -0.274 OA
ATOM     10  N   UNL     1     -35.680  21.328   4.258  0.00  0.00    -0.327 N 
ATOM     11  C   UNL     1     -35.674  22.530   4.925  0.00  0.00    +0.237 C 
ATOM     12  H   UNL     1     -35.952  20.506   4.726  0.00  0.00    +0.145 HD
ATOM     13  H   UNL     1     -35.412  21.290   3.311  0.00  0.00    +0.145 HD
ENDBRANCH   4  11
ENDBRANCH   1   8
BRANCH   1  15
ATOM     14  O   UNL     1     -37.201  27.722   1.715  0.00  0.00    -0.273 OA
ATOM     15  N   UNL     1     -38.231  25.668   1.330  0.00  0.00    -0.297 N 
ATOM     16  C   UNL     1     -37.631  26.864   0.949  0.00  0.00    +0.241 C 
ATOM     17  H   UNL     1     -38.537  25.055   0.623  0.00  0.00    +0.150 HD
BRANCH  16  20
ATOM     18  O   UNL     1     -34.152  27.541  -1.436  0.00  0.00    -0.275 OA
ATOM     19  N   UNL     1     -36.383  27.835  -0.791  0.00  0.00    -0.298 N 
ATOM     20  C   UNL     1     -37.528  27.008  -0.535  0.00  0.00    +0.149 C 
ATOM     21  C   UNL     1     -37.194  25.702  -1.231  0.00  0.00    +0.039 C 
ATOM     22  C   UNL     1     -35.666  25.653  -1.228  0.00  0.00    +0.087 C 
ATOM     23  C   UNL     1     -35.268  27.108  -1.192  0.00  0.00    +0.223 C 
ATOM     24  H   UNL     1     -36.388  28.815  -0.694  0.00  0.00    +0.150 HD
ENDBRANCH  16  20
ENDBRANCH   1  15
BRANCH   1  25
ATOM     25  C   UNL     1     -39.814  24.711   2.968  0.00  0.00    +0.071 C 
BRANCH  25  28
ATOM     26  N   UNL     1     -40.901  26.745   3.994  0.00  0.00    -0.306 N 
ATOM     27  N   UNL     1     -42.632  27.168   2.669  0.00  0.00    -0.302 N 
ATOM     28  C   UNL     1     -40.870  25.787   3.020  0.00  0.00    +0.040 C 
ATOM     29  C   UNL     1     -41.947  26.069   2.214  0.00  0.00    +0.070 C 
ATOM     30  C   UNL     1     -41.976  27.551   3.742  0.00  0.00    +0.242 C 
ATOM     31  H   UNL     1     -40.266  26.837   4.740  0.00  0.00    +0.149 HD
ATOM     32  H   UNL     1     -43.436  27.580   2.277  0.00  0.00    +0.150 HD
BRANCH  30  33
ATOM     33  N   UNL     1     -42.346  28.692   4.561  0.00  0.00    -0.073 NA
ATOM     34  N   UNL     1     -42.605  29.494   5.135  0.00  0.00    -0.017 NA
ENDBRANCH  30  33
ENDBRANCH  25  28
ENDBRANCH   1  25
TORSDOF 7
ENDMDL
MODEL 7
REMARK VINA RESULT:      -6.2      4.222      6.469
REMARK  Name = 56842819
REMARK  7 active torsions:
REMARK  status: ('A' for Active; 'I' for Inactive)
REMARK    1  A    between atoms: C_1  and  C_8
REMARK    2  A    between atoms: C_1  and  N_15
REMARK    3  A    between atoms: C_1  and  C_25
REMARK    4  A    between atoms: C_4  and  C_11
REMARK    5  A    between atoms: C_16  and  C_20
REMARK    6  A    between atoms: C_25  and  C_28
REMARK    7  A    between atoms: C_30  and  N_33
REMARK                            x       y       z     vdW  Elec       q    Type
REMARK                         _______ _______ _______ _____ _____    ______ ____
ROOT
ATOM      1  C   UNL     1     -35.653  22.408   1.540  0.00  0.00    +0.155 C 
ENDROOT
BRANCH   1   8
ATOM      2  O   UNL     1     -34.340  22.919  -0.380  0.00  0.00    -0.273 OA
ATOM      3  N   UNL     1     -33.950  20.886   0.655  0.00  0.00    -0.272 N 
ATOM      4  C   UNL     1     -32.794  20.510  -0.147  0.00  0.00    +0.152 C 
ATOM      5  C   UNL     1     -32.150  19.360   0.618  0.00  0.00    +0.031 C 
ATOM      6  C   UNL     1     -34.213  19.897   1.698  0.00  0.00    +0.094 C 
ATOM      7  C   UNL     1     -33.326  18.713   1.344  0.00  0.00    +0.024 C 
ATOM      8  C   UNL     1     -34.589  22.109   0.514  0.00  0.00    +0.244 C 
BRANCH   4  11
ATOM      9  O   UNL     1     -33.882  18.993  -1.640  0.00  0.00    -0.274 OA
ATOM     10  N   UNL     1     -33.063  20.965  -2.497  0.00  0.00    -0.327 N 
ATOM     11  C   UNL     1     -33.309  20.069  -1.484  0.00  0.00    +0.237 C 
ATOM     12  H   UNL     1     -33.362  20.767  -3.414  0.00  0.00    +0.145 HD
ATOM     13  H   UNL     1     -32.586  21.806  -2.305  0.00  0.00    +0.145 HD
ENDBRANCH   4  11
ENDBRANCH   1   8
BRANCH   1  15
ATOM     14  O   UNL     1     -36.227  22.661   4.375  0.00  0.00    -0.273 OA
ATOM     15  N   UNL     1     -34.974  23.234   2.496  0.00  0.00    -0.297 N 
ATOM     16  C   UNL     1     -35.319  23.294   3.843  0.00  0.00    +0.241 C 
ATOM     17  H   UNL     1     -34.225  23.789   2.182  0.00  0.00    +0.150 HD
BRANCH  16  20
ATOM     18  O   UNL     1     -35.089  27.556   3.671  0.00  0.00    -0.275 OA
ATOM     19  N   UNL     1     -34.235  25.380   3.808  0.00  0.00    -0.298 N 
ATOM     20  C   UNL     1     -34.436  24.214   4.622  0.00  0.00    +0.149 C 
ATOM     21  C   UNL     1     -35.107  24.755   5.870  0.00  0.00    +0.039 C 
ATOM     22  C   UNL     1     -35.833  26.014   5.393  0.00  0.00    +0.087 C 
ATOM     23  C   UNL     1     -35.022  26.457   4.201  0.00  0.00    +0.223 C 
ATOM     24  H   UNL     1     -33.607  25.413   3.051  0.00  0.00    +0.150 HD
ENDBRANCH  16  20
ENDBRANCH   1  15
BRANCH   1  25
ATOM     25  C   UNL     1     -36.840  23.098   0.882  0.00  0.00    +0.071 C 
BRANCH  25  28
ATOM     26  N   UNL     1     -39.015  22.027   0.180  0.00  0.00    -0.306 N 
ATOM     27  N   UNL     1     -39.935  21.355   2.084  0.00  0.00    -0.302 N 
ATOM     28  C   UNL     1     -38.141  22.388   1.166  0.00  0.00    +0.040 C 
ATOM     29  C   UNL     1     -38.730  21.962   2.331  0.00  0.00    +0.070 C 
ATOM     30  C   UNL     1     -40.077  21.410   0.778  0.00  0.00    +0.242 C 
ATOM     31  H   UNL     1     -38.900  22.183  -0.786  0.00  0.00    +0.149 HD
ATOM     32  H   UNL     1     -40.557  20.963   2.740  0.00  0.00    +0.150 HD
BRANCH  30  33
ATOM     33  N   UNL     1     -41.221  20.879   0.058  0.00  0.00    -0.073 NA
ATOM     34  N   UNL     1     -42.024  20.507  -0.446  0.00  0.00    -0.017 NA
ENDBRANCH  30  33
ENDBRANCH  25  28
ENDBRANCH   1  25
TORSDOF 7
ENDMDL
MODEL 8
REMARK VINA RESULT:      -6.2      2.059      2.781
REMARK  Name = 56842819
REMARK  7 active torsions:
REMARK  status: ('A' for Active; 'I' for Inactive)
REMARK    1  A    between atoms: C_1  and  C_8
REMARK    2  A    between atoms: C_1  and  N_15
REMARK    3  A    between atoms: C_1  and  C_25
REMARK    4  A    between atoms: C_4  and  C_11
REMARK    5  A    between atoms: C_16  and  C_20
REMARK    6  A    between atoms: C_25  and  C_28
REMARK    7  A    between atoms: C_30  and  N_33
REMARK                            x       y       z     vdW  Elec       q    Type
REMARK                         _______ _______ _______ _____ _____    ______ ____
ROOT
ATOM      1  C   UNL     1     -33.572  26.721   4.776  0.00  0.00    +0.155 C 
ENDROOT
BRANCH   1   8
ATOM      2  O   UNL     1     -35.195  27.984   3.577  0.00  0.00    -0.273 OA
ATOM      3  N   UNL     1     -33.858  26.549   2.350  0.00  0.00    -0.272 N 
ATOM      4  C   UNL     1     -34.328  26.966   1.036  0.00  0.00    +0.152 C 
ATOM      5  C   UNL     1     -33.302  26.401   0.061  0.00  0.00    +0.031 C 
ATOM      6  C   UNL     1     -32.788  25.562   2.238  0.00  0.00    +0.094 C 
ATOM      7  C   UNL     1     -32.785  25.154   0.773  0.00  0.00    +0.024 C 
ATOM      8  C   UNL     1     -34.288  27.154   3.521  0.00  0.00    +0.244 C 
BRANCH   4  11
ATOM      9  O   UNL     1     -35.970  25.248   1.285  0.00  0.00    -0.274 OA
ATOM     10  N   UNL     1     -36.540  27.136   0.099  0.00  0.00    -0.327 N 
ATOM     11  C   UNL     1     -35.682  26.355   0.836  0.00  0.00    +0.237 C 
ATOM     12  H   UNL     1     -37.454  26.822  -0.088  0.00  0.00    +0.145 HD
ATOM     13  H   UNL     1     -36.240  28.009  -0.243  0.00  0.00    +0.145 HD
ENDBRANCH   4  11
ENDBRANCH   1   8
BRANCH   1  15
ATOM     14  O   UNL     1     -31.537  27.036   6.824  0.00  0.00    -0.273 OA
ATOM     15  N   UNL     1     -33.049  27.948   5.304  0.00  0.00    -0.297 N 
ATOM     16  C   UNL     1     -32.069  28.005   6.290  0.00  0.00    +0.241 C 
ATOM     17  H   UNL     1     -33.403  28.796   4.949  0.00  0.00    +0.150 HD
BRANCH  16  20
ATOM     18  O   UNL     1     -28.173  29.746   6.485  0.00  0.00    -0.275 OA
ATOM     19  N   UNL     1     -30.367  29.349   7.199  0.00  0.00    -0.298 N 
ATOM     20  C   UNL     1     -31.688  29.408   6.640  0.00  0.00    +0.149 C 
ATOM     21  C   UNL     1     -31.526  30.295   5.420  0.00  0.00    +0.039 C 
ATOM     22  C   UNL     1     -30.066  30.105   5.007  0.00  0.00    +0.087 C 
ATOM     23  C   UNL     1     -29.380  29.736   6.299  0.00  0.00    +0.223 C 
ATOM     24  H   UNL     1     -30.180  29.065   8.122  0.00  0.00    +0.150 HD
ENDBRANCH  16  20
ENDBRANCH   1  15
BRANCH   1  25
ATOM     25  C   UNL     1     -34.541  26.023   5.721  0.00  0.00    +0.071 C 
BRANCH  25  28
ATOM     26  N   UNL     1     -34.766  23.725   4.703  0.00  0.00    -0.306 N 
ATOM     27  N   UNL     1     -36.877  23.630   4.024  0.00  0.00    -0.302 N 
ATOM     28  C   UNL     1     -35.319  24.930   5.032  0.00  0.00    +0.040 C 
ATOM     29  C   UNL     1     -36.622  24.847   4.605  0.00  0.00    +0.070 C 
ATOM     30  C   UNL     1     -35.738  22.977   4.100  0.00  0.00    +0.242 C 
ATOM     31  H   UNL     1     -33.836  23.446   4.869  0.00  0.00    +0.149 HD
ATOM     32  H   UNL     1     -37.726  23.314   3.637  0.00  0.00    +0.150 HD
BRANCH  30  33
ATOM     33  N   UNL     1     -35.537  21.627   3.604  0.00  0.00    -0.073 NA
ATOM     34  N   UNL     1     -35.396  20.680   3.256  0.00  0.00    -0.017 NA
ENDBRANCH  30  33
ENDBRANCH  25  28
ENDBRANCH   1  25
TORSDOF 7
ENDMDL
MODEL 9
REMARK VINA RESULT:      -6.2      2.965      5.818
REMARK  Name = 56842819
REMARK  7 active torsions:
REMARK  status: ('A' for Active; 'I' for Inactive)
REMARK    1  A    between atoms: C_1  and  C_8
REMARK    2  A    between atoms: C_1  and  N_15
REMARK    3  A    between atoms: C_1  and  C_25
REMARK    4  A    between atoms: C_4  and  C_11
REMARK    5  A    between atoms: C_16  and  C_20
REMARK    6  A    between atoms: C_25  and  C_28
REMARK    7  A    between atoms: C_30  and  N_33
REMARK                            x       y       z     vdW  Elec       q    Type
REMARK                         _______ _______ _______ _____ _____    ______ ____
ROOT
ATOM      1  C   UNL     1     -36.671  22.936   2.866  0.00  0.00    +0.155 C 
ENDROOT
BRANCH   1   8
ATOM      2  O   UNL     1     -35.863  23.840   0.817  0.00  0.00    -0.273 OA
ATOM      3  N   UNL     1     -35.150  21.713   1.386  0.00  0.00    -0.272 N 
ATOM      4  C   UNL     1     -34.195  21.561   0.296  0.00  0.00    +0.152 C 
ATOM      5  C   UNL     1     -33.338  20.367   0.697  0.00  0.00    +0.031 C 
ATOM      6  C   UNL     1     -35.118  20.559   2.280  0.00  0.00    +0.094 C 
ATOM      7  C   UNL     1     -34.283  19.521   1.546  0.00  0.00    +0.024 C 
ATOM      8  C   UNL     1     -35.860  22.886   1.596  0.00  0.00    +0.244 C 
BRANCH   4  11
ATOM      9  O   UNL     1     -35.517  20.200  -1.157  0.00  0.00    -0.274 OA
ATOM     10  N   UNL     1     -35.033  22.350  -1.820  0.00  0.00    -0.327 N 
ATOM     11  C   UNL     1     -34.984  21.288  -0.948  0.00  0.00    +0.237 C 
ATOM     12  H   UNL     1     -35.528  22.270  -2.667  0.00  0.00    +0.145 HD
ATOM     13  H   UNL     1     -34.573  23.191  -1.596  0.00  0.00    +0.145 HD
ENDBRANCH   4  11
ENDBRANCH   1   8
BRANCH   1  15
ATOM     14  O   UNL     1     -36.036  23.763   5.576  0.00  0.00    -0.273 OA
ATOM     15  N   UNL     1     -36.464  24.273   3.343  0.00  0.00    -0.297 N 
ATOM     16  C   UNL     1     -36.162  24.578   4.667  0.00  0.00    +0.241 C 
ATOM     17  H   UNL     1     -36.540  25.014   2.700  0.00  0.00    +0.150 HD
BRANCH  16  20
ATOM     18  O   UNL     1     -32.704  26.640   6.096  0.00  0.00    -0.275 OA
ATOM     19  N   UNL     1     -34.995  26.181   5.930  0.00  0.00    -0.298 N 
ATOM     20  C   UNL     1     -35.973  26.044   4.889  0.00  0.00    +0.149 C 
ATOM     21  C   UNL     1     -35.337  26.741   3.700  0.00  0.00    +0.039 C 
ATOM     22  C   UNL     1     -33.834  26.610   3.946  0.00  0.00    +0.087 C 
ATOM     23  C   UNL     1     -33.731  26.503   5.447  0.00  0.00    +0.223 C 
ATOM     24  H   UNL     1     -35.197  26.060   6.885  0.00  0.00    +0.150 HD
ENDBRANCH  16  20
ENDBRANCH   1  15
BRANCH   1  25
ATOM     25  C   UNL     1     -38.131  22.620   2.572  0.00  0.00    +0.071 C 
BRANCH  25  28
ATOM     26  N   UNL     1     -39.572  24.566   3.286  0.00  0.00    -0.306 N 
ATOM     27  N   UNL     1     -40.011  25.645   1.396  0.00  0.00    -0.302 N 
ATOM     28  C   UNL     1     -38.939  23.865   2.299  0.00  0.00    +0.040 C 
ATOM     29  C   UNL     1     -39.223  24.550   1.142  0.00  0.00    +0.070 C 
ATOM     30  C   UNL     1     -40.203  25.626   2.697  0.00  0.00    +0.242 C 
ATOM     31  H   UNL     1     -39.574  24.347   4.246  0.00  0.00    +0.149 HD
ATOM     32  H   UNL     1     -40.356  26.301   0.748  0.00  0.00    +0.150 HD
BRANCH  30  33
ATOM     33  N   UNL     1     -40.987  26.610   3.421  0.00  0.00    -0.073 NA
ATOM     34  N   UNL     1     -41.538  27.300   3.930  0.00  0.00    -0.017 NA
ENDBRANCH  30  33
ENDBRANCH  25  28
ENDBRANCH   1  25
TORSDOF 7
ENDMDL
