MODEL 1
REMARK VINA RESULT:      -6.5      0.000      0.000
REMARK  Name = 5941457
REMARK  9 active torsions:
REMARK  status: ('A' for Active; 'I' for Inactive)
REMARK    1  A    between atoms: C_1  and  C_21
REMARK    2  A    between atoms: C_2  and  O_7
REMARK    3  A    between atoms: C_3  and  C_9
REMARK    4  A    between atoms: C_5  and  O_18
REMARK    5  A    between atoms: C_10  and  C_13
REMARK    6  A    between atoms: C_10  and  C_17
REMARK    7  A    between atoms: O_18  and  C_19
REMARK    8  A    between atoms: C_21  and  S_22
REMARK    9  A    between atoms: S_22  and  C_23
REMARK                            x       y       z     vdW  Elec       q    Type
REMARK                         _______ _______ _______ _____ _____    ______ ____
ROOT
ATOM      1  C   UNL     1     -35.779  21.013   1.793  0.00  0.00    +0.026 C 
ATOM      2  C   UNL     1     -37.120  20.723   1.541  0.00  0.00    +0.164 C 
ATOM      3  C   UNL     1     -36.432  23.035   2.940  0.00  0.00    +0.004 C 
ATOM      4  C   UNL     1     -35.436  22.169   2.493  0.00  0.00    -0.000 C 
ATOM      5  C   UNL     1     -38.118  21.589   1.988  0.00  0.00    +0.172 C 
ATOM      6  C   UNL     1     -37.773  22.746   2.688  0.00  0.00    +0.040 C 
ENDROOT
BRANCH   2   7
ATOM      7  O   UNL     1     -37.460  19.593   0.857  0.00  0.00    -0.503 OA
ATOM      8  H   UNL     1     -38.361  19.346   0.780  0.00  0.00    +0.292 HD
ENDBRANCH   2   7
BRANCH   3   9
ATOM      9  C   UNL     1     -36.074  24.242   3.670  0.00  0.00    +0.015 C 
ATOM     10  C   UNL     1     -35.716  24.311   4.977  0.00  0.00    +0.121 C 
BRANCH  10  13
ATOM     11  O   UNL     1     -34.329  25.909   6.108  0.00  0.00    -0.270 OA
ATOM     12  N   UNL     1     -36.359  26.625   5.343  0.00  0.00    -0.325 N 
ATOM     13  C   UNL     1     -35.387  25.669   5.530  0.00  0.00    +0.252 C 
ATOM     14  H   UNL     1     -36.220  27.541   5.675  0.00  0.00    +0.145 HD
ATOM     15  H   UNL     1     -37.194  26.392   4.876  0.00  0.00    +0.145 HD
ENDBRANCH  10  13
BRANCH  10  17
ATOM     16  N   UNL     1     -35.642  22.198   6.470  0.00  0.00    -0.191 NA
ATOM     17  C   UNL     1     -35.675  23.144   5.800  0.00  0.00    +0.105 C 
ENDBRANCH  10  17
ENDBRANCH   3   9
BRANCH   5  18
ATOM     18  O   UNL     1     -39.431  21.317   1.749  0.00  0.00    -0.472 OA
BRANCH  18  19
ATOM     19  C   UNL     1     -40.073  22.072   0.724  0.00  0.00    +0.206 C 
ATOM     20  C   UNL     1     -40.616  21.121  -0.321  0.00  0.00    +0.051 C 
ENDBRANCH  18  19
ENDBRANCH   5  18
BRANCH   1  21
ATOM     21  C   UNL     1     -34.699  20.097   1.322  0.00  0.00    +0.092 C 
BRANCH  21  22
ATOM     22  S   UNL     1     -33.521  20.924   0.211  0.00  0.00    -0.109 S 
BRANCH  22  23
ATOM     23  C   UNL     1     -32.113  19.825   0.310  0.00  0.00    +0.026 C 
ATOM     24  C   UNL     1     -30.927  20.160  -0.338  0.00  0.00    +0.006 C 
ATOM     25  C   UNL     1     -32.211  18.641   1.036  0.00  0.00    +0.006 C 
ATOM     26  C   UNL     1     -29.829  19.304  -0.259  0.00  0.00    +0.001 C 
ATOM     27  C   UNL     1     -31.112  17.785   1.114  0.00  0.00    +0.001 C 
ATOM     28  C   UNL     1     -29.921  18.116   0.466  0.00  0.00    +0.000 C 
ENDBRANCH  22  23
ENDBRANCH  21  22
ENDBRANCH   1  21
TORSDOF 9
ENDMDL
MODEL 2
REMARK VINA RESULT:      -6.5      2.473      3.383
REMARK  Name = 5941457
REMARK  9 active torsions:
REMARK  status: ('A' for Active; 'I' for Inactive)
REMARK    1  A    between atoms: C_1  and  C_21
REMARK    2  A    between atoms: C_2  and  O_7
REMARK    3  A    between atoms: C_3  and  C_9
REMARK    4  A    between atoms: C_5  and  O_18
REMARK    5  A    between atoms: C_10  and  C_13
REMARK    6  A    between atoms: C_10  and  C_17
REMARK    7  A    between atoms: O_18  and  C_19
REMARK    8  A    between atoms: C_21  and  S_22
REMARK    9  A    between atoms: S_22  and  C_23
REMARK                            x       y       z     vdW  Elec       q    Type
REMARK                         _______ _______ _______ _____ _____    ______ ____
ROOT
ATOM      1  C   UNL     1     -35.857  22.629   3.372  0.00  0.00    +0.026 C 
ATOM      2  C   UNL     1     -37.195  23.009   3.259  0.00  0.00    +0.164 C 
ATOM      3  C   UNL     1     -35.392  24.640   4.626  0.00  0.00    +0.004 C 
ATOM      4  C   UNL     1     -34.957  23.445   4.056  0.00  0.00    -0.000 C 
ATOM      5  C   UNL     1     -37.632  24.205   3.830  0.00  0.00    +0.172 C 
ATOM      6  C   UNL     1     -36.730  25.020   4.514  0.00  0.00    +0.040 C 
ENDROOT
BRANCH   2   7
ATOM      7  O   UNL     1     -38.080  22.214   2.593  0.00  0.00    -0.503 OA
ATOM      8  H   UNL     1     -37.796  21.395   2.235  0.00  0.00    +0.292 HD
ENDBRANCH   2   7
BRANCH   3   9
ATOM      9  C   UNL     1     -34.452  25.491   5.339  0.00  0.00    +0.015 C 
ATOM     10  C   UNL     1     -33.824  26.585   4.838  0.00  0.00    +0.121 C 
BRANCH  10  13
ATOM     11  O   UNL     1     -32.542  26.872   6.847  0.00  0.00    -0.270 OA
ATOM     12  N   UNL     1     -32.441  28.533   5.281  0.00  0.00    -0.325 N 
ATOM     13  C   UNL     1     -32.886  27.320   5.755  0.00  0.00    +0.252 C 
ATOM     14  H   UNL     1     -31.823  29.076   5.822  0.00  0.00    +0.145 HD
ATOM     15  H   UNL     1     -32.741  28.857   4.401  0.00  0.00    +0.145 HD
ENDBRANCH  10  13
BRANCH  10  17
ATOM     16  N   UNL     1     -34.195  27.356   2.395  0.00  0.00    -0.191 NA
ATOM     17  C   UNL     1     -34.029  27.009   3.490  0.00  0.00    +0.105 C 
ENDBRANCH  10  17
ENDBRANCH   3   9
BRANCH   5  18
ATOM     18  O   UNL     1     -38.935  24.586   3.728  0.00  0.00    -0.472 OA
BRANCH  18  19
ATOM     19  C   UNL     1     -39.240  25.607   2.780  0.00  0.00    +0.206 C 
ATOM     20  C   UNL     1     -40.648  26.103   3.025  0.00  0.00    +0.051 C 
ENDBRANCH  18  19
ENDBRANCH   5  18
BRANCH   1  21
ATOM     21  C   UNL     1     -35.373  21.353   2.768  0.00  0.00    +0.092 C 
BRANCH  21  22
ATOM     22  S   UNL     1     -34.908  21.543   1.021  0.00  0.00    -0.109 S 
BRANCH  22  23
ATOM     23  C   UNL     1     -33.578  20.356   0.879  0.00  0.00    +0.026 C 
ATOM     24  C   UNL     1     -33.675  19.128   1.527  0.00  0.00    +0.006 C 
ATOM     25  C   UNL     1     -32.452  20.668   0.121  0.00  0.00    +0.006 C 
ATOM     26  C   UNL     1     -32.637  18.203   1.416  0.00  0.00    +0.001 C 
ATOM     27  C   UNL     1     -31.415  19.742   0.011  0.00  0.00    +0.001 C 
ATOM     28  C   UNL     1     -31.507  18.510   0.658  0.00  0.00    +0.000 C 
ENDBRANCH  22  23
ENDBRANCH  21  22
ENDBRANCH   1  21
TORSDOF 9
ENDMDL
MODEL 3
REMARK VINA RESULT:      -6.3      1.446      1.698
REMARK  Name = 5941457
REMARK  9 active torsions:
REMARK  status: ('A' for Active; 'I' for Inactive)
REMARK    1  A    between atoms: C_1  and  C_21
REMARK    2  A    between atoms: C_2  and  O_7
REMARK    3  A    between atoms: C_3  and  C_9
REMARK    4  A    between atoms: C_5  and  O_18
REMARK    5  A    between atoms: C_10  and  C_13
REMARK    6  A    between atoms: C_10  and  C_17
REMARK    7  A    between atoms: O_18  and  C_19
REMARK    8  A    between atoms: C_21  and  S_22
REMARK    9  A    between atoms: S_22  and  C_23
REMARK                            x       y       z     vdW  Elec       q    Type
REMARK                         _______ _______ _______ _____ _____    ______ ____
ROOT
ATOM      1  C   UNL     1     -37.042  21.196   1.776  0.00  0.00    +0.026 C 
ATOM      2  C   UNL     1     -38.402  21.506   1.752  0.00  0.00    +0.164 C 
ATOM      3  C   UNL     1     -36.570  23.340   2.783  0.00  0.00    +0.004 C 
ATOM      4  C   UNL     1     -36.126  22.113   2.291  0.00  0.00    -0.000 C 
ATOM      5  C   UNL     1     -38.846  22.734   2.244  0.00  0.00    +0.172 C 
ATOM      6  C   UNL     1     -37.929  23.651   2.760  0.00  0.00    +0.040 C 
ENDROOT
BRANCH   2   7
ATOM      7  O   UNL     1     -39.300  20.613   1.250  0.00  0.00    -0.503 OA
ATOM      8  H   UNL     1     -39.184  20.266   0.387  0.00  0.00    +0.292 HD
ENDBRANCH   2   7
BRANCH   3   9
ATOM      9  C   UNL     1     -35.615  24.297   3.320  0.00  0.00    +0.015 C 
ATOM     10  C   UNL     1     -35.087  24.286   4.571  0.00  0.00    +0.121 C 
BRANCH  10  13
ATOM     11  O   UNL     1     -33.057  25.539   4.311  0.00  0.00    -0.270 OA
ATOM     12  N   UNL     1     -34.494  26.185   5.965  0.00  0.00    -0.325 N 
ATOM     13  C   UNL     1     -34.114  25.378   4.917  0.00  0.00    +0.252 C 
ATOM     14  H   UNL     1     -33.912  26.924   6.254  0.00  0.00    +0.145 HD
ATOM     15  H   UNL     1     -35.349  26.022   6.426  0.00  0.00    +0.145 HD
ENDBRANCH  10  13
BRANCH  10  17
ATOM     16  N   UNL     1     -35.760  22.482   6.301  0.00  0.00    -0.191 NA
ATOM     17  C   UNL     1     -35.457  23.290   5.526  0.00  0.00    +0.105 C 
ENDBRANCH  10  17
ENDBRANCH   3   9
BRANCH   5  18
ATOM     18  O   UNL     1     -40.171  23.048   2.228  0.00  0.00    -0.472 OA
BRANCH  18  19
ATOM     19  C   UNL     1     -40.535  24.296   1.639  0.00  0.00    +0.206 C 
ATOM     20  C   UNL     1     -41.313  24.033   0.368  0.00  0.00    +0.051 C 
ENDBRANCH  18  19
ENDBRANCH   5  18
BRANCH   1  21
ATOM     21  C   UNL     1     -36.549  19.887   1.254  0.00  0.00    +0.092 C 
BRANCH  21  22
ATOM     22  S   UNL     1     -35.684  20.054  -0.337  0.00  0.00    -0.109 S 
BRANCH  22  23
ATOM     23  C   UNL     1     -34.023  19.566   0.113  0.00  0.00    +0.026 C 
ATOM     24  C   UNL     1     -32.947  20.379  -0.230  0.00  0.00    +0.006 C 
ATOM     25  C   UNL     1     -33.817  18.375   0.805  0.00  0.00    +0.006 C 
ATOM     26  C   UNL     1     -31.652  19.998   0.121  0.00  0.00    +0.001 C 
ATOM     27  C   UNL     1     -32.521  17.995   1.155  0.00  0.00    +0.001 C 
ATOM     28  C   UNL     1     -31.439  18.806   0.814  0.00  0.00    +0.000 C 
ENDBRANCH  22  23
ENDBRANCH  21  22
ENDBRANCH   1  21
TORSDOF 9
ENDMDL
MODEL 4
REMARK VINA RESULT:      -6.0      2.198      6.272
REMARK  Name = 5941457
REMARK  9 active torsions:
REMARK  status: ('A' for Active; 'I' for Inactive)
REMARK    1  A    between atoms: C_1  and  C_21
REMARK    2  A    between atoms: C_2  and  O_7
REMARK    3  A    between atoms: C_3  and  C_9
REMARK    4  A    between atoms: C_5  and  O_18
REMARK    5  A    between atoms: C_10  and  C_13
REMARK    6  A    between atoms: C_10  and  C_17
REMARK    7  A    between atoms: O_18  and  C_19
REMARK    8  A    between atoms: C_21  and  S_22
REMARK    9  A    between atoms: S_22  and  C_23
REMARK                            x       y       z     vdW  Elec       q    Type
REMARK                         _______ _______ _______ _____ _____    ______ ____
ROOT
ATOM      1  C   UNL     1     -38.052  21.559   1.863  0.00  0.00    +0.026 C 
ATOM      2  C   UNL     1     -37.087  20.585   1.604  0.00  0.00    +0.164 C 
ATOM      3  C   UNL     1     -36.386  22.920   2.961  0.00  0.00    +0.004 C 
ATOM      4  C   UNL     1     -37.701  22.726   2.540  0.00  0.00    -0.000 C 
ATOM      5  C   UNL     1     -35.770  20.779   2.024  0.00  0.00    +0.172 C 
ATOM      6  C   UNL     1     -35.420  21.947   2.702  0.00  0.00    +0.040 C 
ENDROOT
BRANCH   2   7
ATOM      7  O   UNL     1     -37.425  19.443   0.941  0.00  0.00    -0.503 OA
ATOM      8  H   UNL     1     -38.321  19.277   0.723  0.00  0.00    +0.292 HD
ENDBRANCH   2   7
BRANCH   3   9
ATOM      9  C   UNL     1     -36.020  24.137   3.668  0.00  0.00    +0.015 C 
ATOM     10  C   UNL     1     -35.689  24.232   4.981  0.00  0.00    +0.121 C 
BRANCH  10  13
ATOM     11  O   UNL     1     -34.266  25.849   6.039  0.00  0.00    -0.270 OA
ATOM     12  N   UNL     1     -36.331  26.545   5.352  0.00  0.00    -0.325 N 
ATOM     13  C   UNL     1     -35.346  25.597   5.508  0.00  0.00    +0.252 C 
ATOM     14  H   UNL     1     -36.184  27.465   5.670  0.00  0.00    +0.145 HD
ATOM     15  H   UNL     1     -37.183  26.303   4.922  0.00  0.00    +0.145 HD
ENDBRANCH  10  13
BRANCH  10  17
ATOM     16  N   UNL     1     -35.686  22.155   6.526  0.00  0.00    -0.191 NA
ATOM     17  C   UNL     1     -35.688  23.085   5.833  0.00  0.00    +0.105 C 
ENDBRANCH  10  17
ENDBRANCH   3   9
BRANCH   5  18
ATOM     18  O   UNL     1     -34.818  19.837   1.777  0.00  0.00    -0.472 OA
BRANCH  18  19
ATOM     19  C   UNL     1     -33.778  20.188   0.867  0.00  0.00    +0.206 C 
ATOM     20  C   UNL     1     -32.713  19.113   0.896  0.00  0.00    +0.051 C 
ENDBRANCH  18  19
ENDBRANCH   5  18
BRANCH   1  21
ATOM     21  C   UNL     1     -39.465  21.368   1.420  0.00  0.00    +0.092 C 
BRANCH  21  22
ATOM     22  S   UNL     1     -39.784  22.092  -0.217  0.00  0.00    -0.109 S 
BRANCH  22  23
ATOM     23  C   UNL     1     -40.042  23.811   0.203  0.00  0.00    +0.026 C 
ATOM     24  C   UNL     1     -39.359  24.804  -0.494  0.00  0.00    +0.006 C 
ATOM     25  C   UNL     1     -40.927  24.147   1.224  0.00  0.00    +0.006 C 
ATOM     26  C   UNL     1     -39.561  26.145  -0.166  0.00  0.00    +0.001 C 
ATOM     27  C   UNL     1     -41.129  25.489   1.551  0.00  0.00    +0.001 C 
ATOM     28  C   UNL     1     -40.446  26.487   0.856  0.00  0.00    +0.000 C 
ENDBRANCH  22  23
ENDBRANCH  21  22
ENDBRANCH   1  21
TORSDOF 9
ENDMDL
MODEL 5
REMARK VINA RESULT:      -5.9      3.017      7.270
REMARK  Name = 5941457
REMARK  9 active torsions:
REMARK  status: ('A' for Active; 'I' for Inactive)
REMARK    1  A    between atoms: C_1  and  C_21
REMARK    2  A    between atoms: C_2  and  O_7
REMARK    3  A    between atoms: C_3  and  C_9
REMARK    4  A    between atoms: C_5  and  O_18
REMARK    5  A    between atoms: C_10  and  C_13
REMARK    6  A    between atoms: C_10  and  C_17
REMARK    7  A    between atoms: O_18  and  C_19
REMARK    8  A    between atoms: C_21  and  S_22
REMARK    9  A    between atoms: S_22  and  C_23
REMARK                            x       y       z     vdW  Elec       q    Type
REMARK                         _______ _______ _______ _____ _____    ______ ____
ROOT
ATOM      1  C   UNL     1     -38.472  22.534   1.976  0.00  0.00    +0.026 C 
ATOM      2  C   UNL     1     -37.954  21.281   1.647  0.00  0.00    +0.164 C 
ATOM      3  C   UNL     1     -36.295  23.228   2.758  0.00  0.00    +0.004 C 
ATOM      4  C   UNL     1     -37.642  23.507   2.531  0.00  0.00    -0.000 C 
ATOM      5  C   UNL     1     -36.606  21.001   1.873  0.00  0.00    +0.172 C 
ATOM      6  C   UNL     1     -35.777  21.976   2.428  0.00  0.00    +0.040 C 
ENDROOT
BRANCH   2   7
ATOM      7  O   UNL     1     -38.762  20.327   1.103  0.00  0.00    -0.503 OA
ATOM      8  H   UNL     1     -38.902  20.304   0.176  0.00  0.00    +0.292 HD
ENDBRANCH   2   7
BRANCH   3   9
ATOM      9  C   UNL     1     -35.429  24.243   3.337  0.00  0.00    +0.015 C 
ATOM     10  C   UNL     1     -35.003  24.292   4.625  0.00  0.00    +0.121 C 
BRANCH  10  13
ATOM     11  O   UNL     1     -33.056  25.682   4.428  0.00  0.00    -0.270 OA
ATOM     12  N   UNL     1     -34.561  26.195   6.069  0.00  0.00    -0.325 N 
ATOM     13  C   UNL     1     -34.110  25.438   5.012  0.00  0.00    +0.252 C 
ATOM     14  H   UNL     1     -34.034  26.965   6.384  0.00  0.00    +0.145 HD
ATOM     15  H   UNL     1     -35.411  25.966   6.511  0.00  0.00    +0.145 HD
ENDBRANCH  10  13
BRANCH  10  17
ATOM     16  N   UNL     1     -35.726  22.509   6.356  0.00  0.00    -0.191 NA
ATOM     17  C   UNL     1     -35.403  23.308   5.579  0.00  0.00    +0.105 C 
ENDBRANCH  10  17
ENDBRANCH   3   9
BRANCH   5  18
ATOM     18  O   UNL     1     -36.089  19.782   1.555  0.00  0.00    -0.472 OA
BRANCH  18  19
ATOM     19  C   UNL     1     -35.000  19.760   0.633  0.00  0.00    +0.206 C 
ATOM     20  C   UNL     1     -33.805  19.111   1.297  0.00  0.00    +0.051 C 
ENDBRANCH  18  19
ENDBRANCH   5  18
BRANCH   1  21
ATOM     21  C   UNL     1     -39.912  22.850   1.740  0.00  0.00    +0.092 C 
BRANCH  21  22
ATOM     22  S   UNL     1     -40.138  24.343   0.727  0.00  0.00    -0.109 S 
BRANCH  22  23
ATOM     23  C   UNL     1     -41.225  25.312   1.765  0.00  0.00    +0.026 C 
ATOM     24  C   UNL     1     -40.736  25.878   2.939  0.00  0.00    +0.006 C 
ATOM     25  C   UNL     1     -42.554  25.496   1.393  0.00  0.00    +0.006 C 
ATOM     26  C   UNL     1     -41.584  26.634   3.749  0.00  0.00    +0.001 C 
ATOM     27  C   UNL     1     -43.401  26.252   2.203  0.00  0.00    +0.001 C 
ATOM     28  C   UNL     1     -42.916  26.821   3.381  0.00  0.00    +0.000 C 
ENDBRANCH  22  23
ENDBRANCH  21  22
ENDBRANCH   1  21
TORSDOF 9
ENDMDL
MODEL 6
REMARK VINA RESULT:      -5.9      2.824      4.154
REMARK  Name = 5941457
REMARK  9 active torsions:
REMARK  status: ('A' for Active; 'I' for Inactive)
REMARK    1  A    between atoms: C_1  and  C_21
REMARK    2  A    between atoms: C_2  and  O_7
REMARK    3  A    between atoms: C_3  and  C_9
REMARK    4  A    between atoms: C_5  and  O_18
REMARK    5  A    between atoms: C_10  and  C_13
REMARK    6  A    between atoms: C_10  and  C_17
REMARK    7  A    between atoms: O_18  and  C_19
REMARK    8  A    between atoms: C_21  and  S_22
REMARK    9  A    between atoms: S_22  and  C_23
REMARK                            x       y       z     vdW  Elec       q    Type
REMARK                         _______ _______ _______ _____ _____    ______ ____
ROOT
ATOM      1  C   UNL     1     -35.056  23.188   1.790  0.00  0.00    +0.026 C 
ATOM      2  C   UNL     1     -35.747  22.716   2.906  0.00  0.00    +0.164 C 
ATOM      3  C   UNL     1     -34.237  25.054   3.086  0.00  0.00    +0.004 C 
ATOM      4  C   UNL     1     -34.301  24.356   1.880  0.00  0.00    -0.000 C 
ATOM      5  C   UNL     1     -35.683  23.413   4.113  0.00  0.00    +0.172 C 
ATOM      6  C   UNL     1     -34.927  24.583   4.202  0.00  0.00    +0.040 C 
ENDROOT
BRANCH   2   7
ATOM      7  O   UNL     1     -36.486  21.573   2.823  0.00  0.00    -0.503 OA
ATOM      8  H   UNL     1     -36.072  20.739   2.934  0.00  0.00    +0.292 HD
ENDBRANCH   2   7
BRANCH   3   9
ATOM      9  C   UNL     1     -33.450  26.274   3.179  0.00  0.00    +0.015 C 
ATOM     10  C   UNL     1     -33.856  27.518   2.821  0.00  0.00    +0.121 C 
BRANCH  10  13
ATOM     11  O   UNL     1     -32.120  29.012   2.103  0.00  0.00    -0.270 OA
ATOM     12  N   UNL     1     -32.877  29.224   4.248  0.00  0.00    -0.325 N 
ATOM     13  C   UNL     1     -32.873  28.641   3.001  0.00  0.00    +0.252 C 
ATOM     14  H   UNL     1     -32.263  29.967   4.447  0.00  0.00    +0.145 HD
ATOM     15  H   UNL     1     -33.495  28.897   4.941  0.00  0.00    +0.145 HD
ENDBRANCH  10  13
BRANCH  10  17
ATOM     16  N   UNL     1     -36.210  27.939   1.833  0.00  0.00    -0.191 NA
ATOM     17  C   UNL     1     -35.155  27.749   2.275  0.00  0.00    +0.105 C 
ENDBRANCH  10  17
ENDBRANCH   3   9
BRANCH   5  18
ATOM     18  O   UNL     1     -36.352  22.963   5.211  0.00  0.00    -0.472 OA
BRANCH  18  19
ATOM     19  C   UNL     1     -35.564  22.531   6.318  0.00  0.00    +0.206 C 
ATOM     20  C   UNL     1     -34.873  21.234   5.956  0.00  0.00    +0.051 C 
ENDBRANCH  18  19
ENDBRANCH   5  18
BRANCH   1  21
ATOM     21  C   UNL     1     -35.113  22.454   0.491  0.00  0.00    +0.092 C 
BRANCH  21  22
ATOM     22  S   UNL     1     -33.489  22.350  -0.320  0.00  0.00    -0.109 S 
BRANCH  22  23
ATOM     23  C   UNL     1     -32.920  20.748   0.235  0.00  0.00    +0.026 C 
ATOM     24  C   UNL     1     -31.636  20.320  -0.087  0.00  0.00    +0.006 C 
ATOM     25  C   UNL     1     -33.766  19.938   0.988  0.00  0.00    +0.006 C 
ATOM     26  C   UNL     1     -31.192  19.071   0.347  0.00  0.00    +0.001 C 
ATOM     27  C   UNL     1     -33.322  18.688   1.422  0.00  0.00    +0.001 C 
ATOM     28  C   UNL     1     -32.035  18.255   1.101  0.00  0.00    +0.000 C 
ENDBRANCH  22  23
ENDBRANCH  21  22
ENDBRANCH   1  21
TORSDOF 9
ENDMDL
MODEL 7
REMARK VINA RESULT:      -5.9      3.756      7.443
REMARK  Name = 5941457
REMARK  9 active torsions:
REMARK  status: ('A' for Active; 'I' for Inactive)
REMARK    1  A    between atoms: C_1  and  C_21
REMARK    2  A    between atoms: C_2  and  O_7
REMARK    3  A    between atoms: C_3  and  C_9
REMARK    4  A    between atoms: C_5  and  O_18
REMARK    5  A    between atoms: C_10  and  C_13
REMARK    6  A    between atoms: C_10  and  C_17
REMARK    7  A    between atoms: O_18  and  C_19
REMARK    8  A    between atoms: C_21  and  S_22
REMARK    9  A    between atoms: S_22  and  C_23
REMARK                            x       y       z     vdW  Elec       q    Type
REMARK                         _______ _______ _______ _____ _____    ______ ____
ROOT
ATOM      1  C   UNL     1     -35.207  24.795   4.400  0.00  0.00    +0.026 C 
ATOM      2  C   UNL     1     -36.542  25.195   4.331  0.00  0.00    +0.164 C 
ATOM      3  C   UNL     1     -35.790  22.673   3.406  0.00  0.00    +0.004 C 
ATOM      4  C   UNL     1     -34.831  23.535   3.937  0.00  0.00    -0.000 C 
ATOM      5  C   UNL     1     -37.501  24.333   3.799  0.00  0.00    +0.172 C 
ATOM      6  C   UNL     1     -37.124  23.072   3.336  0.00  0.00    +0.040 C 
ENDROOT
BRANCH   2   7
ATOM      7  O   UNL     1     -36.913  26.427   4.782  0.00  0.00    -0.503 OA
ATOM      8  H   UNL     1     -36.504  26.790   5.542  0.00  0.00    +0.292 HD
ENDBRANCH   2   7
BRANCH   3   9
ATOM      9  C   UNL     1     -35.398  21.358   2.924  0.00  0.00    +0.015 C 
ATOM     10  C   UNL     1     -34.960  21.060   1.674  0.00  0.00    +0.121 C 
BRANCH  10  13
ATOM     11  O   UNL     1     -33.535  19.129   1.724  0.00  0.00    -0.270 OA
ATOM     12  N   UNL     1     -35.580  18.910   0.728  0.00  0.00    -0.325 N 
ATOM     13  C   UNL     1     -34.609  19.626   1.390  0.00  0.00    +0.252 C 
ATOM     14  H   UNL     1     -35.428  17.964   0.505  0.00  0.00    +0.145 HD
ATOM     15  H   UNL     1     -36.426  19.346   0.476  0.00  0.00    +0.145 HD
ENDBRANCH  10  13
BRANCH  10  17
ATOM     16  N   UNL     1     -34.776  22.879  -0.158  0.00  0.00    -0.191 NA
ATOM     17  C   UNL     1     -34.857  22.064   0.663  0.00  0.00    +0.105 C 
ENDBRANCH  10  17
ENDBRANCH   3   9
BRANCH   5  18
ATOM     18  O   UNL     1     -38.808  24.711   3.725  0.00  0.00    -0.472 OA
BRANCH  18  19
ATOM     19  C   UNL     1     -39.536  24.304   2.568  0.00  0.00    +0.206 C 
ATOM     20  C   UNL     1     -40.475  25.419   2.160  0.00  0.00    +0.051 C 
ENDBRANCH  18  19
ENDBRANCH   5  18
BRANCH   1  21
ATOM     21  C   UNL     1     -34.167  25.705   4.966  0.00  0.00    +0.092 C 
BRANCH  21  22
ATOM     22  S   UNL     1     -33.325  26.680   3.683  0.00  0.00    -0.109 S 
BRANCH  22  23
ATOM     23  C   UNL     1     -32.694  28.052   4.642  0.00  0.00    +0.026 C 
ATOM     24  C   UNL     1     -32.326  27.856   5.970  0.00  0.00    +0.006 C 
ATOM     25  C   UNL     1     -32.573  29.308   4.053  0.00  0.00    +0.006 C 
ATOM     26  C   UNL     1     -31.834  28.927   6.717  0.00  0.00    +0.001 C 
ATOM     27  C   UNL     1     -32.081  30.378   4.802  0.00  0.00    +0.001 C 
ATOM     28  C   UNL     1     -31.711  30.188   6.133  0.00  0.00    +0.000 C 
ENDBRANCH  22  23
ENDBRANCH  21  22
ENDBRANCH   1  21
TORSDOF 9
ENDMDL
MODEL 8
REMARK VINA RESULT:      -5.8      3.483      7.040
REMARK  Name = 5941457
REMARK  9 active torsions:
REMARK  status: ('A' for Active; 'I' for Inactive)
REMARK    1  A    between atoms: C_1  and  C_21
REMARK    2  A    between atoms: C_2  and  O_7
REMARK    3  A    between atoms: C_3  and  C_9
REMARK    4  A    between atoms: C_5  and  O_18
REMARK    5  A    between atoms: C_10  and  C_13
REMARK    6  A    between atoms: C_10  and  C_17
REMARK    7  A    between atoms: O_18  and  C_19
REMARK    8  A    between atoms: C_21  and  S_22
REMARK    9  A    between atoms: S_22  and  C_23
REMARK                            x       y       z     vdW  Elec       q    Type
REMARK                         _______ _______ _______ _____ _____    ______ ____
ROOT
ATOM      1  C   UNL     1     -35.672  20.520   2.046  0.00  0.00    +0.026 C 
ATOM      2  C   UNL     1     -36.638  19.993   1.188  0.00  0.00    +0.164 C 
ATOM      3  C   UNL     1     -34.009  19.072   1.061  0.00  0.00    +0.004 C 
ATOM      4  C   UNL     1     -34.358  20.060   1.982  0.00  0.00    -0.000 C 
ATOM      5  C   UNL     1     -36.289  19.006   0.266  0.00  0.00    +0.172 C 
ATOM      6  C   UNL     1     -34.974  18.546   0.203  0.00  0.00    +0.040 C 
ENDROOT
BRANCH   2   7
ATOM      7  O   UNL     1     -37.925  20.441   1.247  0.00  0.00    -0.503 OA
ATOM      8  H   UNL     1     -38.135  21.195   1.763  0.00  0.00    +0.292 HD
ENDBRANCH   2   7
BRANCH   3   9
ATOM      9  C   UNL     1     -32.637  18.592   0.995  0.00  0.00    +0.015 C 
ATOM     10  C   UNL     1     -31.589  19.238   0.425  0.00  0.00    +0.121 C 
BRANCH  10  13
ATOM     11  O   UNL     1     -29.245  19.031  -0.051  0.00  0.00    -0.270 OA
ATOM     12  N   UNL     1     -30.237  17.347   1.132  0.00  0.00    -0.325 N 
ATOM     13  C   UNL     1     -30.251  18.552   0.468  0.00  0.00    +0.252 C 
ATOM     14  H   UNL     1     -29.400  16.835   1.206  0.00  0.00    +0.145 HD
ATOM     15  H   UNL     1     -31.065  16.997   1.534  0.00  0.00    +0.145 HD
ENDBRANCH  10  13
BRANCH  10  17
ATOM     16  N   UNL     1     -31.885  21.536  -0.728  0.00  0.00    -0.191 NA
ATOM     17  C   UNL     1     -31.752  20.506  -0.210  0.00  0.00    +0.105 C 
ENDBRANCH  10  17
ENDBRANCH   3   9
BRANCH   5  18
ATOM     18  O   UNL     1     -37.223  18.485  -0.578  0.00  0.00    -0.472 OA
BRANCH  18  19
ATOM     19  C   UNL     1     -37.051  17.126  -0.975  0.00  0.00    +0.206 C 
ATOM     20  C   UNL     1     -37.807  16.232  -0.016  0.00  0.00    +0.051 C 
ENDBRANCH  18  19
ENDBRANCH   5  18
BRANCH   1  21
ATOM     21  C   UNL     1     -36.028  21.577   3.038  0.00  0.00    +0.092 C 
BRANCH  21  22
ATOM     22  S   UNL     1     -36.178  23.222   2.277  0.00  0.00    -0.109 S 
BRANCH  22  23
ATOM     23  C   UNL     1     -35.631  24.278   3.612  0.00  0.00    +0.026 C 
ATOM     24  C   UNL     1     -34.274  24.546   3.770  0.00  0.00    +0.006 C 
ATOM     25  C   UNL     1     -36.566  24.828   4.486  0.00  0.00    +0.006 C 
ATOM     26  C   UNL     1     -33.848  25.371   4.812  0.00  0.00    +0.001 C 
ATOM     27  C   UNL     1     -36.139  25.653   5.527  0.00  0.00    +0.001 C 
ATOM     28  C   UNL     1     -34.780  25.924   5.690  0.00  0.00    +0.000 C 
ENDBRANCH  22  23
ENDBRANCH  21  22
ENDBRANCH   1  21
TORSDOF 9
ENDMDL
MODEL 9
REMARK VINA RESULT:      -5.8      2.573      3.807
REMARK  Name = 5941457
REMARK  9 active torsions:
REMARK  status: ('A' for Active; 'I' for Inactive)
REMARK    1  A    between atoms: C_1  and  C_21
REMARK    2  A    between atoms: C_2  and  O_7
REMARK    3  A    between atoms: C_3  and  C_9
REMARK    4  A    between atoms: C_5  and  O_18
REMARK    5  A    between atoms: C_10  and  C_13
REMARK    6  A    between atoms: C_10  and  C_17
REMARK    7  A    between atoms: O_18  and  C_19
REMARK    8  A    between atoms: C_21  and  S_22
REMARK    9  A    between atoms: S_22  and  C_23
REMARK                            x       y       z     vdW  Elec       q    Type
REMARK                         _______ _______ _______ _____ _____    ______ ____
ROOT
ATOM      1  C   UNL     1     -35.350  23.010   1.506  0.00  0.00    +0.026 C 
ATOM      2  C   UNL     1     -35.812  22.507   2.723  0.00  0.00    +0.164 C 
ATOM      3  C   UNL     1     -35.338  25.240   2.434  0.00  0.00    +0.004 C 
ATOM      4  C   UNL     1     -35.112  24.377   1.362  0.00  0.00    -0.000 C 
ATOM      5  C   UNL     1     -36.037  23.371   3.795  0.00  0.00    +0.172 C 
ATOM      6  C   UNL     1     -35.800  24.738   3.650  0.00  0.00    +0.040 C 
ENDROOT
BRANCH   2   7
ATOM      7  O   UNL     1     -36.045  21.172   2.868  0.00  0.00    -0.503 OA
ATOM      8  H   UNL     1     -36.099  20.796   3.725  0.00  0.00    +0.292 HD
ENDBRANCH   2   7
BRANCH   3   9
ATOM      9  C   UNL     1     -35.091  26.666   2.283  0.00  0.00    +0.015 C 
ATOM     10  C   UNL     1     -34.283  27.426   3.065  0.00  0.00    +0.121 C 
BRANCH  10  13
ATOM     11  O   UNL     1     -34.608  29.358   1.679  0.00  0.00    -0.270 OA
ATOM     12  N   UNL     1     -33.555  29.660   3.684  0.00  0.00    -0.325 N 
ATOM     13  C   UNL     1     -34.175  28.887   2.729  0.00  0.00    +0.252 C 
ATOM     14  H   UNL     1     -33.445  30.627   3.540  0.00  0.00    +0.145 HD
ATOM     15  H   UNL     1     -33.220  29.244   4.511  0.00  0.00    +0.145 HD
ENDBRANCH  10  13
BRANCH  10  17
ATOM     16  N   UNL     1     -33.009  26.413   5.077  0.00  0.00    -0.191 NA
ATOM     17  C   UNL     1     -33.581  26.866   4.175  0.00  0.00    +0.105 C 
ENDBRANCH  10  17
ENDBRANCH   3   9
BRANCH   5  18
ATOM     18  O   UNL     1     -36.488  22.892   4.988  0.00  0.00    -0.472 OA
BRANCH  18  19
ATOM     19  C   UNL     1     -35.576  22.920   6.084  0.00  0.00    +0.206 C 
ATOM     20  C   UNL     1     -34.885  21.577   6.185  0.00  0.00    +0.051 C 
ENDBRANCH  18  19
ENDBRANCH   5  18
BRANCH   1  21
ATOM     21  C   UNL     1     -35.103  22.101   0.349  0.00  0.00    +0.092 C 
BRANCH  21  22
ATOM     22  S   UNL     1     -33.385  22.177  -0.241  0.00  0.00    -0.109 S 
BRANCH  22  23
ATOM     23  C   UNL     1     -32.765  20.580   0.272  0.00  0.00    +0.026 C 
ATOM     24  C   UNL     1     -31.488  20.178  -0.109  0.00  0.00    +0.006 C 
ATOM     25  C   UNL     1     -33.564  19.747   1.051  0.00  0.00    +0.006 C 
ATOM     26  C   UNL     1     -31.005  18.933   0.292  0.00  0.00    +0.001 C 
ATOM     27  C   UNL     1     -33.080  18.501   1.452  0.00  0.00    +0.001 C 
ATOM     28  C   UNL     1     -31.801  18.094   1.073  0.00  0.00    +0.000 C 
ENDBRANCH  22  23
ENDBRANCH  21  22
ENDBRANCH   1  21
TORSDOF 9
ENDMDL
