MODEL 1
REMARK VINA RESULT:      -6.5      0.000      0.000
REMARK  Name = 195395
REMARK  6 active torsions:
REMARK  status: ('A' for Active; 'I' for Inactive)
REMARK    1  A    between atoms: C_2  and  C_9
REMARK    2  A    between atoms: C_3  and  N_20
REMARK    3  A    between atoms: N_8  and  C_11
REMARK    4  A    between atoms: C_11  and  C_12
REMARK    5  A    between atoms: C_12  and  C_15
REMARK    6  A    between atoms: C_21  and  C_27
REMARK                            x       y       z     vdW  Elec       q    Type
REMARK                         _______ _______ _______ _____ _____    ______ ____
ROOT
ATOM      1  N   UNL     1     -42.776  26.884   2.176  0.00  0.00    -0.280 N 
ATOM      2  C   UNL     1     -42.627  27.618   3.324  0.00  0.00    +0.107 C 
ATOM      3  C   UNL     1     -40.962  26.108   3.195  0.00  0.00    +0.067 C 
ATOM      4  C   UNL     1     -41.505  27.156   3.977  0.00  0.00    +0.035 C 
ATOM      5  C   UNL     1     -41.767  25.960   2.087  0.00  0.00    +0.080 C 
ATOM      6  C   UNL     1     -43.828  27.047   1.197  0.00  0.00    +0.117 C 
ENDROOT
BRANCH   2   9
ATOM      7  O   UNL     1     -43.517  29.811   3.216  0.00  0.00    -0.269 OA
ATOM      8  N   UNL     1     -44.387  28.399   4.807  0.00  0.00    -0.299 N 
ATOM      9  C   UNL     1     -43.529  28.698   3.746  0.00  0.00    +0.260 C 
ATOM     10  H   UNL     1     -44.362  27.496   5.198  0.00  0.00    +0.150 HD
BRANCH   8  11
ATOM     11  C   UNL     1     -45.305  29.363   5.350  0.00  0.00    +0.097 C 
BRANCH  11  12
ATOM     12  C   UNL     1     -45.106  29.575   6.845  0.00  0.00    +0.081 C 
BRANCH  12  15
ATOM     13  N   UNL     1     -43.392  30.459   8.390  0.00  0.00    -0.346 N 
ATOM     14  N   UNL     1     -43.457  31.198   6.149  0.00  0.00    -0.289 NA
ATOM     15  C   UNL     1     -43.910  30.469   7.121  0.00  0.00    +0.095 C 
ATOM     16  H   UNL     1     -42.617  31.026   8.609  0.00  0.00    +0.143 HD
ATOM     17  H   UNL     1     -43.795  29.887   9.082  0.00  0.00    +0.143 HD
ATOM     18  H   UNL     1     -42.684  31.789   6.296  0.00  0.00    +0.188 HD
ENDBRANCH  12  15
ENDBRANCH  11  12
ENDBRANCH   8  11
ENDBRANCH   2   9
BRANCH   3  20
ATOM     19  O   UNL     1     -38.158  26.554   2.359  0.00  0.00    -0.267 OA
ATOM     20  N   UNL     1     -39.839  25.360   3.465  0.00  0.00    -0.277 N 
ATOM     21  C   UNL     1     -38.516  25.603   3.048  0.00  0.00    +0.276 C 
ATOM     22  H   UNL     1     -39.977  24.557   4.016  0.00  0.00    +0.155 HD
BRANCH  21  27
ATOM     23  S   UNL     1     -35.666  23.507   4.850  0.00  0.00    -0.059 S 
ATOM     24  O   UNL     1     -37.364  20.802   1.420  0.00  0.00    -0.265 OA
ATOM     25  N   UNL     1     -37.398  23.397   2.934  0.00  0.00    -0.380 NA
ATOM     26  N   UNL     1     -36.011  21.453   3.257  0.00  0.00    -0.247 N 
ATOM     27  C   UNL     1     -37.521  24.633   3.538  0.00  0.00    +0.176 C 
ATOM     28  C   UNL     1     -36.668  24.875   4.594  0.00  0.00    +0.129 C 
ATOM     29  C   UNL     1     -36.451  22.719   3.543  0.00  0.00    +0.214 C 
ATOM     30  C   UNL     1     -36.485  20.615   2.248  0.00  0.00    +0.306 C 
ATOM     31  H   UNL     1     -35.286  21.100   3.822  0.00  0.00    +0.158 HD
ENDBRANCH  21  27
ENDBRANCH   3  20
TORSDOF 6
ENDMDL
MODEL 2
REMARK VINA RESULT:      -6.5      1.738      2.300
REMARK  Name = 195395
REMARK  6 active torsions:
REMARK  status: ('A' for Active; 'I' for Inactive)
REMARK    1  A    between atoms: C_2  and  C_9
REMARK    2  A    between atoms: C_3  and  N_20
REMARK    3  A    between atoms: N_8  and  C_11
REMARK    4  A    between atoms: C_11  and  C_12
REMARK    5  A    between atoms: C_12  and  C_15
REMARK    6  A    between atoms: C_21  and  C_27
REMARK                            x       y       z     vdW  Elec       q    Type
REMARK                         _______ _______ _______ _____ _____    ______ ____
ROOT
ATOM      1  N   UNL     1     -43.211  26.981   2.365  0.00  0.00    -0.280 N 
ATOM      2  C   UNL     1     -42.940  27.785   3.441  0.00  0.00    +0.107 C 
ATOM      3  C   UNL     1     -41.272  26.292   3.200  0.00  0.00    +0.067 C 
ATOM      4  C   UNL     1     -41.739  27.378   3.979  0.00  0.00    +0.035 C 
ATOM      5  C   UNL     1     -42.201  26.067   2.208  0.00  0.00    +0.080 C 
ATOM      6  C   UNL     1     -44.376  27.071   1.512  0.00  0.00    +0.117 C 
ENDROOT
BRANCH   2   9
ATOM      7  O   UNL     1     -43.799  29.992   3.381  0.00  0.00    -0.269 OA
ATOM      8  N   UNL     1     -44.624  28.585   5.000  0.00  0.00    -0.299 N 
ATOM      9  C   UNL     1     -43.807  28.876   3.905  0.00  0.00    +0.260 C 
ATOM     10  H   UNL     1     -44.596  27.680   5.386  0.00  0.00    +0.150 HD
BRANCH   8  11
ATOM     11  C   UNL     1     -45.504  29.560   5.586  0.00  0.00    +0.097 C 
BRANCH  11  12
ATOM     12  C   UNL     1     -45.224  29.777   7.067  0.00  0.00    +0.081 C 
BRANCH  12  15
ATOM     13  N   UNL     1     -43.349  30.467   8.520  0.00  0.00    -0.346 N 
ATOM     14  N   UNL     1     -43.442  31.207   6.281  0.00  0.00    -0.289 NA
ATOM     15  C   UNL     1     -43.924  30.533   7.279  0.00  0.00    +0.095 C 
ATOM     16  H   UNL     1     -42.506  30.944   8.698  0.00  0.00    +0.143 HD
ATOM     17  H   UNL     1     -43.778  29.944   9.235  0.00  0.00    +0.143 HD
ATOM     18  H   UNL     1     -42.602  31.709   6.386  0.00  0.00    +0.188 HD
ENDBRANCH  12  15
ENDBRANCH  11  12
ENDBRANCH   8  11
ENDBRANCH   2   9
BRANCH   3  20
ATOM     19  O   UNL     1     -38.586  26.753   2.046  0.00  0.00    -0.267 OA
ATOM     20  N   UNL     1     -40.110  25.576   3.375  0.00  0.00    -0.277 N 
ATOM     21  C   UNL     1     -38.845  25.825   2.807  0.00  0.00    +0.276 C 
ATOM     22  H   UNL     1     -40.169  24.795   3.970  0.00  0.00    +0.155 HD
BRANCH  21  27
ATOM     23  S   UNL     1     -36.367  22.820   3.572  0.00  0.00    -0.059 S 
ATOM     24  O   UNL     1     -34.556  26.620   5.635  0.00  0.00    -0.265 OA
ATOM     25  N   UNL     1     -36.721  25.348   3.985  0.00  0.00    -0.380 NA
ATOM     26  N   UNL     1     -34.748  24.357   4.949  0.00  0.00    -0.247 N 
ATOM     27  C   UNL     1     -37.782  24.896   3.224  0.00  0.00    +0.176 C 
ATOM     28  C   UNL     1     -37.763  23.555   2.900  0.00  0.00    +0.129 C 
ATOM     29  C   UNL     1     -35.913  24.340   4.229  0.00  0.00    +0.214 C 
ATOM     30  C   UNL     1     -34.173  25.460   5.579  0.00  0.00    +0.306 C 
ATOM     31  H   UNL     1     -34.268  23.501   5.030  0.00  0.00    +0.158 HD
ENDBRANCH  21  27
ENDBRANCH   3  20
TORSDOF 6
ENDMDL
MODEL 3
REMARK VINA RESULT:      -6.4      6.661      9.633
REMARK  Name = 195395
REMARK  6 active torsions:
REMARK  status: ('A' for Active; 'I' for Inactive)
REMARK    1  A    between atoms: C_2  and  C_9
REMARK    2  A    between atoms: C_3  and  N_20
REMARK    3  A    between atoms: N_8  and  C_11
REMARK    4  A    between atoms: C_11  and  C_12
REMARK    5  A    between atoms: C_12  and  C_15
REMARK    6  A    between atoms: C_21  and  C_27
REMARK                            x       y       z     vdW  Elec       q    Type
REMARK                         _______ _______ _______ _____ _____    ______ ____
ROOT
ATOM      1  N   UNL     1     -34.822  22.415   1.489  0.00  0.00    -0.280 N 
ATOM      2  C   UNL     1     -35.435  21.891   2.597  0.00  0.00    +0.107 C 
ATOM      3  C   UNL     1     -34.806  20.208   1.240  0.00  0.00    +0.067 C 
ATOM      4  C   UNL     1     -35.438  20.519   2.468  0.00  0.00    +0.035 C 
ATOM      5  C   UNL     1     -34.435  21.399   0.654  0.00  0.00    +0.080 C 
ATOM      6  C   UNL     1     -34.606  23.821   1.225  0.00  0.00    +0.117 C 
ENDROOT
BRANCH   2   9
ATOM      7  O   UNL     1     -37.177  22.970   3.786  0.00  0.00    -0.269 OA
ATOM      8  N   UNL     1     -35.053  23.138   4.648  0.00  0.00    -0.299 N 
ATOM      9  C   UNL     1     -35.980  22.689   3.704  0.00  0.00    +0.260 C 
ATOM     10  H   UNL     1     -34.107  22.888   4.541  0.00  0.00    +0.150 HD
BRANCH   8  11
ATOM     11  C   UNL     1     -35.431  23.954   5.770  0.00  0.00    +0.097 C 
BRANCH  11  12
ATOM     12  C   UNL     1     -34.898  25.376   5.657  0.00  0.00    +0.081 C 
BRANCH  12  15
ATOM     13  N   UNL     1     -35.245  27.327   4.181  0.00  0.00    -0.346 N 
ATOM     14  N   UNL     1     -37.056  25.908   4.709  0.00  0.00    -0.289 NA
ATOM     15  C   UNL     1     -35.805  26.240   4.798  0.00  0.00    +0.095 C 
ATOM     16  H   UNL     1     -35.800  27.912   3.616  0.00  0.00    +0.143 HD
ATOM     17  H   UNL     1     -34.289  27.524   4.303  0.00  0.00    +0.143 HD
ATOM     18  H   UNL     1     -37.670  26.447   4.161  0.00  0.00    +0.188 HD
ENDBRANCH  12  15
ENDBRANCH  11  12
ENDBRANCH   8  11
ENDBRANCH   2   9
BRANCH   3  20
ATOM     19  O   UNL     1     -32.434  18.453   1.468  0.00  0.00    -0.267 OA
ATOM     20  N   UNL     1     -34.587  18.960   0.705  0.00  0.00    -0.277 N 
ATOM     21  C   UNL     1     -33.441  18.150   0.835  0.00  0.00    +0.276 C 
ATOM     22  H   UNL     1     -35.320  18.586   0.166  0.00  0.00    +0.155 HD
BRANCH  21  27
ATOM     23  S   UNL     1     -34.346  14.822  -1.131  0.00  0.00    -0.059 S 
ATOM     24  O   UNL     1     -29.981  14.285   0.491  0.00  0.00    -0.265 OA
ATOM     25  N   UNL     1     -32.459  15.964   0.218  0.00  0.00    -0.380 NA
ATOM     26  N   UNL     1     -32.004  13.755  -0.630  0.00  0.00    -0.247 N 
ATOM     27  C   UNL     1     -33.528  16.837   0.173  0.00  0.00    +0.176 C 
ATOM     28  C   UNL     1     -34.639  16.395  -0.513  0.00  0.00    +0.129 C 
ATOM     29  C   UNL     1     -32.777  14.869  -0.436  0.00  0.00    +0.214 C 
ATOM     30  C   UNL     1     -30.704  13.551  -0.167  0.00  0.00    +0.306 C 
ATOM     31  H   UNL     1     -32.408  13.023  -1.150  0.00  0.00    +0.158 HD
ENDBRANCH  21  27
ENDBRANCH   3  20
TORSDOF 6
ENDMDL
MODEL 4
REMARK VINA RESULT:      -6.3      6.319      8.670
REMARK  Name = 195395
REMARK  6 active torsions:
REMARK  status: ('A' for Active; 'I' for Inactive)
REMARK    1  A    between atoms: C_2  and  C_9
REMARK    2  A    between atoms: C_3  and  N_20
REMARK    3  A    between atoms: N_8  and  C_11
REMARK    4  A    between atoms: C_11  and  C_12
REMARK    5  A    between atoms: C_12  and  C_15
REMARK    6  A    between atoms: C_21  and  C_27
REMARK                            x       y       z     vdW  Elec       q    Type
REMARK                         _______ _______ _______ _____ _____    ______ ____
ROOT
ATOM      1  N   UNL     1     -37.358  22.583   2.714  0.00  0.00    -0.280 N 
ATOM      2  C   UNL     1     -36.224  22.300   3.430  0.00  0.00    +0.107 C 
ATOM      3  C   UNL     1     -36.707  20.551   2.096  0.00  0.00    +0.067 C 
ATOM      4  C   UNL     1     -35.798  21.042   3.065  0.00  0.00    +0.035 C 
ATOM      5  C   UNL     1     -37.662  21.525   1.898  0.00  0.00    +0.080 C 
ATOM      6  C   UNL     1     -38.126  23.807   2.792  0.00  0.00    +0.117 C 
ENDROOT
BRANCH   2   9
ATOM      7  O   UNL     1     -35.989  23.276   5.576  0.00  0.00    -0.269 OA
ATOM      8  N   UNL     1     -34.574  24.015   3.923  0.00  0.00    -0.299 N 
ATOM      9  C   UNL     1     -35.607  23.207   4.406  0.00  0.00    +0.260 C 
ATOM     10  H   UNL     1     -34.302  23.925   2.981  0.00  0.00    +0.150 HD
BRANCH   8  11
ATOM     11  C   UNL     1     -33.894  24.974   4.751  0.00  0.00    +0.097 C 
BRANCH  11  12
ATOM     12  C   UNL     1     -34.153  26.408   4.308  0.00  0.00    +0.081 C 
BRANCH  12  15
ATOM     13  N   UNL     1     -36.077  27.150   2.948  0.00  0.00    -0.346 N 
ATOM     14  N   UNL     1     -36.404  26.466   5.183  0.00  0.00    -0.289 NA
ATOM     15  C   UNL     1     -35.639  26.680   4.158  0.00  0.00    +0.095 C 
ATOM     16  H   UNL     1     -37.034  27.338   2.810  0.00  0.00    +0.143 HD
ATOM     17  H   UNL     1     -35.436  27.299   2.216  0.00  0.00    +0.143 HD
ATOM     18  H   UNL     1     -37.372  26.633   5.118  0.00  0.00    +0.188 HD
ENDBRANCH  12  15
ENDBRANCH  11  12
ENDBRANCH   8  11
ENDBRANCH   2   9
BRANCH   3  20
ATOM     19  O   UNL     1     -35.662  19.873  -0.588  0.00  0.00    -0.267 OA
ATOM     20  N   UNL     1     -36.670  19.335   1.454  0.00  0.00    -0.277 N 
ATOM     21  C   UNL     1     -36.163  19.048   0.171  0.00  0.00    +0.276 C 
ATOM     22  H   UNL     1     -37.041  18.572   1.951  0.00  0.00    +0.155 HD
BRANCH  21  27
ATOM     23  S   UNL     1     -35.614  15.262  -0.887  0.00  0.00    -0.059 S 
ATOM     24  O   UNL     1     -40.246  15.940  -0.661  0.00  0.00    -0.265 OA
ATOM     25  N   UNL     1     -37.452  17.009  -0.383  0.00  0.00    -0.380 NA
ATOM     26  N   UNL     1     -38.193  14.800  -0.995  0.00  0.00    -0.247 N 
ATOM     27  C   UNL     1     -36.228  17.630  -0.221  0.00  0.00    +0.176 C 
ATOM     28  C   UNL     1     -35.119  16.844  -0.450  0.00  0.00    +0.129 C 
ATOM     29  C   UNL     1     -37.250  15.758  -0.734  0.00  0.00    +0.214 C 
ATOM     30  C   UNL     1     -39.577  14.956  -0.941  0.00  0.00    +0.306 C 
ATOM     31  H   UNL     1     -37.857  13.908  -1.246  0.00  0.00    +0.158 HD
ENDBRANCH  21  27
ENDBRANCH   3  20
TORSDOF 6
ENDMDL
MODEL 5
REMARK VINA RESULT:      -6.1      6.641      9.703
REMARK  Name = 195395
REMARK  6 active torsions:
REMARK  status: ('A' for Active; 'I' for Inactive)
REMARK    1  A    between atoms: C_2  and  C_9
REMARK    2  A    between atoms: C_3  and  N_20
REMARK    3  A    between atoms: N_8  and  C_11
REMARK    4  A    between atoms: C_11  and  C_12
REMARK    5  A    between atoms: C_12  and  C_15
REMARK    6  A    between atoms: C_21  and  C_27
REMARK                            x       y       z     vdW  Elec       q    Type
REMARK                         _______ _______ _______ _____ _____    ______ ____
ROOT
ATOM      1  N   UNL     1     -34.605  22.107   1.290  0.00  0.00    -0.280 N 
ATOM      2  C   UNL     1     -35.264  21.511   2.333  0.00  0.00    +0.107 C 
ATOM      3  C   UNL     1     -34.434  19.915   0.979  0.00  0.00    +0.067 C 
ATOM      4  C   UNL     1     -35.172  20.146   2.164  0.00  0.00    +0.035 C 
ATOM      5  C   UNL     1     -34.095  21.145   0.457  0.00  0.00    +0.080 C 
ATOM      6  C   UNL     1     -34.458  23.532   1.084  0.00  0.00    +0.117 C 
ENDROOT
BRANCH   2   9
ATOM      7  O   UNL     1     -37.131  22.534   3.370  0.00  0.00    -0.269 OA
ATOM      8  N   UNL     1     -35.132  22.599   4.503  0.00  0.00    -0.299 N 
ATOM      9  C   UNL     1     -35.936  22.237   3.419  0.00  0.00    +0.260 C 
ATOM     10  H   UNL     1     -34.183  22.338   4.497  0.00  0.00    +0.150 HD
BRANCH   8  11
ATOM     11  C   UNL     1     -35.641  23.338   5.626  0.00  0.00    +0.097 C 
BRANCH  11  12
ATOM     12  C   UNL     1     -35.173  24.788   5.625  0.00  0.00    +0.081 C 
BRANCH  12  15
ATOM     13  N   UNL     1     -35.787  26.978   4.661  0.00  0.00    -0.346 N 
ATOM     14  N   UNL     1     -37.339  25.200   4.639  0.00  0.00    -0.289 NA
ATOM     15  C   UNL     1     -36.174  25.691   4.928  0.00  0.00    +0.095 C 
ATOM     16  H   UNL     1     -36.408  27.596   4.211  0.00  0.00    +0.143 HD
ATOM     17  H   UNL     1     -34.888  27.286   4.920  0.00  0.00    +0.143 HD
ATOM     18  H   UNL     1     -38.011  25.760   4.188  0.00  0.00    +0.188 HD
ENDBRANCH  12  15
ENDBRANCH  11  12
ENDBRANCH   8  11
ENDBRANCH   2   9
BRANCH   3  20
ATOM     19  O   UNL     1     -32.330  17.996   1.785  0.00  0.00    -0.267 OA
ATOM     20  N   UNL     1     -34.099  18.700   0.426  0.00  0.00    -0.277 N 
ATOM     21  C   UNL     1     -33.088  17.810   0.837  0.00  0.00    +0.276 C 
ATOM     22  H   UNL     1     -34.631  18.418  -0.352  0.00  0.00    +0.155 HD
BRANCH  21  27
ATOM     23  S   UNL     1     -32.143  14.531  -1.190  0.00  0.00    -0.059 S 
ATOM     24  O   UNL     1     -36.823  14.780  -1.135  0.00  0.00    -0.265 OA
ATOM     25  N   UNL     1     -34.155  15.925  -0.360  0.00  0.00    -0.380 NA
ATOM     26  N   UNL     1     -34.660  13.933  -1.618  0.00  0.00    -0.247 N 
ATOM     27  C   UNL     1     -33.004  16.561   0.061  0.00  0.00    +0.176 C 
ATOM     28  C   UNL     1     -31.817  15.955  -0.293  0.00  0.00    +0.129 C 
ATOM     29  C   UNL     1     -33.823  14.844  -1.029  0.00  0.00    +0.214 C 
ATOM     30  C   UNL     1     -36.054  13.967  -1.627  0.00  0.00    +0.306 C 
ATOM     31  H   UNL     1     -34.232  13.177  -2.081  0.00  0.00    +0.158 HD
ENDBRANCH  21  27
ENDBRANCH   3  20
TORSDOF 6
ENDMDL
MODEL 6
REMARK VINA RESULT:      -6.0      6.143      9.312
REMARK  Name = 195395
REMARK  6 active torsions:
REMARK  status: ('A' for Active; 'I' for Inactive)
REMARK    1  A    between atoms: C_2  and  C_9
REMARK    2  A    between atoms: C_3  and  N_20
REMARK    3  A    between atoms: N_8  and  C_11
REMARK    4  A    between atoms: C_11  and  C_12
REMARK    5  A    between atoms: C_12  and  C_15
REMARK    6  A    between atoms: C_21  and  C_27
REMARK                            x       y       z     vdW  Elec       q    Type
REMARK                         _______ _______ _______ _____ _____    ______ ____
ROOT
ATOM      1  N   UNL     1     -35.780  26.533   2.948  0.00  0.00    -0.280 N 
ATOM      2  C   UNL     1     -35.477  25.379   3.624  0.00  0.00    +0.107 C 
ATOM      3  C   UNL     1     -33.851  26.894   3.985  0.00  0.00    +0.067 C 
ATOM      4  C   UNL     1     -34.281  25.577   4.278  0.00  0.00    +0.035 C 
ATOM      5  C   UNL     1     -34.797  27.463   3.160  0.00  0.00    +0.080 C 
ATOM      6  C   UNL     1     -36.956  26.753   2.134  0.00  0.00    +0.117 C 
ENDROOT
BRANCH   2   9
ATOM      7  O   UNL     1     -37.193  23.976   4.459  0.00  0.00    -0.269 OA
ATOM      8  N   UNL     1     -36.019  23.229   2.629  0.00  0.00    -0.299 N 
ATOM      9  C   UNL     1     -36.309  24.169   3.622  0.00  0.00    +0.260 C 
ATOM     10  H   UNL     1     -35.304  23.427   1.982  0.00  0.00    +0.150 HD
BRANCH   8  11
ATOM     11  C   UNL     1     -36.727  21.982   2.519  0.00  0.00    +0.097 C 
BRANCH  11  12
ATOM     12  C   UNL     1     -37.822  22.029   1.462  0.00  0.00    +0.081 C 
BRANCH  12  15
ATOM     13  N   UNL     1     -39.617  23.416   2.441  0.00  0.00    -0.346 N 
ATOM     14  N   UNL     1     -39.884  21.076   2.283  0.00  0.00    -0.289 NA
ATOM     15  C   UNL     1     -39.196  22.159   2.094  0.00  0.00    +0.095 C 
ATOM     16  H   UNL     1     -40.502  23.542   2.854  0.00  0.00    +0.143 HD
ATOM     17  H   UNL     1     -39.035  24.193   2.277  0.00  0.00    +0.143 HD
ATOM     18  H   UNL     1     -40.778  21.127   2.692  0.00  0.00    +0.188 HD
ENDBRANCH  12  15
ENDBRANCH  11  12
ENDBRANCH   8  11
ENDBRANCH   2   9
BRANCH   3  20
ATOM     19  O   UNL     1     -32.931  27.392   6.754  0.00  0.00    -0.267 OA
ATOM     20  N   UNL     1     -32.707  27.518   4.428  0.00  0.00    -0.277 N 
ATOM     21  C   UNL     1     -32.301  27.738   5.759  0.00  0.00    +0.276 C 
ATOM     22  H   UNL     1     -32.099  27.851   3.731  0.00  0.00    +0.155 HD
BRANCH  21  27
ATOM     23  S   UNL     1     -29.130  30.122   5.928  0.00  0.00    -0.059 S 
ATOM     24  O   UNL     1     -27.704  25.880   7.323  0.00  0.00    -0.265 OA
ATOM     25  N   UNL     1     -29.897  27.689   6.351  0.00  0.00    -0.380 NA
ATOM     26  N   UNL     1     -27.580  28.187   6.780  0.00  0.00    -0.247 N 
ATOM     27  C   UNL     1     -30.995  28.403   5.909  0.00  0.00    +0.176 C 
ATOM     28  C   UNL     1     -30.774  29.735   5.630  0.00  0.00    +0.129 C 
ATOM     29  C   UNL     1     -28.859  28.494   6.399  0.00  0.00    +0.214 C 
ATOM     30  C   UNL     1     -27.111  26.942   7.201  0.00  0.00    +0.306 C 
ATOM     31  H   UNL     1     -26.924  28.921   6.755  0.00  0.00    +0.158 HD
ENDBRANCH  21  27
ENDBRANCH   3  20
TORSDOF 6
ENDMDL
MODEL 7
REMARK VINA RESULT:      -5.9      6.174      9.111
REMARK  Name = 195395
REMARK  6 active torsions:
REMARK  status: ('A' for Active; 'I' for Inactive)
REMARK    1  A    between atoms: C_2  and  C_9
REMARK    2  A    between atoms: C_3  and  N_20
REMARK    3  A    between atoms: N_8  and  C_11
REMARK    4  A    between atoms: C_11  and  C_12
REMARK    5  A    between atoms: C_12  and  C_15
REMARK    6  A    between atoms: C_21  and  C_27
REMARK                            x       y       z     vdW  Elec       q    Type
REMARK                         _______ _______ _______ _____ _____    ______ ____
ROOT
ATOM      1  N   UNL     1     -35.632  24.017   4.642  0.00  0.00    -0.280 N 
ATOM      2  C   UNL     1     -36.376  24.930   3.941  0.00  0.00    +0.107 C 
ATOM      3  C   UNL     1     -34.594  25.970   4.842  0.00  0.00    +0.067 C 
ATOM      4  C   UNL     1     -35.752  26.153   4.049  0.00  0.00    +0.035 C 
ATOM      5  C   UNL     1     -34.544  24.639   5.196  0.00  0.00    +0.080 C 
ATOM      6  C   UNL     1     -35.933  22.609   4.783  0.00  0.00    +0.117 C 
ENDROOT
BRANCH   2   9
ATOM      7  O   UNL     1     -38.726  24.712   3.742  0.00  0.00    -0.269 OA
ATOM      8  N   UNL     1     -37.460  24.171   1.902  0.00  0.00    -0.299 N 
ATOM      9  C   UNL     1     -37.615  24.616   3.217  0.00  0.00    +0.260 C 
ATOM     10  H   UNL     1     -36.552  24.111   1.526  0.00  0.00    +0.150 HD
BRANCH   8  11
ATOM     11  C   UNL     1     -38.577  23.798   1.078  0.00  0.00    +0.097 C 
BRANCH  11  12
ATOM     12  C   UNL     1     -38.505  22.344   0.629  0.00  0.00    +0.081 C 
BRANCH  12  15
ATOM     13  N   UNL     1     -40.062  21.352   2.272  0.00  0.00    -0.346 N 
ATOM     14  N   UNL     1     -37.795  20.693   2.244  0.00  0.00    -0.289 NA
ATOM     15  C   UNL     1     -38.783  21.395   1.781  0.00  0.00    +0.095 C 
ATOM     16  H   UNL     1     -40.282  20.750   3.019  0.00  0.00    +0.143 HD
ATOM     17  H   UNL     1     -40.760  21.923   1.877  0.00  0.00    +0.143 HD
ATOM     18  H   UNL     1     -37.943  20.069   2.990  0.00  0.00    +0.188 HD
ENDBRANCH  12  15
ENDBRANCH  11  12
ENDBRANCH   8  11
ENDBRANCH   2   9
BRANCH   3  20
ATOM     19  O   UNL     1     -32.318  27.071   3.304  0.00  0.00    -0.267 OA
ATOM     20  N   UNL     1     -33.671  26.922   5.208  0.00  0.00    -0.277 N 
ATOM     21  C   UNL     1     -32.596  27.424   4.447  0.00  0.00    +0.276 C 
ATOM     22  H   UNL     1     -33.773  27.300   6.110  0.00  0.00    +0.155 HD
BRANCH  21  27
ATOM     23  S   UNL     1     -30.975  30.712   5.970  0.00  0.00    -0.059 S 
ATOM     24  O   UNL     1     -28.167  27.150   7.154  0.00  0.00    -0.265 OA
ATOM     25  N   UNL     1     -30.642  28.155   5.779  0.00  0.00    -0.380 NA
ATOM     26  N   UNL     1     -28.969  29.378   7.007  0.00  0.00    -0.247 N 
ATOM     27  C   UNL     1     -31.805  28.477   5.106  0.00  0.00    +0.176 C 
ATOM     28  C   UNL     1     -32.148  29.812   5.101  0.00  0.00    +0.129 C 
ATOM     29  C   UNL     1     -30.120  29.255   6.274  0.00  0.00    +0.214 C 
ATOM     30  C   UNL     1     -28.104  28.350   7.381  0.00  0.00    +0.306 C 
ATOM     31  H   UNL     1     -28.728  30.288   7.299  0.00  0.00    +0.158 HD
ENDBRANCH  21  27
ENDBRANCH   3  20
TORSDOF 6
ENDMDL
MODEL 8
REMARK VINA RESULT:      -5.8      3.071      9.058
REMARK  Name = 195395
REMARK  6 active torsions:
REMARK  status: ('A' for Active; 'I' for Inactive)
REMARK    1  A    between atoms: C_2  and  C_9
REMARK    2  A    between atoms: C_3  and  N_20
REMARK    3  A    between atoms: N_8  and  C_11
REMARK    4  A    between atoms: C_11  and  C_12
REMARK    5  A    between atoms: C_12  and  C_15
REMARK    6  A    between atoms: C_21  and  C_27
REMARK                            x       y       z     vdW  Elec       q    Type
REMARK                         _______ _______ _______ _____ _____    ______ ____
ROOT
ATOM      1  N   UNL     1     -39.812  25.525   1.646  0.00  0.00    -0.280 N 
ATOM      2  C   UNL     1     -39.379  25.057   2.860  0.00  0.00    +0.107 C 
ATOM      3  C   UNL     1     -41.244  26.281   3.166  0.00  0.00    +0.067 C 
ATOM      4  C   UNL     1     -40.252  25.513   3.823  0.00  0.00    +0.035 C 
ATOM      5  C   UNL     1     -40.948  26.272   1.820  0.00  0.00    +0.080 C 
ATOM      6  C   UNL     1     -39.182  25.274   0.368  0.00  0.00    +0.117 C 
ENDROOT
BRANCH   2   9
ATOM      7  O   UNL     1     -38.213  22.996   2.916  0.00  0.00    -0.269 OA
ATOM      8  N   UNL     1     -37.023  24.893   3.433  0.00  0.00    -0.299 N 
ATOM      9  C   UNL     1     -38.187  24.220   3.054  0.00  0.00    +0.260 C 
ATOM     10  H   UNL     1     -37.050  25.872   3.529  0.00  0.00    +0.150 HD
BRANCH   8  11
ATOM     11  C   UNL     1     -35.786  24.206   3.689  0.00  0.00    +0.097 C 
BRANCH  11  12
ATOM     12  C   UNL     1     -35.695  23.689   5.119  0.00  0.00    +0.081 C 
BRANCH  12  15
ATOM     13  N   UNL     1     -34.869  21.668   6.275  0.00  0.00    -0.346 N 
ATOM     14  N   UNL     1     -35.793  21.496   4.109  0.00  0.00    -0.289 NA
ATOM     15  C   UNL     1     -35.451  22.191   5.150  0.00  0.00    +0.095 C 
ATOM     16  H   UNL     1     -34.694  20.701   6.334  0.00  0.00    +0.143 HD
ATOM     17  H   UNL     1     -34.626  22.258   7.024  0.00  0.00    +0.143 HD
ATOM     18  H   UNL     1     -35.647  20.523   4.098  0.00  0.00    +0.188 HD
ENDBRANCH  12  15
ENDBRANCH  11  12
ENDBRANCH   8  11
ENDBRANCH   2   9
BRANCH   3  20
ATOM     19  O   UNL     1     -42.148  29.080   2.835  0.00  0.00    -0.267 OA
ATOM     20  N   UNL     1     -42.316  26.928   3.737  0.00  0.00    -0.277 N 
ATOM     21  C   UNL     1     -42.717  28.266   3.557  0.00  0.00    +0.276 C 
ATOM     22  H   UNL     1     -42.870  26.390   4.346  0.00  0.00    +0.155 HD
BRANCH  21  27
ATOM     23  S   UNL     1     -46.358  29.096   4.903  0.00  0.00    -0.059 S 
ATOM     24  O   UNL     1     -43.364  30.234   8.325  0.00  0.00    -0.265 OA
ATOM     25  N   UNL     1     -43.860  29.160   5.562  0.00  0.00    -0.380 NA
ATOM     26  N   UNL     1     -45.436  29.948   7.205  0.00  0.00    -0.247 N 
ATOM     27  C   UNL     1     -43.940  28.652   4.280  0.00  0.00    +0.176 C 
ATOM     28  C   UNL     1     -45.210  28.542   3.755  0.00  0.00    +0.129 C 
ATOM     29  C   UNL     1     -45.073  29.429   5.990  0.00  0.00    +0.214 C 
ATOM     30  C   UNL     1     -44.583  30.301   8.249  0.00  0.00    +0.306 C 
ATOM     31  H   UNL     1     -46.400  30.085   7.355  0.00  0.00    +0.158 HD
ENDBRANCH  21  27
ENDBRANCH   3  20
TORSDOF 6
ENDMDL
MODEL 9
REMARK VINA RESULT:      -5.7      6.322     10.064
REMARK  Name = 195395
REMARK  6 active torsions:
REMARK  status: ('A' for Active; 'I' for Inactive)
REMARK    1  A    between atoms: C_2  and  C_9
REMARK    2  A    between atoms: C_3  and  N_20
REMARK    3  A    between atoms: N_8  and  C_11
REMARK    4  A    between atoms: C_11  and  C_12
REMARK    5  A    between atoms: C_12  and  C_15
REMARK    6  A    between atoms: C_21  and  C_27
REMARK                            x       y       z     vdW  Elec       q    Type
REMARK                         _______ _______ _______ _____ _____    ______ ____
ROOT
ATOM      1  N   UNL     1     -35.915  26.476   2.801  0.00  0.00    -0.280 N 
ATOM      2  C   UNL     1     -35.572  25.320   3.453  0.00  0.00    +0.107 C 
ATOM      3  C   UNL     1     -33.991  26.878   3.835  0.00  0.00    +0.067 C 
ATOM      4  C   UNL     1     -34.378  25.543   4.105  0.00  0.00    +0.035 C 
ATOM      5  C   UNL     1     -34.959  27.432   3.027  0.00  0.00    +0.080 C 
ATOM      6  C   UNL     1     -37.102  26.675   1.998  0.00  0.00    +0.117 C 
ENDROOT
BRANCH   2   9
ATOM      7  O   UNL     1     -37.375  23.939   4.124  0.00  0.00    -0.269 OA
ATOM      8  N   UNL     1     -35.891  23.066   2.601  0.00  0.00    -0.299 N 
ATOM      9  C   UNL     1     -36.366  24.084   3.432  0.00  0.00    +0.260 C 
ATOM     10  H   UNL     1     -35.081  23.229   2.066  0.00  0.00    +0.150 HD
BRANCH   8  11
ATOM     11  C   UNL     1     -36.544  21.790   2.498  0.00  0.00    +0.097 C 
BRANCH  11  12
ATOM     12  C   UNL     1     -35.584  20.629   2.727  0.00  0.00    +0.081 C 
BRANCH  12  15
ATOM     13  N   UNL     1     -34.948  18.962   1.018  0.00  0.00    -0.346 N 
ATOM     14  N   UNL     1     -34.166  21.182   0.851  0.00  0.00    -0.289 NA
ATOM     15  C   UNL     1     -34.851  20.258   1.450  0.00  0.00    +0.095 C 
ATOM     16  H   UNL     1     -34.487  18.682   0.195  0.00  0.00    +0.143 HD
ATOM     17  H   UNL     1     -35.479  18.310   1.531  0.00  0.00    +0.143 HD
ATOM     18  H   UNL     1     -33.679  20.974   0.022  0.00  0.00    +0.188 HD
ENDBRANCH  12  15
ENDBRANCH  11  12
ENDBRANCH   8  11
ENDBRANCH   2   9
BRANCH   3  20
ATOM     19  O   UNL     1     -33.040  27.300   6.606  0.00  0.00    -0.267 OA
ATOM     20  N   UNL     1     -32.864  27.528   4.284  0.00  0.00    -0.277 N 
ATOM     21  C   UNL     1     -32.442  27.710   5.615  0.00  0.00    +0.276 C 
ATOM     22  H   UNL     1     -32.283  27.912   3.590  0.00  0.00    +0.155 HD
BRANCH  21  27
ATOM     23  S   UNL     1     -29.359  30.204   5.805  0.00  0.00    -0.059 S 
ATOM     24  O   UNL     1     -27.779  26.001   7.151  0.00  0.00    -0.265 OA
ATOM     25  N   UNL     1     -30.038  27.741   6.202  0.00  0.00    -0.380 NA
ATOM     26  N   UNL     1     -27.738  28.317   6.633  0.00  0.00    -0.247 N 
ATOM     27  C   UNL     1     -31.161  28.420   5.770  0.00  0.00    +0.176 C 
ATOM     28  C   UNL     1     -30.989  29.762   5.505  0.00  0.00    +0.129 C 
ATOM     29  C   UNL     1     -29.029  28.582   6.258  0.00  0.00    +0.214 C 
ATOM     30  C   UNL     1     -27.225  27.085   7.040  0.00  0.00    +0.306 C 
ATOM     31  H   UNL     1     -27.109  29.074   6.615  0.00  0.00    +0.158 HD
ENDBRANCH  21  27
ENDBRANCH   3  20
TORSDOF 6
ENDMDL
