MODEL 1
REMARK VINA RESULT:      -4.8      0.000      0.000
REMARK  Name = 5487510
REMARK  6 active torsions:
REMARK  status: ('A' for Active; 'I' for Inactive)
REMARK    1  A    between atoms: N_3  and  C_15
REMARK    2  A    between atoms: N_4  and  C_7
REMARK    3  A    between atoms: N_4  and  N_8
REMARK    4  A    between atoms: N_8  and  C_11
REMARK    5  A    between atoms: C_11  and  N_12
REMARK    6  A    between atoms: C_15  and  C_16
REMARK                            x       y       z     vdW  Elec       q    Type
REMARK                         _______ _______ _______ _____ _____    ______ ____
ROOT
ATOM      1  S   UNL     1     -35.918  25.000   1.723  0.00  0.00    -0.092 S 
ATOM      2  O   UNL     1     -33.235  25.689   4.395  0.00  0.00    -0.274 OA
ATOM      3  N   UNL     1     -35.349  24.705   4.217  0.00  0.00    -0.252 N 
ATOM      4  C   UNL     1     -34.219  25.358   3.740  0.00  0.00    +0.239 C 
ATOM      5  C   UNL     1     -34.318  25.637   2.262  0.00  0.00    +0.146 C 
ATOM      6  C   UNL     1     -36.345  24.442   3.311  0.00  0.00    +0.220 C 
ENDROOT
BRANCH   6   7
ATOM      7  N   UNL     1     -37.472  23.861   3.541  0.00  0.00    -0.101 NA
BRANCH   7   8
ATOM      8  N   UNL     1     -37.454  22.527   3.303  0.00  0.00    -0.242 N 
ATOM      9  H   UNL     1     -36.859  21.950   3.832  0.00  0.00    +0.170 HD
BRANCH   8  11
ATOM     10  S   UNL     1     -39.624  22.788   1.812  0.00  0.00    -0.018 S 
ATOM     11  C   UNL     1     -38.257  21.962   2.331  0.00  0.00    +0.146 C 
BRANCH  11  12
ATOM     12  N   UNL     1     -37.836  20.726   1.867  0.00  0.00    -0.314 N 
ATOM     13  C   UNL     1     -36.490  20.191   1.944  0.00  0.00    +0.110 C 
ATOM     14  H   UNL     1     -38.518  20.155   1.445  0.00  0.00    +0.149 HD
ENDBRANCH  11  12
ENDBRANCH   8  11
ENDBRANCH   7   8
ENDBRANCH   6   7
BRANCH   3  15
ATOM     15  C   UNL     1     -35.470  24.317   5.616  0.00  0.00    +0.122 C 
BRANCH  15  16
ATOM     16  C   UNL     1     -34.870  22.962   5.799  0.00  0.00    -0.005 C 
ATOM     17  C   UNL     1     -35.508  21.936   6.374  0.00  0.00    -0.003 C 
ENDBRANCH  15  16
ENDBRANCH   3  15
TORSDOF 6
ENDMDL
MODEL 2
REMARK VINA RESULT:      -4.7      2.057      2.947
REMARK  Name = 5487510
REMARK  6 active torsions:
REMARK  status: ('A' for Active; 'I' for Inactive)
REMARK    1  A    between atoms: N_3  and  C_15
REMARK    2  A    between atoms: N_4  and  C_7
REMARK    3  A    between atoms: N_4  and  N_8
REMARK    4  A    between atoms: N_8  and  C_11
REMARK    5  A    between atoms: C_11  and  N_12
REMARK    6  A    between atoms: C_15  and  C_16
REMARK                            x       y       z     vdW  Elec       q    Type
REMARK                         _______ _______ _______ _____ _____    ______ ____
ROOT
ATOM      1  S   UNL     1     -36.158  24.960   1.662  0.00  0.00    -0.092 S 
ATOM      2  O   UNL     1     -33.185  25.435   4.060  0.00  0.00    -0.274 OA
ATOM      3  N   UNL     1     -35.373  24.609   4.089  0.00  0.00    -0.252 N 
ATOM      4  C   UNL     1     -34.250  25.181   3.504  0.00  0.00    +0.239 C 
ATOM      5  C   UNL     1     -34.471  25.474   2.042  0.00  0.00    +0.146 C 
ATOM      6  C   UNL     1     -36.469  24.425   3.286  0.00  0.00    +0.220 C 
ENDROOT
BRANCH   6   7
ATOM      7  N   UNL     1     -37.608  23.927   3.625  0.00  0.00    -0.101 NA
BRANCH   7   8
ATOM      8  N   UNL     1     -38.524  24.861   3.981  0.00  0.00    -0.242 N 
ATOM      9  H   UNL     1     -38.382  25.390   4.798  0.00  0.00    +0.170 HD
BRANCH   8  11
ATOM     10  S   UNL     1     -40.041  24.006   1.989  0.00  0.00    -0.018 S 
ATOM     11  C   UNL     1     -39.654  25.084   3.217  0.00  0.00    +0.146 C 
BRANCH  11  12
ATOM     12  N   UNL     1     -40.376  26.216   3.555  0.00  0.00    -0.314 N 
ATOM     13  C   UNL     1     -41.760  26.488   3.216  0.00  0.00    +0.110 C 
ATOM     14  H   UNL     1     -39.904  26.904   4.078  0.00  0.00    +0.149 HD
ENDBRANCH  11  12
ENDBRANCH   8  11
ENDBRANCH   7   8
ENDBRANCH   6   7
BRANCH   3  15
ATOM     15  C   UNL     1     -35.386  24.222   5.494  0.00  0.00    +0.122 C 
BRANCH  15  16
ATOM     16  C   UNL     1     -34.901  22.816   5.616  0.00  0.00    -0.005 C 
ATOM     17  C   UNL     1     -35.509  21.879   6.354  0.00  0.00    -0.003 C 
ENDBRANCH  15  16
ENDBRANCH   3  15
TORSDOF 6
ENDMDL
MODEL 3
REMARK VINA RESULT:      -4.7      2.564      4.975
REMARK  Name = 5487510
REMARK  6 active torsions:
REMARK  status: ('A' for Active; 'I' for Inactive)
REMARK    1  A    between atoms: N_3  and  C_15
REMARK    2  A    between atoms: N_4  and  C_7
REMARK    3  A    between atoms: N_4  and  N_8
REMARK    4  A    between atoms: N_8  and  C_11
REMARK    5  A    between atoms: C_11  and  N_12
REMARK    6  A    between atoms: C_15  and  C_16
REMARK                            x       y       z     vdW  Elec       q    Type
REMARK                         _______ _______ _______ _____ _____    ______ ____
ROOT
ATOM      1  S   UNL     1     -38.124  25.474   3.377  0.00  0.00    -0.092 S 
ATOM      2  O   UNL     1     -36.580  21.986   2.868  0.00  0.00    -0.274 OA
ATOM      3  N   UNL     1     -36.153  23.958   4.048  0.00  0.00    -0.252 N 
ATOM      4  C   UNL     1     -36.870  23.134   3.190  0.00  0.00    +0.239 C 
ATOM      5  C   UNL     1     -38.106  23.818   2.663  0.00  0.00    +0.146 C 
ATOM      6  C   UNL     1     -36.650  25.219   4.260  0.00  0.00    +0.220 C 
ENDROOT
BRANCH   6   7
ATOM      7  N   UNL     1     -36.141  26.142   5.002  0.00  0.00    -0.101 NA
BRANCH   7   8
ATOM      8  N   UNL     1     -35.467  27.090   4.306  0.00  0.00    -0.242 N 
ATOM      9  H   UNL     1     -35.958  27.857   3.936  0.00  0.00    +0.170 HD
BRANCH   8  11
ATOM     10  S   UNL     1     -33.521  26.531   2.603  0.00  0.00    -0.018 S 
ATOM     11  C   UNL     1     -34.103  26.998   4.107  0.00  0.00    +0.146 C 
BRANCH  11  12
ATOM     12  N   UNL     1     -33.327  27.314   5.211  0.00  0.00    -0.314 N 
ATOM     13  C   UNL     1     -32.170  28.188   5.229  0.00  0.00    +0.110 C 
ATOM     14  H   UNL     1     -33.587  26.905   6.068  0.00  0.00    +0.149 HD
ENDBRANCH  11  12
ENDBRANCH   8  11
ENDBRANCH   7   8
ENDBRANCH   6   7
BRANCH   3  15
ATOM     15  C   UNL     1     -34.929  23.504   4.695  0.00  0.00    +0.122 C 
BRANCH  15  16
ATOM     16  C   UNL     1     -35.281  22.797   5.961  0.00  0.00    -0.005 C 
ATOM     17  C   UNL     1     -35.180  21.473   6.128  0.00  0.00    -0.003 C 
ENDBRANCH  15  16
ENDBRANCH   3  15
TORSDOF 6
ENDMDL
MODEL 4
REMARK VINA RESULT:      -4.7      3.352      6.069
REMARK  Name = 5487510
REMARK  6 active torsions:
REMARK  status: ('A' for Active; 'I' for Inactive)
REMARK    1  A    between atoms: N_3  and  C_15
REMARK    2  A    between atoms: N_4  and  C_7
REMARK    3  A    between atoms: N_4  and  N_8
REMARK    4  A    between atoms: N_8  and  C_11
REMARK    5  A    between atoms: C_11  and  N_12
REMARK    6  A    between atoms: C_15  and  C_16
REMARK                            x       y       z     vdW  Elec       q    Type
REMARK                         _______ _______ _______ _____ _____    ______ ____
ROOT
ATOM      1  S   UNL     1     -35.193  26.853   2.802  0.00  0.00    -0.092 S 
ATOM      2  O   UNL     1     -37.919  24.453   4.077  0.00  0.00    -0.274 OA
ATOM      3  N   UNL     1     -35.733  25.094   4.604  0.00  0.00    -0.252 N 
ATOM      4  C   UNL     1     -36.913  25.125   3.870  0.00  0.00    +0.239 C 
ATOM      5  C   UNL     1     -36.839  26.115   2.736  0.00  0.00    +0.146 C 
ATOM      6  C   UNL     1     -34.720  25.921   4.189  0.00  0.00    +0.220 C 
ENDROOT
BRANCH   6   7
ATOM      7  N   UNL     1     -33.550  26.041   4.714  0.00  0.00    -0.101 NA
BRANCH   7   8
ATOM      8  N   UNL     1     -33.415  27.140   5.497  0.00  0.00    -0.242 N 
ATOM      9  H   UNL     1     -34.147  27.393   6.103  0.00  0.00    +0.170 HD
BRANCH   8  11
ATOM     10  S   UNL     1     -31.597  28.311   3.974  0.00  0.00    -0.018 S 
ATOM     11  C   UNL     1     -32.269  27.910   5.460  0.00  0.00    +0.146 C 
BRANCH  11  12
ATOM     12  N   UNL     1     -31.775  28.286   6.698  0.00  0.00    -0.314 N 
ATOM     13  C   UNL     1     -31.500  29.640   7.140  0.00  0.00    +0.110 C 
ATOM     14  H   UNL     1     -31.593  27.563   7.341  0.00  0.00    +0.149 HD
ENDBRANCH  11  12
ENDBRANCH   8  11
ENDBRANCH   7   8
ENDBRANCH   6   7
BRANCH   3  15
ATOM     15  C   UNL     1     -35.579  24.224   5.762  0.00  0.00    +0.122 C 
BRANCH  15  16
ATOM     16  C   UNL     1     -35.106  22.884   5.303  0.00  0.00    -0.005 C 
ATOM     17  C   UNL     1     -35.173  21.775   6.049  0.00  0.00    -0.003 C 
ENDBRANCH  15  16
ENDBRANCH   3  15
TORSDOF 6
ENDMDL
MODEL 5
REMARK VINA RESULT:      -4.6      2.249      4.337
REMARK  Name = 5487510
REMARK  6 active torsions:
REMARK  status: ('A' for Active; 'I' for Inactive)
REMARK    1  A    between atoms: N_3  and  C_15
REMARK    2  A    between atoms: N_4  and  C_7
REMARK    3  A    between atoms: N_4  and  N_8
REMARK    4  A    between atoms: N_8  and  C_11
REMARK    5  A    between atoms: C_11  and  N_12
REMARK    6  A    between atoms: C_15  and  C_16
REMARK                            x       y       z     vdW  Elec       q    Type
REMARK                         _______ _______ _______ _____ _____    ______ ____
ROOT
ATOM      1  S   UNL     1     -38.383  22.458   2.127  0.00  0.00    -0.092 S 
ATOM      2  O   UNL     1     -35.230  20.285   2.504  0.00  0.00    -0.274 OA
ATOM      3  N   UNL     1     -36.128  22.269   3.355  0.00  0.00    -0.252 N 
ATOM      4  C   UNL     1     -36.121  21.128   2.563  0.00  0.00    +0.239 C 
ATOM      5  C   UNL     1     -37.376  21.013   1.738  0.00  0.00    +0.146 C 
ATOM      6  C   UNL     1     -37.223  23.089   3.255  0.00  0.00    +0.220 C 
ENDROOT
BRANCH   6   7
ATOM      7  N   UNL     1     -37.428  24.194   3.885  0.00  0.00    -0.101 NA
BRANCH   7   8
ATOM      8  N   UNL     1     -37.165  25.298   3.145  0.00  0.00    -0.242 N 
ATOM      9  H   UNL     1     -37.735  25.507   2.370  0.00  0.00    +0.170 HD
BRANCH   8  11
ATOM     10  S   UNL     1     -35.132  26.720   2.226  0.00  0.00    -0.018 S 
ATOM     11  C   UNL     1     -36.114  26.138   3.458  0.00  0.00    +0.146 C 
BRANCH  11  12
ATOM     12  N   UNL     1     -35.973  26.424   4.806  0.00  0.00    -0.314 N 
ATOM     13  C   UNL     1     -34.885  26.001   5.667  0.00  0.00    +0.110 C 
ATOM     14  H   UNL     1     -36.681  26.967   5.221  0.00  0.00    +0.149 HD
ENDBRANCH  11  12
ENDBRANCH   8  11
ENDBRANCH   7   8
ENDBRANCH   6   7
BRANCH   3  15
ATOM     15  C   UNL     1     -35.023  22.581   4.252  0.00  0.00    +0.122 C 
BRANCH  15  16
ATOM     16  C   UNL     1     -35.122  21.715   5.464  0.00  0.00    -0.005 C 
ATOM     17  C   UNL     1     -35.547  22.148   6.657  0.00  0.00    -0.003 C 
ENDBRANCH  15  16
ENDBRANCH   3  15
TORSDOF 6
ENDMDL
MODEL 6
REMARK VINA RESULT:      -4.6      1.330      1.556
REMARK  Name = 5487510
REMARK  6 active torsions:
REMARK  status: ('A' for Active; 'I' for Inactive)
REMARK    1  A    between atoms: N_3  and  C_15
REMARK    2  A    between atoms: N_4  and  C_7
REMARK    3  A    between atoms: N_4  and  N_8
REMARK    4  A    between atoms: N_8  and  C_11
REMARK    5  A    between atoms: C_11  and  N_12
REMARK    6  A    between atoms: C_15  and  C_16
REMARK                            x       y       z     vdW  Elec       q    Type
REMARK                         _______ _______ _______ _____ _____    ______ ____
ROOT
ATOM      1  S   UNL     1     -35.436  24.179   1.502  0.00  0.00    -0.092 S 
ATOM      2  O   UNL     1     -33.341  25.611   4.396  0.00  0.00    -0.274 OA
ATOM      3  N   UNL     1     -35.262  24.318   4.067  0.00  0.00    -0.252 N 
ATOM      4  C   UNL     1     -34.155  25.054   3.664  0.00  0.00    +0.239 C 
ATOM      5  C   UNL     1     -34.037  25.108   2.162  0.00  0.00    +0.146 C 
ATOM      6  C   UNL     1     -36.053  23.792   3.078  0.00  0.00    +0.220 C 
ENDROOT
BRANCH   6   7
ATOM      7  N   UNL     1     -37.125  23.092   3.228  0.00  0.00    -0.101 NA
BRANCH   7   8
ATOM      8  N   UNL     1     -36.943  21.766   3.014  0.00  0.00    -0.242 N 
ATOM      9  H   UNL     1     -36.337  21.261   3.602  0.00  0.00    +0.170 HD
BRANCH   8  11
ATOM     10  S   UNL     1     -36.687  20.412   0.756  0.00  0.00    -0.018 S 
ATOM     11  C   UNL     1     -37.593  21.111   1.985  0.00  0.00    +0.146 C 
BRANCH  11  12
ATOM     12  N   UNL     1     -38.975  21.098   2.079  0.00  0.00    -0.314 N 
ATOM     13  C   UNL     1     -39.912  21.440   1.026  0.00  0.00    +0.110 C 
ATOM     14  H   UNL     1     -39.358  20.830   2.945  0.00  0.00    +0.149 HD
ENDBRANCH  11  12
ENDBRANCH   8  11
ENDBRANCH   7   8
ENDBRANCH   6   7
BRANCH   3  15
ATOM     15  C   UNL     1     -35.568  24.113   5.477  0.00  0.00    +0.122 C 
BRANCH  15  16
ATOM     16  C   UNL     1     -34.892  22.868   5.946  0.00  0.00    -0.005 C 
ATOM     17  C   UNL     1     -35.545  21.788   6.391  0.00  0.00    -0.003 C 
ENDBRANCH  15  16
ENDBRANCH   3  15
TORSDOF 6
ENDMDL
MODEL 7
REMARK VINA RESULT:      -4.6      2.347      3.085
REMARK  Name = 5487510
REMARK  6 active torsions:
REMARK  status: ('A' for Active; 'I' for Inactive)
REMARK    1  A    between atoms: N_3  and  C_15
REMARK    2  A    between atoms: N_4  and  C_7
REMARK    3  A    between atoms: N_4  and  N_8
REMARK    4  A    between atoms: N_8  and  C_11
REMARK    5  A    between atoms: C_11  and  N_12
REMARK    6  A    between atoms: C_15  and  C_16
REMARK                            x       y       z     vdW  Elec       q    Type
REMARK                         _______ _______ _______ _____ _____    ______ ____
ROOT
ATOM      1  S   UNL     1     -38.184  22.580   2.123  0.00  0.00    -0.092 S 
ATOM      2  O   UNL     1     -37.087  25.639   4.186  0.00  0.00    -0.274 OA
ATOM      3  N   UNL     1     -36.321  23.496   3.646  0.00  0.00    -0.252 N 
ATOM      4  C   UNL     1     -37.212  24.562   3.610  0.00  0.00    +0.239 C 
ATOM      5  C   UNL     1     -38.411  24.257   2.749  0.00  0.00    +0.146 C 
ATOM      6  C   UNL     1     -36.665  22.373   2.938  0.00  0.00    +0.220 C 
ENDROOT
BRANCH   6   7
ATOM      7  N   UNL     1     -35.995  21.276   2.846  0.00  0.00    -0.101 NA
BRANCH   7   8
ATOM      8  N   UNL     1     -36.708  20.246   2.329  0.00  0.00    -0.242 N 
ATOM      9  H   UNL     1     -37.576  20.011   2.729  0.00  0.00    +0.170 HD
BRANCH   8  11
ATOM     10  S   UNL     1     -34.647  19.718   0.757  0.00  0.00    -0.018 S 
ATOM     11  C   UNL     1     -36.240  19.519   1.252  0.00  0.00    +0.146 C 
BRANCH  11  12
ATOM     12  N   UNL     1     -37.167  18.670   0.670  0.00  0.00    -0.314 N 
ATOM     13  C   UNL     1     -37.962  18.943  -0.512  0.00  0.00    +0.110 C 
ATOM     14  H   UNL     1     -37.298  17.794   1.101  0.00  0.00    +0.149 HD
ENDBRANCH  11  12
ENDBRANCH   8  11
ENDBRANCH   7   8
ENDBRANCH   6   7
BRANCH   3  15
ATOM     15  C   UNL     1     -35.078  23.568   4.403  0.00  0.00    +0.122 C 
BRANCH  15  16
ATOM     16  C   UNL     1     -35.359  23.243   5.832  0.00  0.00    -0.005 C 
ATOM     17  C   UNL     1     -35.256  22.013   6.350  0.00  0.00    -0.003 C 
ENDBRANCH  15  16
ENDBRANCH   3  15
TORSDOF 6
ENDMDL
MODEL 8
REMARK VINA RESULT:      -4.5      1.511      1.702
REMARK  Name = 5487510
REMARK  6 active torsions:
REMARK  status: ('A' for Active; 'I' for Inactive)
REMARK    1  A    between atoms: N_3  and  C_15
REMARK    2  A    between atoms: N_4  and  C_7
REMARK    3  A    between atoms: N_4  and  N_8
REMARK    4  A    between atoms: N_8  and  C_11
REMARK    5  A    between atoms: C_11  and  N_12
REMARK    6  A    between atoms: C_15  and  C_16
REMARK                            x       y       z     vdW  Elec       q    Type
REMARK                         _______ _______ _______ _____ _____    ______ ____
ROOT
ATOM      1  S   UNL     1     -36.840  25.173   1.680  0.00  0.00    -0.092 S 
ATOM      2  O   UNL     1     -34.803  26.970   4.406  0.00  0.00    -0.274 OA
ATOM      3  N   UNL     1     -36.152  25.076   4.159  0.00  0.00    -0.252 N 
ATOM      4  C   UNL     1     -35.505  26.227   3.726  0.00  0.00    +0.239 C 
ATOM      5  C   UNL     1     -35.758  26.493   2.265  0.00  0.00    +0.146 C 
ATOM      6  C   UNL     1     -36.903  24.398   3.233  0.00  0.00    +0.220 C 
ENDROOT
BRANCH   6   7
ATOM      7  N   UNL     1     -37.589  23.324   3.422  0.00  0.00    -0.101 NA
BRANCH   7   8
ATOM      8  N   UNL     1     -36.952  22.196   3.022  0.00  0.00    -0.242 N 
ATOM      9  H   UNL     1     -36.118  21.927   3.469  0.00  0.00    +0.170 HD
BRANCH   8  11
ATOM     10  S   UNL     1     -36.433  20.942   0.751  0.00  0.00    -0.018 S 
ATOM     11  C   UNL     1     -37.453  21.415   1.997  0.00  0.00    +0.146 C 
BRANCH  11  12
ATOM     12  N   UNL     1     -38.796  21.093   2.109  0.00  0.00    -0.314 N 
ATOM     13  C   UNL     1     -39.844  21.428   1.164  0.00  0.00    +0.110 C 
ATOM     14  H   UNL     1     -39.065  20.585   2.909  0.00  0.00    +0.149 HD
ENDBRANCH  11  12
ENDBRANCH   8  11
ENDBRANCH   7   8
ENDBRANCH   6   7
BRANCH   3  15
ATOM     15  C   UNL     1     -36.037  24.609   5.534  0.00  0.00    +0.122 C 
BRANCH  15  16
ATOM     16  C   UNL     1     -34.995  23.542   5.601  0.00  0.00    -0.005 C 
ATOM     17  C   UNL     1     -35.174  22.363   6.208  0.00  0.00    -0.003 C 
ENDBRANCH  15  16
ENDBRANCH   3  15
TORSDOF 6
ENDMDL
MODEL 9
REMARK VINA RESULT:      -4.5      2.489      4.622
REMARK  Name = 5487510
REMARK  6 active torsions:
REMARK  status: ('A' for Active; 'I' for Inactive)
REMARK    1  A    between atoms: N_3  and  C_15
REMARK    2  A    between atoms: N_4  and  C_7
REMARK    3  A    between atoms: N_4  and  N_8
REMARK    4  A    between atoms: N_8  and  C_11
REMARK    5  A    between atoms: C_11  and  N_12
REMARK    6  A    between atoms: C_15  and  C_16
REMARK                            x       y       z     vdW  Elec       q    Type
REMARK                         _______ _______ _______ _____ _____    ______ ____
ROOT
ATOM      1  S   UNL     1     -38.756  24.037   2.730  0.00  0.00    -0.092 S 
ATOM      2  O   UNL     1     -36.313  21.276   1.624  0.00  0.00    -0.274 OA
ATOM      3  N   UNL     1     -36.484  22.944   3.254  0.00  0.00    -0.252 N 
ATOM      4  C   UNL     1     -36.915  22.202   2.161  0.00  0.00    +0.239 C 
ATOM      5  C   UNL     1     -38.263  22.663   1.670  0.00  0.00    +0.146 C 
ATOM      6  C   UNL     1     -37.309  23.950   3.687  0.00  0.00    +0.220 C 
ENDROOT
BRANCH   6   7
ATOM      7  N   UNL     1     -37.101  24.761   4.667  0.00  0.00    -0.101 NA
BRANCH   7   8
ATOM      8  N   UNL     1     -36.824  26.028   4.275  0.00  0.00    -0.242 N 
ATOM      9  H   UNL     1     -37.532  26.570   3.859  0.00  0.00    +0.170 HD
BRANCH   8  11
ATOM     10  S   UNL     1     -34.524  25.893   5.575  0.00  0.00    -0.018 S 
ATOM     11  C   UNL     1     -35.566  26.573   4.447  0.00  0.00    +0.146 C 
BRANCH  11  12
ATOM     12  N   UNL     1     -35.284  27.665   3.642  0.00  0.00    -0.314 N 
ATOM     13  C   UNL     1     -35.440  27.736   2.202  0.00  0.00    +0.110 C 
ATOM     14  H   UNL     1     -34.945  28.472   4.092  0.00  0.00    +0.149 HD
ENDBRANCH  11  12
ENDBRANCH   8  11
ENDBRANCH   7   8
ENDBRANCH   6   7
BRANCH   3  15
ATOM     15  C   UNL     1     -35.214  22.666   3.911  0.00  0.00    +0.122 C 
BRANCH  15  16
ATOM     16  C   UNL     1     -35.453  21.753   5.067  0.00  0.00    -0.005 C 
ATOM     17  C   UNL     1     -35.258  22.100   6.344  0.00  0.00    -0.003 C 
ENDBRANCH  15  16
ENDBRANCH   3  15
TORSDOF 6
ENDMDL
