MODEL 1
REMARK VINA RESULT:      -5.2      0.000      0.000
REMARK  Name = 191673
REMARK  11 active torsions:
REMARK  status: ('A' for Active; 'I' for Inactive)
REMARK    1  A    between atoms: C_1  and  C_4
REMARK    2  A    between atoms: C_1  and  N_15
REMARK    3  A    between atoms: N_3  and  C_6
REMARK    4  A    between atoms: C_9  and  O_12
REMARK    5  A    between atoms: O_12  and  C_13
REMARK    6  A    between atoms: N_15  and  C_17
REMARK    7  A    between atoms: N_15  and  C_22
REMARK    8  A    between atoms: C_17  and  C_19
REMARK    9  A    between atoms: C_19  and  O_20
REMARK   10  A    between atoms: C_22  and  C_24
REMARK   11  A    between atoms: C_24  and  O_25
REMARK                            x       y       z     vdW  Elec       q    Type
REMARK                         _______ _______ _______ _____ _____    ______ ____
ROOT
ATOM      1  C   UNL     1     -31.712  29.087   5.991  0.00  0.00    +0.012 C 
ENDROOT
BRANCH   1   4
ATOM      2  O   UNL     1     -32.078  26.953   7.056  0.00  0.00    -0.277 OA
ATOM      3  N   UNL     1     -33.252  27.493   5.096  0.00  0.00    -0.286 N 
ATOM      4  C   UNL     1     -32.349  27.716   6.135  0.00  0.00    +0.205 C 
ATOM      5  H   UNL     1     -33.348  28.222   4.441  0.00  0.00    +0.155 HD
BRANCH   3   6
ATOM      6  C   UNL     1     -34.044  26.343   4.873  0.00  0.00    +0.050 C 
ATOM      7  C   UNL     1     -35.167  26.105   5.666  0.00  0.00    +0.018 C 
ATOM      8  C   UNL     1     -33.703  25.446   3.861  0.00  0.00    +0.018 C 
ATOM      9  C   UNL     1     -35.608  24.075   4.433  0.00  0.00    +0.139 C 
ATOM     10  C   UNL     1     -35.949  24.971   5.446  0.00  0.00    +0.038 C 
ATOM     11  C   UNL     1     -34.485  24.312   3.641  0.00  0.00    +0.038 C 
BRANCH   9  12
ATOM     12  O   UNL     1     -36.371  22.969   4.217  0.00  0.00    -0.475 OA
BRANCH  12  13
ATOM     13  C   UNL     1     -35.707  21.706   4.237  0.00  0.00    +0.206 C 
ATOM     14  C   UNL     1     -35.229  21.422   5.644  0.00  0.00    +0.051 C 
ENDBRANCH  12  13
ENDBRANCH   9  12
ENDBRANCH   3   6
ENDBRANCH   1   4
BRANCH   1  15
ATOM     15  N   UNL     1     -30.281  28.934   5.733  0.00  0.00    +0.407 N 
ATOM     16  H   UNL     1     -30.073  27.939   5.647  0.00  0.00    -0.077 HD
BRANCH  15  17
ATOM     17  C   UNL     1     -29.499  29.476   6.844  0.00  0.00    +0.036 C 
BRANCH  17  19
ATOM     18  O   UNL     1     -27.641  28.590   8.098  0.00  0.00    -0.253 OA
ATOM     19  C   UNL     1     -28.620  28.386   7.391  0.00  0.00    +0.293 C 
BRANCH  19  20
ATOM     20  O   UNL     1     -29.000  27.147   6.986  0.00  0.00    -0.482 OA
ATOM     21  H   UNL     1     -28.417  26.622   6.474  0.00  0.00    +0.295 HD
ENDBRANCH  19  20
ENDBRANCH  17  19
ENDBRANCH  15  17
BRANCH  15  22
ATOM     22  C   UNL     1     -29.914  29.593   4.480  0.00  0.00    +0.036 C 
BRANCH  22  24
ATOM     23  O   UNL     1     -29.650  28.740   2.242  0.00  0.00    -0.253 OA
ATOM     24  C   UNL     1     -29.619  28.539   3.449  0.00  0.00    +0.293 C 
BRANCH  24  25
ATOM     25  O   UNL     1     -29.353  27.325   3.994  0.00  0.00    -0.482 OA
ATOM     26  H   UNL     1     -28.586  26.853   3.735  0.00  0.00    +0.295 HD
ENDBRANCH  24  25
ENDBRANCH  22  24
ENDBRANCH  15  22
ENDBRANCH   1  15
TORSDOF 11
ENDMDL
MODEL 2
REMARK VINA RESULT:      -5.1      2.600      7.763
REMARK  Name = 191673
REMARK  11 active torsions:
REMARK  status: ('A' for Active; 'I' for Inactive)
REMARK    1  A    between atoms: C_1  and  C_4
REMARK    2  A    between atoms: C_1  and  N_15
REMARK    3  A    between atoms: N_3  and  C_6
REMARK    4  A    between atoms: C_9  and  O_12
REMARK    5  A    between atoms: O_12  and  C_13
REMARK    6  A    between atoms: N_15  and  C_17
REMARK    7  A    between atoms: N_15  and  C_22
REMARK    8  A    between atoms: C_17  and  C_19
REMARK    9  A    between atoms: C_19  and  O_20
REMARK   10  A    between atoms: C_22  and  C_24
REMARK   11  A    between atoms: C_24  and  O_25
REMARK                            x       y       z     vdW  Elec       q    Type
REMARK                         _______ _______ _______ _____ _____    ______ ____
ROOT
ATOM      1  C   UNL     1     -35.768  24.214   2.479  0.00  0.00    +0.012 C 
ENDROOT
BRANCH   1   4
ATOM      2  O   UNL     1     -36.152  26.481   3.210  0.00  0.00    -0.277 OA
ATOM      3  N   UNL     1     -34.181  25.372   3.839  0.00  0.00    -0.286 N 
ATOM      4  C   UNL     1     -35.416  25.500   3.206  0.00  0.00    +0.205 C 
ATOM      5  H   UNL     1     -33.726  24.505   3.732  0.00  0.00    +0.155 HD
BRANCH   3   6
ATOM      6  C   UNL     1     -33.504  26.342   4.615  0.00  0.00    +0.050 C 
ATOM      7  C   UNL     1     -33.505  26.247   6.007  0.00  0.00    +0.018 C 
ATOM      8  C   UNL     1     -32.836  27.394   3.989  0.00  0.00    +0.018 C 
ATOM      9  C   UNL     1     -32.169  28.254   6.146  0.00  0.00    +0.139 C 
ATOM     10  C   UNL     1     -32.837  27.203   6.772  0.00  0.00    +0.038 C 
ATOM     11  C   UNL     1     -32.169  28.351   4.755  0.00  0.00    +0.038 C 
BRANCH   9  12
ATOM     12  O   UNL     1     -31.516  29.186   6.892  0.00  0.00    -0.475 OA
BRANCH  12  13
ATOM     13  C   UNL     1     -30.310  29.724   6.350  0.00  0.00    +0.206 C 
ATOM     14  C   UNL     1     -29.149  28.847   6.765  0.00  0.00    +0.051 C 
ENDBRANCH  12  13
ENDBRANCH   9  12
ENDBRANCH   3   6
ENDBRANCH   1   4
BRANCH   1  15
ATOM     15  N   UNL     1     -36.579  23.367   3.353  0.00  0.00    +0.407 N 
ATOM     16  H   UNL     1     -36.793  23.890   4.202  0.00  0.00    -0.077 HD
BRANCH  15  17
ATOM     17  C   UNL     1     -35.840  22.160   3.725  0.00  0.00    +0.036 C 
BRANCH  17  19
ATOM     18  O   UNL     1     -35.510  23.243   5.853  0.00  0.00    -0.253 OA
ATOM     19  C   UNL     1     -35.556  22.207   5.201  0.00  0.00    +0.293 C 
BRANCH  19  20
ATOM     20  O   UNL     1     -35.313  20.982   5.732  0.00  0.00    -0.482 OA
ATOM     21  H   UNL     1     -35.816  20.680   6.463  0.00  0.00    +0.295 HD
ENDBRANCH  19  20
ENDBRANCH  17  19
ENDBRANCH  15  17
BRANCH  15  22
ATOM     22  C   UNL     1     -37.838  23.013   2.698  0.00  0.00    +0.036 C 
BRANCH  22  24
ATOM     23  O   UNL     1     -39.717  24.414   2.135  0.00  0.00    -0.253 OA
ATOM     24  C   UNL     1     -38.827  24.123   2.925  0.00  0.00    +0.293 C 
BRANCH  24  25
ATOM     25  O   UNL     1     -38.609  24.798   4.081  0.00  0.00    -0.482 OA
ATOM     26  H   UNL     1     -37.856  24.602   4.603  0.00  0.00    +0.295 HD
ENDBRANCH  24  25
ENDBRANCH  22  24
ENDBRANCH  15  22
ENDBRANCH   1  15
TORSDOF 11
ENDMDL
MODEL 3
REMARK VINA RESULT:      -5.1      6.516      9.332
REMARK  Name = 191673
REMARK  11 active torsions:
REMARK  status: ('A' for Active; 'I' for Inactive)
REMARK    1  A    between atoms: C_1  and  C_4
REMARK    2  A    between atoms: C_1  and  N_15
REMARK    3  A    between atoms: N_3  and  C_6
REMARK    4  A    between atoms: C_9  and  O_12
REMARK    5  A    between atoms: O_12  and  C_13
REMARK    6  A    between atoms: N_15  and  C_17
REMARK    7  A    between atoms: N_15  and  C_22
REMARK    8  A    between atoms: C_17  and  C_19
REMARK    9  A    between atoms: C_19  and  O_20
REMARK   10  A    between atoms: C_22  and  C_24
REMARK   11  A    between atoms: C_24  and  O_25
REMARK                            x       y       z     vdW  Elec       q    Type
REMARK                         _______ _______ _______ _____ _____    ______ ____
ROOT
ATOM      1  C   UNL     1     -36.321  23.482   1.109  0.00  0.00    +0.012 C 
ENDROOT
BRANCH   1   4
ATOM      2  O   UNL     1     -33.923  23.583   0.870  0.00  0.00    -0.277 OA
ATOM      3  N   UNL     1     -34.995  21.498   0.989  0.00  0.00    -0.286 N 
ATOM      4  C   UNL     1     -34.930  22.890   0.973  0.00  0.00    +0.205 C 
ATOM      5  H   UNL     1     -35.893  21.106   1.083  0.00  0.00    +0.155 HD
BRANCH   3   6
ATOM      6  C   UNL     1     -33.921  20.582   0.887  0.00  0.00    +0.050 C 
ATOM      7  C   UNL     1     -32.820  20.885   0.085  0.00  0.00    +0.018 C 
ATOM      8  C   UNL     1     -33.963  19.376   1.587  0.00  0.00    +0.018 C 
ATOM      9  C   UNL     1     -31.804  18.777   0.685  0.00  0.00    +0.139 C 
ATOM     10  C   UNL     1     -31.761  19.982  -0.016  0.00  0.00    +0.038 C 
ATOM     11  C   UNL     1     -32.905  18.474   1.486  0.00  0.00    +0.038 C 
BRANCH   9  12
ATOM     12  O   UNL     1     -30.771  17.897   0.589  0.00  0.00    -0.475 OA
BRANCH  12  13
ATOM     13  C   UNL     1     -29.548  18.387   0.039  0.00  0.00    +0.206 C 
ATOM     14  C   UNL     1     -28.410  18.030   0.971  0.00  0.00    +0.051 C 
ENDBRANCH  12  13
ENDBRANCH   9  12
ENDBRANCH   3   6
ENDBRANCH   1   4
BRANCH   1  15
ATOM     15  N   UNL     1     -36.973  22.926   2.295  0.00  0.00    +0.407 N 
ATOM     16  H   UNL     1     -36.671  21.958   2.405  0.00  0.00    -0.077 HD
BRANCH  15  17
ATOM     17  C   UNL     1     -38.426  22.945   2.136  0.00  0.00    +0.036 C 
BRANCH  17  19
ATOM     18  O   UNL     1     -40.097  21.220   1.919  0.00  0.00    -0.253 OA
ATOM     19  C   UNL     1     -38.916  21.527   2.032  0.00  0.00    +0.293 C 
BRANCH  19  20
ATOM     20  O   UNL     1     -37.916  20.614   2.118  0.00  0.00    -0.482 OA
ATOM     21  H   UNL     1     -37.161  20.793   2.645  0.00  0.00    +0.295 HD
ENDBRANCH  19  20
ENDBRANCH  17  19
ENDBRANCH  15  17
BRANCH  15  22
ATOM     22  C   UNL     1     -36.579  23.671   3.491  0.00  0.00    +0.036 C 
BRANCH  22  24
ATOM     23  O   UNL     1     -36.012  22.968   5.725  0.00  0.00    -0.253 OA
ATOM     24  C   UNL     1     -36.116  22.694   4.536  0.00  0.00    +0.293 C 
BRANCH  24  25
ATOM     25  O   UNL     1     -35.785  21.484   4.020  0.00  0.00    -0.482 OA
ATOM     26  H   UNL     1     -35.355  20.847   4.557  0.00  0.00    +0.295 HD
ENDBRANCH  24  25
ENDBRANCH  22  24
ENDBRANCH  15  22
ENDBRANCH   1  15
TORSDOF 11
ENDMDL
MODEL 4
REMARK VINA RESULT:      -5.0      2.056      2.543
REMARK  Name = 191673
REMARK  11 active torsions:
REMARK  status: ('A' for Active; 'I' for Inactive)
REMARK    1  A    between atoms: C_1  and  C_4
REMARK    2  A    between atoms: C_1  and  N_15
REMARK    3  A    between atoms: N_3  and  C_6
REMARK    4  A    between atoms: C_9  and  O_12
REMARK    5  A    between atoms: O_12  and  C_13
REMARK    6  A    between atoms: N_15  and  C_17
REMARK    7  A    between atoms: N_15  and  C_22
REMARK    8  A    between atoms: C_17  and  C_19
REMARK    9  A    between atoms: C_19  and  O_20
REMARK   10  A    between atoms: C_22  and  C_24
REMARK   11  A    between atoms: C_24  and  O_25
REMARK                            x       y       z     vdW  Elec       q    Type
REMARK                         _______ _______ _______ _____ _____    ______ ____
ROOT
ATOM      1  C   UNL     1     -32.121  28.086   6.582  0.00  0.00    +0.012 C 
ENDROOT
BRANCH   1   4
ATOM      2  O   UNL     1     -32.386  27.155   4.372  0.00  0.00    -0.277 OA
ATOM      3  N   UNL     1     -33.860  26.523   6.087  0.00  0.00    -0.286 N 
ATOM      4  C   UNL     1     -32.784  27.213   5.531  0.00  0.00    +0.205 C 
ATOM      5  H   UNL     1     -34.035  26.688   7.041  0.00  0.00    +0.155 HD
BRANCH   3   6
ATOM      6  C   UNL     1     -34.729  25.613   5.440  0.00  0.00    +0.050 C 
ATOM      7  C   UNL     1     -36.024  26.007   5.102  0.00  0.00    +0.018 C 
ATOM      8  C   UNL     1     -34.292  24.324   5.139  0.00  0.00    +0.018 C 
ATOM      9  C   UNL     1     -36.443  23.821   4.162  0.00  0.00    +0.139 C 
ATOM     10  C   UNL     1     -36.881  25.110   4.463  0.00  0.00    +0.038 C 
ATOM     11  C   UNL     1     -35.149  23.427   4.501  0.00  0.00    +0.038 C 
BRANCH   9  12
ATOM     12  O   UNL     1     -37.278  22.947   3.538  0.00  0.00    -0.475 OA
BRANCH  12  13
ATOM     13  C   UNL     1     -38.287  23.501   2.694  0.00  0.00    +0.206 C 
ATOM     14  C   UNL     1     -39.112  22.376   2.107  0.00  0.00    +0.051 C 
ENDBRANCH  12  13
ENDBRANCH   9  12
ENDBRANCH   3   6
ENDBRANCH   1   4
BRANCH   1  15
ATOM     15  N   UNL     1     -31.260  29.069   5.926  0.00  0.00    +0.407 N 
ATOM     16  H   UNL     1     -31.170  28.815   4.942  0.00  0.00    -0.077 HD
BRANCH  15  17
ATOM     17  C   UNL     1     -29.928  29.068   6.530  0.00  0.00    +0.036 C 
BRANCH  17  19
ATOM     18  O   UNL     1     -28.573  27.092   6.795  0.00  0.00    -0.253 OA
ATOM     19  C   UNL     1     -29.186  27.849   6.053  0.00  0.00    +0.293 C 
BRANCH  19  20
ATOM     20  O   UNL     1     -29.231  27.697   4.706  0.00  0.00    -0.482 OA
ATOM     21  H   UNL     1     -29.689  28.321   4.178  0.00  0.00    +0.295 HD
ENDBRANCH  19  20
ENDBRANCH  17  19
ENDBRANCH  15  17
BRANCH  15  22
ATOM     22  C   UNL     1     -31.856  30.403   6.005  0.00  0.00    +0.036 C 
BRANCH  22  24
ATOM     23  O   UNL     1     -33.444  30.463   4.193  0.00  0.00    -0.253 OA
ATOM     24  C   UNL     1     -32.352  30.791   4.640  0.00  0.00    +0.293 C 
BRANCH  24  25
ATOM     25  O   UNL     1     -31.446  31.512   3.932  0.00  0.00    -0.482 OA
ATOM     26  H   UNL     1     -31.463  31.496   2.995  0.00  0.00    +0.295 HD
ENDBRANCH  24  25
ENDBRANCH  22  24
ENDBRANCH  15  22
ENDBRANCH   1  15
TORSDOF 11
ENDMDL
MODEL 5
REMARK VINA RESULT:      -5.0      2.241      3.757
REMARK  Name = 191673
REMARK  11 active torsions:
REMARK  status: ('A' for Active; 'I' for Inactive)
REMARK    1  A    between atoms: C_1  and  C_4
REMARK    2  A    between atoms: C_1  and  N_15
REMARK    3  A    between atoms: N_3  and  C_6
REMARK    4  A    between atoms: C_9  and  O_12
REMARK    5  A    between atoms: O_12  and  C_13
REMARK    6  A    between atoms: N_15  and  C_17
REMARK    7  A    between atoms: N_15  and  C_22
REMARK    8  A    between atoms: C_17  and  C_19
REMARK    9  A    between atoms: C_19  and  O_20
REMARK   10  A    between atoms: C_22  and  C_24
REMARK   11  A    between atoms: C_24  and  O_25
REMARK                            x       y       z     vdW  Elec       q    Type
REMARK                         _______ _______ _______ _____ _____    ______ ____
ROOT
ATOM      1  C   UNL     1     -30.752  29.065   3.051  0.00  0.00    +0.012 C 
ENDROOT
BRANCH   1   4
ATOM      2  O   UNL     1     -30.774  26.656   2.928  0.00  0.00    -0.277 OA
ATOM      3  N   UNL     1     -32.648  27.797   3.764  0.00  0.00    -0.286 N 
ATOM      4  C   UNL     1     -31.367  27.688   3.227  0.00  0.00    +0.205 C 
ATOM      5  H   UNL     1     -32.966  28.711   3.947  0.00  0.00    +0.155 HD
BRANCH   3   6
ATOM      6  C   UNL     1     -33.546  26.749   4.075  0.00  0.00    +0.050 C 
ATOM      7  C   UNL     1     -34.170  26.036   3.050  0.00  0.00    +0.018 C 
ATOM      8  C   UNL     1     -33.808  26.427   5.407  0.00  0.00    +0.018 C 
ATOM      9  C   UNL     1     -35.315  24.681   4.689  0.00  0.00    +0.139 C 
ATOM     10  C   UNL     1     -35.054  25.002   3.357  0.00  0.00    +0.038 C 
ATOM     11  C   UNL     1     -34.693  25.393   5.713  0.00  0.00    +0.038 C 
BRANCH   9  12
ATOM     12  O   UNL     1     -36.177  23.671   4.989  0.00  0.00    -0.475 OA
BRANCH  12  13
ATOM     13  C   UNL     1     -35.694  22.337   4.835  0.00  0.00    +0.206 C 
ATOM     14  C   UNL     1     -35.284  21.801   6.190  0.00  0.00    +0.051 C 
ENDBRANCH  12  13
ENDBRANCH   9  12
ENDBRANCH   3   6
ENDBRANCH   1   4
BRANCH   1  15
ATOM     15  N   UNL     1     -31.294  29.972   4.063  0.00  0.00    +0.407 N 
ATOM     16  H   UNL     1     -32.157  29.571   4.428  0.00  0.00    -0.077 HD
BRANCH  15  17
ATOM     17  C   UNL     1     -31.600  31.274   3.471  0.00  0.00    +0.036 C 
BRANCH  17  19
ATOM     18  O   UNL     1     -33.653  32.203   2.614  0.00  0.00    -0.253 OA
ATOM     19  C   UNL     1     -33.093  31.415   3.366  0.00  0.00    +0.293 C 
BRANCH  19  20
ATOM     20  O   UNL     1     -33.763  30.605   4.225  0.00  0.00    -0.482 OA
ATOM     21  H   UNL     1     -34.687  30.483   4.131  0.00  0.00    +0.295 HD
ENDBRANCH  19  20
ENDBRANCH  17  19
ENDBRANCH  15  17
BRANCH  15  22
ATOM     22  C   UNL     1     -30.350  30.123   5.171  0.00  0.00    +0.036 C 
BRANCH  22  24
ATOM     23  O   UNL     1     -32.163  29.294   6.526  0.00  0.00    -0.253 OA
ATOM     24  C   UNL     1     -30.970  29.545   6.413  0.00  0.00    +0.293 C 
BRANCH  24  25
ATOM     25  O   UNL     1     -30.074  29.363   7.416  0.00  0.00    -0.482 OA
ATOM     26  H   UNL     1     -29.473  30.048   7.637  0.00  0.00    +0.295 HD
ENDBRANCH  24  25
ENDBRANCH  22  24
ENDBRANCH  15  22
ENDBRANCH   1  15
TORSDOF 11
ENDMDL
MODEL 6
REMARK VINA RESULT:      -5.0      6.524      9.521
REMARK  Name = 191673
REMARK  11 active torsions:
REMARK  status: ('A' for Active; 'I' for Inactive)
REMARK    1  A    between atoms: C_1  and  C_4
REMARK    2  A    between atoms: C_1  and  N_15
REMARK    3  A    between atoms: N_3  and  C_6
REMARK    4  A    between atoms: C_9  and  O_12
REMARK    5  A    between atoms: O_12  and  C_13
REMARK    6  A    between atoms: N_15  and  C_17
REMARK    7  A    between atoms: N_15  and  C_22
REMARK    8  A    between atoms: C_17  and  C_19
REMARK    9  A    between atoms: C_19  and  O_20
REMARK   10  A    between atoms: C_22  and  C_24
REMARK   11  A    between atoms: C_24  and  O_25
REMARK                            x       y       z     vdW  Elec       q    Type
REMARK                         _______ _______ _______ _____ _____    ______ ____
ROOT
ATOM      1  C   UNL     1     -35.778  23.262   1.430  0.00  0.00    +0.012 C 
ENDROOT
BRANCH   1   4
ATOM      2  O   UNL     1     -33.763  22.469   0.368  0.00  0.00    -0.277 OA
ATOM      3  N   UNL     1     -35.317  20.927   1.218  0.00  0.00    -0.286 N 
ATOM      4  C   UNL     1     -34.818  22.197   0.932  0.00  0.00    +0.205 C 
ATOM      5  H   UNL     1     -36.184  20.896   1.683  0.00  0.00    +0.155 HD
BRANCH   3   6
ATOM      6  C   UNL     1     -34.723  19.679   0.917  0.00  0.00    +0.050 C 
ATOM      7  C   UNL     1     -33.552  19.288   1.569  0.00  0.00    +0.018 C 
ATOM      8  C   UNL     1     -35.307  18.838  -0.029  0.00  0.00    +0.018 C 
ATOM      9  C   UNL     1     -33.552  17.217   0.326  0.00  0.00    +0.139 C 
ATOM     10  C   UNL     1     -32.967  18.057   1.273  0.00  0.00    +0.038 C 
ATOM     11  C   UNL     1     -34.721  17.607  -0.325  0.00  0.00    +0.038 C 
BRANCH   9  12
ATOM     12  O   UNL     1     -32.982  16.015   0.039  0.00  0.00    -0.475 OA
BRANCH  12  13
ATOM     13  C   UNL     1     -32.008  15.989  -1.003  0.00  0.00    +0.206 C 
ATOM     14  C   UNL     1     -30.636  15.796  -0.393  0.00  0.00    +0.051 C 
ENDBRANCH  12  13
ENDBRANCH   9  12
ENDBRANCH   3   6
ENDBRANCH   1   4
BRANCH   1  15
ATOM     15  N   UNL     1     -36.517  22.750   2.584  0.00  0.00    +0.407 N 
ATOM     16  H   UNL     1     -36.429  21.734   2.599  0.00  0.00    -0.077 HD
BRANCH  15  17
ATOM     17  C   UNL     1     -37.935  23.092   2.477  0.00  0.00    +0.036 C 
BRANCH  17  19
ATOM     18  O   UNL     1     -39.925  21.804   2.040  0.00  0.00    -0.253 OA
ATOM     19  C   UNL     1     -38.717  21.830   2.242  0.00  0.00    +0.293 C 
BRANCH  19  20
ATOM     20  O   UNL     1     -37.952  20.711   2.318  0.00  0.00    -0.482 OA
ATOM     21  H   UNL     1     -38.358  19.871   2.403  0.00  0.00    +0.295 HD
ENDBRANCH  19  20
ENDBRANCH  17  19
ENDBRANCH  15  17
BRANCH  15  22
ATOM     22  C   UNL     1     -35.956  23.280   3.827  0.00  0.00    +0.036 C 
BRANCH  22  24
ATOM     23  O   UNL     1     -35.885  22.295   6.025  0.00  0.00    -0.253 OA
ATOM     24  C   UNL     1     -35.815  22.152   4.811  0.00  0.00    +0.293 C 
BRANCH  24  25
ATOM     25  O   UNL     1     -35.561  20.959   4.217  0.00  0.00    -0.482 OA
ATOM     26  H   UNL     1     -34.799  20.855   3.681  0.00  0.00    +0.295 HD
ENDBRANCH  24  25
ENDBRANCH  22  24
ENDBRANCH  15  22
ENDBRANCH   1  15
TORSDOF 11
ENDMDL
MODEL 7
REMARK VINA RESULT:      -5.0      4.252      7.171
REMARK  Name = 191673
REMARK  11 active torsions:
REMARK  status: ('A' for Active; 'I' for Inactive)
REMARK    1  A    between atoms: C_1  and  C_4
REMARK    2  A    between atoms: C_1  and  N_15
REMARK    3  A    between atoms: N_3  and  C_6
REMARK    4  A    between atoms: C_9  and  O_12
REMARK    5  A    between atoms: O_12  and  C_13
REMARK    6  A    between atoms: N_15  and  C_17
REMARK    7  A    between atoms: N_15  and  C_22
REMARK    8  A    between atoms: C_17  and  C_19
REMARK    9  A    between atoms: C_19  and  O_20
REMARK   10  A    between atoms: C_22  and  C_24
REMARK   11  A    between atoms: C_24  and  O_25
REMARK                            x       y       z     vdW  Elec       q    Type
REMARK                         _______ _______ _______ _____ _____    ______ ____
ROOT
ATOM      1  C   UNL     1     -35.220  23.180   5.632  0.00  0.00    +0.012 C 
ENDROOT
BRANCH   1   4
ATOM      2  O   UNL     1     -35.114  20.785   5.361  0.00  0.00    -0.277 OA
ATOM      3  N   UNL     1     -35.653  22.142   3.523  0.00  0.00    -0.286 N 
ATOM      4  C   UNL     1     -35.313  21.882   4.850  0.00  0.00    +0.205 C 
ATOM      5  H   UNL     1     -35.780  23.089   3.285  0.00  0.00    +0.155 HD
BRANCH   3   6
ATOM      6  C   UNL     1     -35.836  21.206   2.479  0.00  0.00    +0.050 C 
ATOM      7  C   UNL     1     -34.777  20.389   2.081  0.00  0.00    +0.018 C 
ATOM      8  C   UNL     1     -37.075  21.098   1.847  0.00  0.00    +0.018 C 
ATOM      9  C   UNL     1     -36.197  19.358   0.421  0.00  0.00    +0.139 C 
ATOM     10  C   UNL     1     -34.958  19.465   1.052  0.00  0.00    +0.038 C 
ATOM     11  C   UNL     1     -37.255  20.174   0.818  0.00  0.00    +0.038 C 
BRANCH   9  12
ATOM     12  O   UNL     1     -36.374  18.455  -0.582  0.00  0.00    -0.475 OA
BRANCH  12  13
ATOM     13  C   UNL     1     -37.660  17.846  -0.689  0.00  0.00    +0.206 C 
ATOM     14  C   UNL     1     -37.613  16.475  -0.051  0.00  0.00    +0.051 C 
ENDBRANCH  12  13
ENDBRANCH   9  12
ENDBRANCH   3   6
ENDBRANCH   1   4
BRANCH   1  15
ATOM     15  N   UNL     1     -35.305  24.311   4.709  0.00  0.00    +0.407 N 
ATOM     16  H   UNL     1     -35.501  23.953   3.775  0.00  0.00    -0.077 HD
BRANCH  15  17
ATOM     17  C   UNL     1     -34.036  25.037   4.671  0.00  0.00    +0.036 C 
BRANCH  17  19
ATOM     18  O   UNL     1     -34.206  24.687   2.292  0.00  0.00    -0.253 OA
ATOM     19  C   UNL     1     -33.622  25.207   3.235  0.00  0.00    +0.293 C 
BRANCH  19  20
ATOM     20  O   UNL     1     -32.507  25.967   3.092  0.00  0.00    -0.482 OA
ATOM     21  H   UNL     1     -32.246  26.550   3.778  0.00  0.00    +0.295 HD
ENDBRANCH  19  20
ENDBRANCH  17  19
ENDBRANCH  15  17
BRANCH  15  22
ATOM     22  C   UNL     1     -36.394  25.207   5.098  0.00  0.00    +0.036 C 
BRANCH  22  24
ATOM     23  O   UNL     1     -37.951  24.099   3.630  0.00  0.00    -0.253 OA
ATOM     24  C   UNL     1     -37.468  25.143   4.048  0.00  0.00    +0.293 C 
BRANCH  24  25
ATOM     25  O   UNL     1     -37.823  26.366   3.578  0.00  0.00    -0.482 OA
ATOM     26  H   UNL     1     -37.190  26.901   3.140  0.00  0.00    +0.295 HD
ENDBRANCH  24  25
ENDBRANCH  22  24
ENDBRANCH  15  22
ENDBRANCH   1  15
TORSDOF 11
ENDMDL
MODEL 8
REMARK VINA RESULT:      -4.8      2.618      3.831
REMARK  Name = 191673
REMARK  11 active torsions:
REMARK  status: ('A' for Active; 'I' for Inactive)
REMARK    1  A    between atoms: C_1  and  C_4
REMARK    2  A    between atoms: C_1  and  N_15
REMARK    3  A    between atoms: N_3  and  C_6
REMARK    4  A    between atoms: C_9  and  O_12
REMARK    5  A    between atoms: O_12  and  C_13
REMARK    6  A    between atoms: N_15  and  C_17
REMARK    7  A    between atoms: N_15  and  C_22
REMARK    8  A    between atoms: C_17  and  C_19
REMARK    9  A    between atoms: C_19  and  O_20
REMARK   10  A    between atoms: C_22  and  C_24
REMARK   11  A    between atoms: C_24  and  O_25
REMARK                            x       y       z     vdW  Elec       q    Type
REMARK                         _______ _______ _______ _____ _____    ______ ____
ROOT
ATOM      1  C   UNL     1     -32.142  29.483   4.891  0.00  0.00    +0.012 C 
ENDROOT
BRANCH   1   4
ATOM      2  O   UNL     1     -31.868  27.327   5.940  0.00  0.00    -0.277 OA
ATOM      3  N   UNL     1     -33.673  27.693   4.484  0.00  0.00    -0.286 N 
ATOM      4  C   UNL     1     -32.518  28.041   5.183  0.00  0.00    +0.205 C 
ATOM      5  H   UNL     1     -34.068  28.398   3.921  0.00  0.00    +0.155 HD
BRANCH   3   6
ATOM      6  C   UNL     1     -34.342  26.447   4.488  0.00  0.00    +0.050 C 
ATOM      7  C   UNL     1     -35.423  26.238   5.344  0.00  0.00    +0.018 C 
ATOM      8  C   UNL     1     -33.921  25.426   3.635  0.00  0.00    +0.018 C 
ATOM      9  C   UNL     1     -35.662  23.989   4.494  0.00  0.00    +0.139 C 
ATOM     10  C   UNL     1     -36.083  25.009   5.347  0.00  0.00    +0.038 C 
ATOM     11  C   UNL     1     -34.581  24.198   3.639  0.00  0.00    +0.038 C 
BRANCH   9  12
ATOM     12  O   UNL     1     -36.307  22.791   4.495  0.00  0.00    -0.475 OA
BRANCH  12  13
ATOM     13  C   UNL     1     -35.520  21.630   4.756  0.00  0.00    +0.206 C 
ATOM     14  C   UNL     1     -35.054  21.662   6.196  0.00  0.00    +0.051 C 
ENDBRANCH  12  13
ENDBRANCH   9  12
ENDBRANCH   3   6
ENDBRANCH   1   4
BRANCH   1  15
ATOM     15  N   UNL     1     -32.570  29.833   3.537  0.00  0.00    +0.407 N 
ATOM     16  H   UNL     1     -33.246  29.137   3.222  0.00  0.00    -0.077 HD
BRANCH  15  17
ATOM     17  C   UNL     1     -31.430  29.821   2.621  0.00  0.00    +0.036 C 
BRANCH  17  19
ATOM     18  O   UNL     1     -30.974  28.675   0.549  0.00  0.00    -0.253 OA
ATOM     19  C   UNL     1     -31.728  28.869   1.495  0.00  0.00    +0.293 C 
BRANCH  19  20
ATOM     20  O   UNL     1     -32.943  28.276   1.612  0.00  0.00    -0.482 OA
ATOM     21  H   UNL     1     -33.447  28.390   2.394  0.00  0.00    +0.295 HD
ENDBRANCH  19  20
ENDBRANCH  17  19
ENDBRANCH  15  17
BRANCH  15  22
ATOM     22  C   UNL     1     -33.218  31.144   3.529  0.00  0.00    +0.036 C 
BRANCH  22  24
ATOM     23  O   UNL     1     -35.133  31.873   2.260  0.00  0.00    -0.253 OA
ATOM     24  C   UNL     1     -34.587  31.000   2.923  0.00  0.00    +0.293 C 
BRANCH  24  25
ATOM     25  O   UNL     1     -35.176  29.815   3.221  0.00  0.00    -0.482 OA
ATOM     26  H   UNL     1     -35.052  29.076   2.659  0.00  0.00    +0.295 HD
ENDBRANCH  24  25
ENDBRANCH  22  24
ENDBRANCH  15  22
ENDBRANCH   1  15
TORSDOF 11
ENDMDL
MODEL 9
REMARK VINA RESULT:      -4.8      1.692      2.186
REMARK  Name = 191673
REMARK  11 active torsions:
REMARK  status: ('A' for Active; 'I' for Inactive)
REMARK    1  A    between atoms: C_1  and  C_4
REMARK    2  A    between atoms: C_1  and  N_15
REMARK    3  A    between atoms: N_3  and  C_6
REMARK    4  A    between atoms: C_9  and  O_12
REMARK    5  A    between atoms: O_12  and  C_13
REMARK    6  A    between atoms: N_15  and  C_17
REMARK    7  A    between atoms: N_15  and  C_22
REMARK    8  A    between atoms: C_17  and  C_19
REMARK    9  A    between atoms: C_19  and  O_20
REMARK   10  A    between atoms: C_22  and  C_24
REMARK   11  A    between atoms: C_24  and  O_25
REMARK                            x       y       z     vdW  Elec       q    Type
REMARK                         _______ _______ _______ _____ _____    ______ ____
ROOT
ATOM      1  C   UNL     1     -31.688  29.399   3.549  0.00  0.00    +0.012 C 
ENDROOT
BRANCH   1   4
ATOM      2  O   UNL     1     -34.081  29.091   3.572  0.00  0.00    -0.277 OA
ATOM      3  N   UNL     1     -32.671  27.300   4.134  0.00  0.00    -0.286 N 
ATOM      4  C   UNL     1     -32.968  28.606   3.747  0.00  0.00    +0.205 C 
ATOM      5  H   UNL     1     -31.715  27.081   4.223  0.00  0.00    +0.155 HD
BRANCH   3   6
ATOM      6  C   UNL     1     -33.581  26.255   4.415  0.00  0.00    +0.050 C 
ATOM      7  C   UNL     1     -33.906  25.327   3.425  0.00  0.00    +0.018 C 
ATOM      8  C   UNL     1     -34.154  26.150   5.682  0.00  0.00    +0.018 C 
ATOM      9  C   UNL     1     -35.376  24.192   4.969  0.00  0.00    +0.139 C 
ATOM     10  C   UNL     1     -34.803  24.296   3.702  0.00  0.00    +0.038 C 
ATOM     11  C   UNL     1     -35.052  25.119   5.959  0.00  0.00    +0.038 C 
BRANCH   9  12
ATOM     12  O   UNL     1     -36.249  23.185   5.241  0.00  0.00    -0.475 OA
BRANCH  12  13
ATOM     13  C   UNL     1     -35.888  22.272   6.277  0.00  0.00    +0.206 C 
ATOM     14  C   UNL     1     -34.845  21.312   5.747  0.00  0.00    +0.051 C 
ENDBRANCH  12  13
ENDBRANCH   9  12
ENDBRANCH   3   6
ENDBRANCH   1   4
BRANCH   1  15
ATOM     15  N   UNL     1     -30.537  28.549   3.852  0.00  0.00    +0.407 N 
ATOM     16  H   UNL     1     -30.878  27.622   4.106  0.00  0.00    -0.077 HD
BRANCH  15  17
ATOM     17  C   UNL     1     -29.784  29.092   4.982  0.00  0.00    +0.036 C 
BRANCH  17  19
ATOM     18  O   UNL     1     -28.655  27.426   6.310  0.00  0.00    -0.253 OA
ATOM     19  C   UNL     1     -29.685  28.034   6.046  0.00  0.00    +0.293 C 
BRANCH  19  20
ATOM     20  O   UNL     1     -30.871  27.790   6.661  0.00  0.00    -0.482 OA
ATOM     21  H   UNL     1     -31.101  26.915   6.905  0.00  0.00    +0.295 HD
ENDBRANCH  19  20
ENDBRANCH  17  19
ENDBRANCH  15  17
BRANCH  15  22
ATOM     22  C   UNL     1     -29.675  28.419   2.678  0.00  0.00    +0.036 C 
BRANCH  22  24
ATOM     23  O   UNL     1     -30.327  26.110   2.456  0.00  0.00    -0.253 OA
ATOM     24  C   UNL     1     -29.445  26.958   2.408  0.00  0.00    +0.293 C 
BRANCH  24  25
ATOM     25  O   UNL     1     -28.147  26.665   2.143  0.00  0.00    -0.482 OA
ATOM     26  H   UNL     1     -27.922  26.195   1.364  0.00  0.00    +0.295 HD
ENDBRANCH  24  25
ENDBRANCH  22  24
ENDBRANCH  15  22
ENDBRANCH   1  15
TORSDOF 11
ENDMDL
