MODEL 1
REMARK VINA RESULT:      -5.7      0.000      0.000
REMARK  Name = 192728
REMARK  12 active torsions:
REMARK  status: ('A' for Active; 'I' for Inactive)
REMARK    1  A    between atoms: C_1  and  C_4
REMARK    2  A    between atoms: C_1  and  N_11
REMARK    3  A    between atoms: C_1  and  C_23
REMARK    4  A    between atoms: N_3  and  C_6
REMARK    5  A    between atoms: C_6  and  C_8
REMARK    6  A    between atoms: C_8  and  O_9
REMARK    7  A    between atoms: N_11  and  S_13
REMARK    8  A    between atoms: S_13  and  C_16
REMARK    9  A    between atoms: C_23  and  C_24
REMARK   10  A    between atoms: C_24  and  C_25
REMARK   11  A    between atoms: C_25  and  C_26
REMARK   12  A    between atoms: C_26  and  N_27
REMARK                            x       y       z     vdW  Elec       q    Type
REMARK                         _______ _______ _______ _____ _____    ______ ____
ROOT
ATOM      1  C   UNL     1     -35.460  23.176   2.538  0.00  0.00    +0.151 C 
ENDROOT
BRANCH   1   4
ATOM      2  O   UNL     1     -37.298  23.650   4.035  0.00  0.00    -0.274 OA
ATOM      3  N   UNL     1     -37.551  24.121   1.777  0.00  0.00    -0.294 N 
ATOM      4  C   UNL     1     -36.859  23.660   2.888  0.00  0.00    +0.239 C 
ATOM      5  H   UNL     1     -37.112  24.088   0.897  0.00  0.00    +0.150 HD
BRANCH   3   6
ATOM      6  C   UNL     1     -38.893  24.649   1.865  0.00  0.00    +0.200 C 
BRANCH   6   8
ATOM      7  O   UNL     1     -38.936  27.006   1.382  0.00  0.00    -0.248 OA
ATOM      8  C   UNL     1     -38.926  26.113   2.219  0.00  0.00    +0.334 C 
BRANCH   8   9
ATOM      9  O   UNL     1     -38.940  26.347   3.552  0.00  0.00    -0.479 OA
ATOM     10  H   UNL     1     -38.698  25.667   4.150  0.00  0.00    +0.295 HD
ENDBRANCH   8   9
ENDBRANCH   6   8
ENDBRANCH   3   6
ENDBRANCH   1   4
BRANCH   1  11
ATOM     11  N   UNL     1     -35.657  22.224   1.422  0.00  0.00    -0.172 NA
ATOM     12  H   UNL     1     -36.568  22.432   1.013  0.00  0.00    +0.149 HD
BRANCH  11  13
ATOM     13  S   UNL     1     -35.622  20.552   1.719  0.00  0.00    +0.061 S 
ATOM     14  O   UNL     1     -36.592  19.890   0.868  0.00  0.00    -0.153 OA
ATOM     15  O   UNL     1     -35.638  20.330   3.152  0.00  0.00    -0.153 OA
BRANCH  13  16
ATOM     16  C   UNL     1     -34.007  20.114   1.149  0.00  0.00    +0.122 C 
ATOM     17  C   UNL     1     -33.438  18.900   1.533  0.00  0.00    +0.020 C 
ATOM     18  C   UNL     1     -33.303  20.982   0.315  0.00  0.00    +0.020 C 
ATOM     19  C   UNL     1     -31.460  19.422   0.248  0.00  0.00    -0.022 C 
ATOM     20  C   UNL     1     -32.164  18.553   1.082  0.00  0.00    -0.003 C 
ATOM     21  C   UNL     1     -32.029  20.636  -0.136  0.00  0.00    -0.003 C 
ATOM     22  C   UNL     1     -30.097  19.052  -0.234  0.00  0.00    +0.031 C 
ENDBRANCH  13  16
ENDBRANCH  11  13
ENDBRANCH   1  11
BRANCH   1  23
ATOM     23  C   UNL     1     -34.550  24.323   2.092  0.00  0.00    +0.027 C 
BRANCH  23  24
ATOM     24  C   UNL     1     -33.897  25.041   3.278  0.00  0.00    -0.000 C 
BRANCH  24  25
ATOM     25  C   UNL     1     -34.702  26.276   3.691  0.00  0.00    -0.024 C 
BRANCH  25  26
ATOM     26  C   UNL     1     -35.091  26.213   5.167  0.00  0.00    -0.086 C 
BRANCH  26  27
ATOM     27  N   UNL     1     -36.526  26.419   5.321  0.00  0.00    +0.380 N 
ATOM     28  H   UNL     1     -36.987  26.294   4.420  0.00  0.00    -0.089 HD
ATOM     29  H   UNL     1     -36.700  27.364   5.664  0.00  0.00    -0.089 HD
ATOM     30  H   UNL     1     -36.896  25.742   5.989  0.00  0.00    -0.089 HD
ENDBRANCH  26  27
ENDBRANCH  25  26
ENDBRANCH  24  25
ENDBRANCH  23  24
ENDBRANCH   1  23
TORSDOF 12
ENDMDL
MODEL 2
REMARK VINA RESULT:      -5.7      1.692      1.765
REMARK  Name = 192728
REMARK  12 active torsions:
REMARK  status: ('A' for Active; 'I' for Inactive)
REMARK    1  A    between atoms: C_1  and  C_4
REMARK    2  A    between atoms: C_1  and  N_11
REMARK    3  A    between atoms: C_1  and  C_23
REMARK    4  A    between atoms: N_3  and  C_6
REMARK    5  A    between atoms: C_6  and  C_8
REMARK    6  A    between atoms: C_8  and  O_9
REMARK    7  A    between atoms: N_11  and  S_13
REMARK    8  A    between atoms: S_13  and  C_16
REMARK    9  A    between atoms: C_23  and  C_24
REMARK   10  A    between atoms: C_24  and  C_25
REMARK   11  A    between atoms: C_25  and  C_26
REMARK   12  A    between atoms: C_26  and  N_27
REMARK                            x       y       z     vdW  Elec       q    Type
REMARK                         _______ _______ _______ _____ _____    ______ ____
ROOT
ATOM      1  C   UNL     1     -36.343  23.117   2.854  0.00  0.00    +0.151 C 
ENDROOT
BRANCH   1   4
ATOM      2  O   UNL     1     -38.143  23.254   1.246  0.00  0.00    -0.274 OA
ATOM      3  N   UNL     1     -38.459  24.175   3.351  0.00  0.00    -0.294 N 
ATOM      4  C   UNL     1     -37.730  23.515   2.373  0.00  0.00    +0.239 C 
ATOM      5  H   UNL     1     -38.039  24.338   4.227  0.00  0.00    +0.150 HD
BRANCH   3   6
ATOM      6  C   UNL     1     -39.811  24.633   3.133  0.00  0.00    +0.200 C 
BRANCH   6   8
ATOM      7  O   UNL     1     -39.337  26.688   1.972  0.00  0.00    -0.248 OA
ATOM      8  C   UNL     1     -39.897  26.120   2.901  0.00  0.00    +0.334 C 
BRANCH   8   9
ATOM      9  O   UNL     1     -40.651  26.768   3.819  0.00  0.00    -0.479 OA
ATOM     10  H   UNL     1     -40.599  27.701   3.894  0.00  0.00    +0.295 HD
ENDBRANCH   8   9
ENDBRANCH   6   8
ENDBRANCH   3   6
ENDBRANCH   1   4
BRANCH   1  11
ATOM     11  N   UNL     1     -35.785  22.291   1.760  0.00  0.00    -0.172 NA
ATOM     12  H   UNL     1     -36.386  22.431   0.948  0.00  0.00    +0.149 HD
BRANCH  11  13
ATOM     13  S   UNL     1     -35.623  20.612   1.966  0.00  0.00    +0.061 S 
ATOM     14  O   UNL     1     -36.640  19.930   1.189  0.00  0.00    -0.153 OA
ATOM     15  O   UNL     1     -35.472  20.325   3.380  0.00  0.00    -0.153 OA
BRANCH  13  16
ATOM     16  C   UNL     1     -34.056  20.302   1.208  0.00  0.00    +0.122 C 
ATOM     17  C   UNL     1     -33.392  19.099   1.447  0.00  0.00    +0.020 C 
ATOM     18  C   UNL     1     -33.485  21.260   0.371  0.00  0.00    +0.020 C 
ATOM     19  C   UNL     1     -31.585  19.811   0.011  0.00  0.00    -0.022 C 
ATOM     20  C   UNL     1     -32.157  18.853   0.848  0.00  0.00    -0.003 C 
ATOM     21  C   UNL     1     -32.249  21.015  -0.228  0.00  0.00    -0.003 C 
ATOM     22  C   UNL     1     -30.263  19.550  -0.629  0.00  0.00    +0.031 C 
ENDBRANCH  13  16
ENDBRANCH  11  13
ENDBRANCH   1  11
BRANCH   1  23
ATOM     23  C   UNL     1     -35.448  24.334   3.098  0.00  0.00    +0.027 C 
BRANCH  23  24
ATOM     24  C   UNL     1     -34.522  24.143   4.303  0.00  0.00    -0.000 C 
BRANCH  24  25
ATOM     25  C   UNL     1     -35.322  23.913   5.587  0.00  0.00    -0.024 C 
BRANCH  25  26
ATOM     26  C   UNL     1     -34.967  22.571   6.226  0.00  0.00    -0.086 C 
BRANCH  26  27
ATOM     27  N   UNL     1     -36.078  21.637   6.091  0.00  0.00    +0.380 N 
ATOM     28  H   UNL     1     -36.834  22.079   5.569  0.00  0.00    -0.089 HD
ATOM     29  H   UNL     1     -36.414  21.371   7.016  0.00  0.00    -0.089 HD
ATOM     30  H   UNL     1     -35.763  20.805   5.592  0.00  0.00    -0.089 HD
ENDBRANCH  26  27
ENDBRANCH  25  26
ENDBRANCH  24  25
ENDBRANCH  23  24
ENDBRANCH   1  23
TORSDOF 12
ENDMDL
MODEL 3
REMARK VINA RESULT:      -5.6      2.101      2.411
REMARK  Name = 192728
REMARK  12 active torsions:
REMARK  status: ('A' for Active; 'I' for Inactive)
REMARK    1  A    between atoms: C_1  and  C_4
REMARK    2  A    between atoms: C_1  and  N_11
REMARK    3  A    between atoms: C_1  and  C_23
REMARK    4  A    between atoms: N_3  and  C_6
REMARK    5  A    between atoms: C_6  and  C_8
REMARK    6  A    between atoms: C_8  and  O_9
REMARK    7  A    between atoms: N_11  and  S_13
REMARK    8  A    between atoms: S_13  and  C_16
REMARK    9  A    between atoms: C_23  and  C_24
REMARK   10  A    between atoms: C_24  and  C_25
REMARK   11  A    between atoms: C_25  and  C_26
REMARK   12  A    between atoms: C_26  and  N_27
REMARK                            x       y       z     vdW  Elec       q    Type
REMARK                         _______ _______ _______ _____ _____    ______ ____
ROOT
ATOM      1  C   UNL     1     -35.746  23.149   2.790  0.00  0.00    +0.151 C 
ENDROOT
BRANCH   1   4
ATOM      2  O   UNL     1     -37.116  24.434   1.268  0.00  0.00    -0.274 OA
ATOM      3  N   UNL     1     -38.162  23.084   2.840  0.00  0.00    -0.294 N 
ATOM      4  C   UNL     1     -37.061  23.643   2.207  0.00  0.00    +0.239 C 
ATOM      5  H   UNL     1     -38.014  22.458   3.585  0.00  0.00    +0.150 HD
BRANCH   3   6
ATOM      6  C   UNL     1     -39.518  23.388   2.446  0.00  0.00    +0.200 C 
BRANCH   6   8
ATOM      7  O   UNL     1     -40.669  22.510   0.523  0.00  0.00    -0.248 OA
ATOM      8  C   UNL     1     -40.143  22.302   1.608  0.00  0.00    +0.334 C 
BRANCH   8   9
ATOM      9  O   UNL     1     -40.070  21.073   2.173  0.00  0.00    -0.479 OA
ATOM     10  H   UNL     1     -39.236  20.661   2.292  0.00  0.00    +0.295 HD
ENDBRANCH   8   9
ENDBRANCH   6   8
ENDBRANCH   3   6
ENDBRANCH   1   4
BRANCH   1  11
ATOM     11  N   UNL     1     -35.170  22.276   1.743  0.00  0.00    -0.172 NA
ATOM     12  H   UNL     1     -35.608  22.544   0.861  0.00  0.00    +0.149 HD
BRANCH  11  13
ATOM     13  S   UNL     1     -35.319  20.589   1.872  0.00  0.00    +0.061 S 
ATOM     14  O   UNL     1     -36.372  20.128   0.987  0.00  0.00    -0.153 OA
ATOM     15  O   UNL     1     -35.335  20.225   3.276  0.00  0.00    -0.153 OA
BRANCH  13  16
ATOM     16  C   UNL     1     -33.773  20.036   1.214  0.00  0.00    +0.122 C 
ATOM     17  C   UNL     1     -33.279  18.779   1.560  0.00  0.00    +0.020 C 
ATOM     18  C   UNL     1     -33.049  20.858   0.351  0.00  0.00    +0.020 C 
ATOM     19  C   UNL     1     -31.336  19.164   0.177  0.00  0.00    -0.022 C 
ATOM     20  C   UNL     1     -32.060  18.342   1.040  0.00  0.00    -0.003 C 
ATOM     21  C   UNL     1     -31.830  20.422  -0.168  0.00  0.00    -0.003 C 
ATOM     22  C   UNL     1     -30.032  18.697  -0.378  0.00  0.00    +0.031 C 
ENDBRANCH  13  16
ENDBRANCH  11  13
ENDBRANCH   1  11
BRANCH   1  23
ATOM     23  C   UNL     1     -34.786  24.300   3.098  0.00  0.00    +0.027 C 
BRANCH  23  24
ATOM     24  C   UNL     1     -34.380  24.340   4.574  0.00  0.00    -0.000 C 
BRANCH  24  25
ATOM     25  C   UNL     1     -35.504  23.821   5.474  0.00  0.00    -0.024 C 
BRANCH  25  26
ATOM     26  C   UNL     1     -35.060  22.587   6.257  0.00  0.00    -0.086 C 
BRANCH  26  27
ATOM     27  N   UNL     1     -35.918  21.451   5.943  0.00  0.00    +0.380 N 
ATOM     28  H   UNL     1     -36.890  21.758   5.909  0.00  0.00    -0.089 HD
ATOM     29  H   UNL     1     -35.812  20.735   6.662  0.00  0.00    -0.089 HD
ATOM     30  H   UNL     1     -35.652  21.065   5.038  0.00  0.00    -0.089 HD
ENDBRANCH  26  27
ENDBRANCH  25  26
ENDBRANCH  24  25
ENDBRANCH  23  24
ENDBRANCH   1  23
TORSDOF 12
ENDMDL
MODEL 4
REMARK VINA RESULT:      -5.4      3.110      5.640
REMARK  Name = 192728
REMARK  12 active torsions:
REMARK  status: ('A' for Active; 'I' for Inactive)
REMARK    1  A    between atoms: C_1  and  C_4
REMARK    2  A    between atoms: C_1  and  N_11
REMARK    3  A    between atoms: C_1  and  C_23
REMARK    4  A    between atoms: N_3  and  C_6
REMARK    5  A    between atoms: C_6  and  C_8
REMARK    6  A    between atoms: C_8  and  O_9
REMARK    7  A    between atoms: N_11  and  S_13
REMARK    8  A    between atoms: S_13  and  C_16
REMARK    9  A    between atoms: C_23  and  C_24
REMARK   10  A    between atoms: C_24  and  C_25
REMARK   11  A    between atoms: C_25  and  C_26
REMARK   12  A    between atoms: C_26  and  N_27
REMARK                            x       y       z     vdW  Elec       q    Type
REMARK                         _______ _______ _______ _____ _____    ______ ____
ROOT
ATOM      1  C   UNL     1     -36.146  24.901   4.424  0.00  0.00    +0.151 C 
ENDROOT
BRANCH   1   4
ATOM      2  O   UNL     1     -36.108  22.916   5.803  0.00  0.00    -0.274 OA
ATOM      3  N   UNL     1     -35.683  22.703   3.532  0.00  0.00    -0.294 N 
ATOM      4  C   UNL     1     -35.977  23.413   4.687  0.00  0.00    +0.239 C 
ATOM      5  H   UNL     1     -35.597  23.193   2.682  0.00  0.00    +0.150 HD
BRANCH   3   6
ATOM      6  C   UNL     1     -35.497  21.271   3.529  0.00  0.00    +0.200 C 
BRANCH   6   8
ATOM      7  O   UNL     1     -35.632  20.938   1.149  0.00  0.00    -0.248 OA
ATOM      8  C   UNL     1     -36.004  20.616   2.270  0.00  0.00    +0.334 C 
BRANCH   8   9
ATOM      9  O   UNL     1     -36.912  19.638   2.497  0.00  0.00    -0.479 OA
ATOM     10  H   UNL     1     -36.625  18.772   2.714  0.00  0.00    +0.295 HD
ENDBRANCH   8   9
ENDBRANCH   6   8
ENDBRANCH   3   6
ENDBRANCH   1   4
BRANCH   1  11
ATOM     11  N   UNL     1     -37.607  25.102   4.307  0.00  0.00    -0.172 NA
ATOM     12  H   UNL     1     -38.045  24.196   4.476  0.00  0.00    +0.149 HD
BRANCH  11  13
ATOM     13  S   UNL     1     -38.266  25.701   2.860  0.00  0.00    +0.061 S 
ATOM     14  O   UNL     1     -37.259  26.467   2.152  0.00  0.00    -0.153 OA
ATOM     15  O   UNL     1     -39.563  26.287   3.142  0.00  0.00    -0.153 OA
BRANCH  13  16
ATOM     16  C   UNL     1     -38.560  24.214   1.950  0.00  0.00    +0.122 C 
ATOM     17  C   UNL     1     -39.277  23.170   2.534  0.00  0.00    +0.020 C 
ATOM     18  C   UNL     1     -38.076  24.086   0.648  0.00  0.00    +0.020 C 
ATOM     19  C   UNL     1     -39.026  21.869   0.514  0.00  0.00    -0.022 C 
ATOM     20  C   UNL     1     -39.510  21.997   1.816  0.00  0.00    -0.003 C 
ATOM     21  C   UNL     1     -38.308  22.913  -0.070  0.00  0.00    -0.003 C 
ATOM     22  C   UNL     1     -39.274  20.615  -0.254  0.00  0.00    +0.031 C 
ENDBRANCH  13  16
ENDBRANCH  11  13
ENDBRANCH   1  11
BRANCH   1  23
ATOM     23  C   UNL     1     -35.592  25.754   5.568  0.00  0.00    +0.027 C 
BRANCH  23  24
ATOM     24  C   UNL     1     -34.061  25.821   5.555  0.00  0.00    -0.000 C 
BRANCH  24  25
ATOM     25  C   UNL     1     -33.568  27.166   5.016  0.00  0.00    -0.024 C 
BRANCH  25  26
ATOM     26  C   UNL     1     -33.929  27.336   3.541  0.00  0.00    -0.086 C 
BRANCH  26  27
ATOM     27  N   UNL     1     -34.993  28.322   3.390  0.00  0.00    +0.380 N 
ATOM     28  H   UNL     1     -35.112  28.832   4.265  0.00  0.00    -0.089 HD
ATOM     29  H   UNL     1     -35.864  27.848   3.151  0.00  0.00    -0.089 HD
ATOM     30  H   UNL     1     -34.747  28.975   2.647  0.00  0.00    -0.089 HD
ENDBRANCH  26  27
ENDBRANCH  25  26
ENDBRANCH  24  25
ENDBRANCH  23  24
ENDBRANCH   1  23
TORSDOF 12
ENDMDL
MODEL 5
REMARK VINA RESULT:      -5.4      3.701      5.165
REMARK  Name = 192728
REMARK  12 active torsions:
REMARK  status: ('A' for Active; 'I' for Inactive)
REMARK    1  A    between atoms: C_1  and  C_4
REMARK    2  A    between atoms: C_1  and  N_11
REMARK    3  A    between atoms: C_1  and  C_23
REMARK    4  A    between atoms: N_3  and  C_6
REMARK    5  A    between atoms: C_6  and  C_8
REMARK    6  A    between atoms: C_8  and  O_9
REMARK    7  A    between atoms: N_11  and  S_13
REMARK    8  A    between atoms: S_13  and  C_16
REMARK    9  A    between atoms: C_23  and  C_24
REMARK   10  A    between atoms: C_24  and  C_25
REMARK   11  A    between atoms: C_25  and  C_26
REMARK   12  A    between atoms: C_26  and  N_27
REMARK                            x       y       z     vdW  Elec       q    Type
REMARK                         _______ _______ _______ _____ _____    ______ ____
ROOT
ATOM      1  C   UNL     1     -34.469  26.042   3.578  0.00  0.00    +0.151 C 
ENDROOT
BRANCH   1   4
ATOM      2  O   UNL     1     -32.145  26.477   3.075  0.00  0.00    -0.274 OA
ATOM      3  N   UNL     1     -33.218  27.819   4.634  0.00  0.00    -0.294 N 
ATOM      4  C   UNL     1     -33.147  26.778   3.720  0.00  0.00    +0.239 C 
ATOM      5  H   UNL     1     -34.068  27.982   5.103  0.00  0.00    +0.150 HD
BRANCH   3   6
ATOM      6  C   UNL     1     -32.090  28.674   4.923  0.00  0.00    +0.200 C 
BRANCH   6   8
ATOM      7  O   UNL     1     -31.651  29.570   7.114  0.00  0.00    -0.248 OA
ATOM      8  C   UNL     1     -31.653  28.602   6.364  0.00  0.00    +0.334 C 
BRANCH   8   9
ATOM      9  O   UNL     1     -31.259  27.365   6.749  0.00  0.00    -0.479 OA
ATOM     10  H   UNL     1     -31.883  26.767   7.112  0.00  0.00    +0.295 HD
ENDBRANCH   8   9
ENDBRANCH   6   8
ENDBRANCH   3   6
ENDBRANCH   1   4
BRANCH   1  11
ATOM     11  N   UNL     1     -34.142  24.818   2.813  0.00  0.00    -0.172 NA
ATOM     12  H   UNL     1     -33.237  24.980   2.370  0.00  0.00    +0.149 HD
BRANCH  11  13
ATOM     13  S   UNL     1     -35.194  24.274   1.595  0.00  0.00    +0.061 S 
ATOM     14  O   UNL     1     -34.884  24.952   0.351  0.00  0.00    -0.153 OA
ATOM     15  O   UNL     1     -36.550  24.279   2.110  0.00  0.00    -0.153 OA
BRANCH  13  16
ATOM     16  C   UNL     1     -34.713  22.581   1.428  0.00  0.00    +0.122 C 
ATOM     17  C   UNL     1     -33.772  22.215   0.466  0.00  0.00    +0.020 C 
ATOM     18  C   UNL     1     -35.276  21.611   2.258  0.00  0.00    +0.020 C 
ATOM     19  C   UNL     1     -33.954  19.910   1.165  0.00  0.00    -0.022 C 
ATOM     20  C   UNL     1     -33.391  20.879   0.335  0.00  0.00    -0.003 C 
ATOM     21  C   UNL     1     -34.896  20.275   2.126  0.00  0.00    -0.003 C 
ATOM     22  C   UNL     1     -33.549  18.481   1.024  0.00  0.00    +0.031 C 
ENDBRANCH  13  16
ENDBRANCH  11  13
ENDBRANCH   1  11
BRANCH   1  23
ATOM     23  C   UNL     1     -35.066  25.664   4.936  0.00  0.00    +0.027 C 
BRANCH  23  24
ATOM     24  C   UNL     1     -34.632  24.269   5.394  0.00  0.00    -0.000 C 
BRANCH  24  25
ATOM     25  C   UNL     1     -35.827  23.317   5.490  0.00  0.00    -0.024 C 
BRANCH  25  26
ATOM     26  C   UNL     1     -35.558  22.190   6.485  0.00  0.00    -0.086 C 
BRANCH  26  27
ATOM     27  N   UNL     1     -34.757  21.144   5.861  0.00  0.00    +0.380 N 
ATOM     28  H   UNL     1     -35.064  21.008   4.898  0.00  0.00    -0.089 HD
ATOM     29  H   UNL     1     -34.871  20.273   6.380  0.00  0.00    -0.089 HD
ATOM     30  H   UNL     1     -33.775  21.418   5.869  0.00  0.00    -0.089 HD
ENDBRANCH  26  27
ENDBRANCH  25  26
ENDBRANCH  24  25
ENDBRANCH  23  24
ENDBRANCH   1  23
TORSDOF 12
ENDMDL
MODEL 6
REMARK VINA RESULT:      -5.4      4.637      7.172
REMARK  Name = 192728
REMARK  12 active torsions:
REMARK  status: ('A' for Active; 'I' for Inactive)
REMARK    1  A    between atoms: C_1  and  C_4
REMARK    2  A    between atoms: C_1  and  N_11
REMARK    3  A    between atoms: C_1  and  C_23
REMARK    4  A    between atoms: N_3  and  C_6
REMARK    5  A    between atoms: C_6  and  C_8
REMARK    6  A    between atoms: C_8  and  O_9
REMARK    7  A    between atoms: N_11  and  S_13
REMARK    8  A    between atoms: S_13  and  C_16
REMARK    9  A    between atoms: C_23  and  C_24
REMARK   10  A    between atoms: C_24  and  C_25
REMARK   11  A    between atoms: C_25  and  C_26
REMARK   12  A    between atoms: C_26  and  N_27
REMARK                            x       y       z     vdW  Elec       q    Type
REMARK                         _______ _______ _______ _____ _____    ______ ____
ROOT
ATOM      1  C   UNL     1     -33.871  28.656   2.999  0.00  0.00    +0.151 C 
ENDROOT
BRANCH   1   4
ATOM      2  O   UNL     1     -32.316  26.906   3.601  0.00  0.00    -0.274 OA
ATOM      3  N   UNL     1     -32.876  28.497   5.195  0.00  0.00    -0.294 N 
ATOM      4  C   UNL     1     -32.941  27.908   3.940  0.00  0.00    +0.239 C 
ATOM      5  H   UNL     1     -33.417  29.300   5.371  0.00  0.00    +0.150 HD
BRANCH   3   6
ATOM      6  C   UNL     1     -32.042  27.975   6.253  0.00  0.00    +0.200 C 
BRANCH   6   8
ATOM      7  O   UNL     1     -30.323  29.590   5.772  0.00  0.00    -0.248 OA
ATOM      8  C   UNL     1     -30.622  28.476   6.183  0.00  0.00    +0.334 C 
BRANCH   8   9
ATOM      9  O   UNL     1     -29.709  27.576   6.615  0.00  0.00    -0.479 OA
ATOM     10  H   UNL     1     -29.064  27.829   7.247  0.00  0.00    +0.295 HD
ENDBRANCH   8   9
ENDBRANCH   6   8
ENDBRANCH   3   6
ENDBRANCH   1   4
BRANCH   1  11
ATOM     11  N   UNL     1     -35.223  28.140   3.312  0.00  0.00    -0.172 NA
ATOM     12  H   UNL     1     -35.201  27.825   4.282  0.00  0.00    +0.149 HD
BRANCH  11  13
ATOM     13  S   UNL     1     -35.877  26.867   2.397  0.00  0.00    +0.061 S 
ATOM     14  O   UNL     1     -35.019  26.601   1.258  0.00  0.00    -0.153 OA
ATOM     15  O   UNL     1     -37.293  27.108   2.202  0.00  0.00    -0.153 OA
BRANCH  13  16
ATOM     16  C   UNL     1     -35.736  25.505   3.516  0.00  0.00    +0.122 C 
ATOM     17  C   UNL     1     -35.713  24.200   3.025  0.00  0.00    +0.020 C 
ATOM     18  C   UNL     1     -35.649  25.737   4.888  0.00  0.00    +0.020 C 
ATOM     19  C   UNL     1     -35.513  23.357   5.280  0.00  0.00    -0.022 C 
ATOM     20  C   UNL     1     -35.601  23.125   3.907  0.00  0.00    -0.003 C 
ATOM     21  C   UNL     1     -35.538  24.662   5.771  0.00  0.00    -0.003 C 
ATOM     22  C   UNL     1     -35.395  22.207   6.224  0.00  0.00    +0.031 C 
ENDBRANCH  13  16
ENDBRANCH  11  13
ENDBRANCH   1  11
BRANCH   1  23
ATOM     23  C   UNL     1     -33.824  30.169   3.225  0.00  0.00    +0.027 C 
BRANCH  23  24
ATOM     24  C   UNL     1     -35.206  30.818   3.100  0.00  0.00    -0.000 C 
BRANCH  24  25
ATOM     25  C   UNL     1     -35.434  31.374   1.692  0.00  0.00    -0.024 C 
BRANCH  25  26
ATOM     26  C   UNL     1     -36.690  30.776   1.060  0.00  0.00    -0.086 C 
BRANCH  26  27
ATOM     27  N   UNL     1     -36.379  29.504   0.420  0.00  0.00    +0.380 N 
ATOM     28  H   UNL     1     -36.063  28.837   1.123  0.00  0.00    -0.089 HD
ATOM     29  H   UNL     1     -35.643  29.642  -0.273  0.00  0.00    -0.089 HD
ATOM     30  H   UNL     1     -37.214  29.142  -0.040  0.00  0.00    -0.089 HD
ENDBRANCH  26  27
ENDBRANCH  25  26
ENDBRANCH  24  25
ENDBRANCH  23  24
ENDBRANCH   1  23
TORSDOF 12
ENDMDL
MODEL 7
REMARK VINA RESULT:      -5.3      2.591      6.817
REMARK  Name = 192728
REMARK  12 active torsions:
REMARK  status: ('A' for Active; 'I' for Inactive)
REMARK    1  A    between atoms: C_1  and  C_4
REMARK    2  A    between atoms: C_1  and  N_11
REMARK    3  A    between atoms: C_1  and  C_23
REMARK    4  A    between atoms: N_3  and  C_6
REMARK    5  A    between atoms: C_6  and  C_8
REMARK    6  A    between atoms: C_8  and  O_9
REMARK    7  A    between atoms: N_11  and  S_13
REMARK    8  A    between atoms: S_13  and  C_16
REMARK    9  A    between atoms: C_23  and  C_24
REMARK   10  A    between atoms: C_24  and  C_25
REMARK   11  A    between atoms: C_25  and  C_26
REMARK   12  A    between atoms: C_26  and  N_27
REMARK                            x       y       z     vdW  Elec       q    Type
REMARK                         _______ _______ _______ _____ _____    ______ ____
ROOT
ATOM      1  C   UNL     1     -35.886  23.029   3.920  0.00  0.00    +0.151 C 
ENDROOT
BRANCH   1   4
ATOM      2  O   UNL     1     -35.234  20.801   4.595  0.00  0.00    -0.274 OA
ATOM      3  N   UNL     1     -35.181  21.342   2.339  0.00  0.00    -0.294 N 
ATOM      4  C   UNL     1     -35.396  21.609   3.684  0.00  0.00    +0.239 C 
ATOM      5  H   UNL     1     -35.340  22.057   1.682  0.00  0.00    +0.150 HD
BRANCH   3   6
ATOM      6  C   UNL     1     -34.732  20.052   1.868  0.00  0.00    +0.200 C 
BRANCH   6   8
ATOM      7  O   UNL     1     -35.370  19.274  -0.319  0.00  0.00    -0.248 OA
ATOM      8  C   UNL     1     -35.667  19.439   0.858  0.00  0.00    +0.334 C 
BRANCH   8   9
ATOM      9  O   UNL     1     -36.869  19.090   1.374  0.00  0.00    -0.479 OA
ATOM     10  H   UNL     1     -37.169  19.484   2.170  0.00  0.00    +0.295 HD
ENDBRANCH   8   9
ENDBRANCH   6   8
ENDBRANCH   3   6
ENDBRANCH   1   4
BRANCH   1  11
ATOM     11  N   UNL     1     -37.351  22.963   3.722  0.00  0.00    -0.172 NA
ATOM     12  H   UNL     1     -37.687  22.167   4.267  0.00  0.00    +0.149 HD
BRANCH  11  13
ATOM     13  S   UNL     1     -37.988  22.789   2.157  0.00  0.00    +0.061 S 
ATOM     14  O   UNL     1     -38.515  21.448   1.996  0.00  0.00    -0.153 OA
ATOM     15  O   UNL     1     -37.033  23.317   1.201  0.00  0.00    -0.153 OA
BRANCH  13  16
ATOM     16  C   UNL     1     -39.353  23.912   2.193  0.00  0.00    +0.122 C 
ATOM     17  C   UNL     1     -39.426  24.889   3.185  0.00  0.00    +0.020 C 
ATOM     18  C   UNL     1     -40.356  23.820   1.228  0.00  0.00    +0.020 C 
ATOM     19  C   UNL     1     -41.506  25.684   2.248  0.00  0.00    -0.022 C 
ATOM     20  C   UNL     1     -40.503  25.776   3.212  0.00  0.00    -0.003 C 
ATOM     21  C   UNL     1     -41.434  24.706   1.256  0.00  0.00    -0.003 C 
ATOM     22  C   UNL     1     -42.658  26.631   2.278  0.00  0.00    +0.031 C 
ENDBRANCH  13  16
ENDBRANCH  11  13
ENDBRANCH   1  11
BRANCH   1  23
ATOM     23  C   UNL     1     -35.571  23.518   5.335  0.00  0.00    +0.027 C 
BRANCH  23  24
ATOM     24  C   UNL     1     -35.684  25.041   5.462  0.00  0.00    -0.000 C 
BRANCH  24  25
ATOM     25  C   UNL     1     -34.303  25.695   5.553  0.00  0.00    -0.024 C 
BRANCH  25  26
ATOM     26  C   UNL     1     -34.083  26.683   4.409  0.00  0.00    -0.086 C 
BRANCH  26  27
ATOM     27  N   UNL     1     -35.336  27.344   4.063  0.00  0.00    +0.380 N 
ATOM     28  H   UNL     1     -36.046  26.642   3.858  0.00  0.00    -0.089 HD
ATOM     29  H   UNL     1     -35.194  27.934   3.243  0.00  0.00    -0.089 HD
ATOM     30  H   UNL     1     -35.643  27.919   4.846  0.00  0.00    -0.089 HD
ENDBRANCH  26  27
ENDBRANCH  25  26
ENDBRANCH  24  25
ENDBRANCH  23  24
ENDBRANCH   1  23
TORSDOF 12
ENDMDL
MODEL 8
REMARK VINA RESULT:      -5.3      2.714      4.779
REMARK  Name = 192728
REMARK  12 active torsions:
REMARK  status: ('A' for Active; 'I' for Inactive)
REMARK    1  A    between atoms: C_1  and  C_4
REMARK    2  A    between atoms: C_1  and  N_11
REMARK    3  A    between atoms: C_1  and  C_23
REMARK    4  A    between atoms: N_3  and  C_6
REMARK    5  A    between atoms: C_6  and  C_8
REMARK    6  A    between atoms: C_8  and  O_9
REMARK    7  A    between atoms: N_11  and  S_13
REMARK    8  A    between atoms: S_13  and  C_16
REMARK    9  A    between atoms: C_23  and  C_24
REMARK   10  A    between atoms: C_24  and  C_25
REMARK   11  A    between atoms: C_25  and  C_26
REMARK   12  A    between atoms: C_26  and  N_27
REMARK                            x       y       z     vdW  Elec       q    Type
REMARK                         _______ _______ _______ _____ _____    ______ ____
ROOT
ATOM      1  C   UNL     1     -37.818  21.053   1.084  0.00  0.00    +0.151 C 
ENDROOT
BRANCH   1   4
ATOM      2  O   UNL     1     -40.097  21.135   1.886  0.00  0.00    -0.274 OA
ATOM      3  N   UNL     1     -38.838  23.084   1.908  0.00  0.00    -0.294 N 
ATOM      4  C   UNL     1     -39.049  21.735   1.659  0.00  0.00    +0.239 C 
ATOM      5  H   UNL     1     -37.961  23.474   1.691  0.00  0.00    +0.150 HD
BRANCH   3   6
ATOM      6  C   UNL     1     -39.858  23.936   2.473  0.00  0.00    +0.200 C 
BRANCH   6   8
ATOM      7  O   UNL     1     -39.655  26.284   2.964  0.00  0.00    -0.248 OA
ATOM      8  C   UNL     1     -39.290  25.137   3.186  0.00  0.00    +0.334 C 
BRANCH   8   9
ATOM      9  O   UNL     1     -38.336  24.825   4.095  0.00  0.00    -0.479 OA
ATOM     10  H   UNL     1     -37.563  25.351   4.160  0.00  0.00    +0.295 HD
ENDBRANCH   8   9
ENDBRANCH   6   8
ENDBRANCH   3   6
ENDBRANCH   1   4
BRANCH   1  11
ATOM     11  N   UNL     1     -37.109  20.499   2.259  0.00  0.00    -0.172 NA
ATOM     12  H   UNL     1     -37.778  20.486   3.029  0.00  0.00    +0.149 HD
BRANCH  11  13
ATOM     13  S   UNL     1     -35.707  21.263   2.840  0.00  0.00    +0.061 S 
ATOM     14  O   UNL     1     -35.360  20.715   4.137  0.00  0.00    -0.153 OA
ATOM     15  O   UNL     1     -35.849  22.697   2.668  0.00  0.00    -0.153 OA
BRANCH  13  16
ATOM     16  C   UNL     1     -34.490  20.725   1.676  0.00  0.00    +0.122 C 
ATOM     17  C   UNL     1     -34.086  21.574   0.646  0.00  0.00    +0.020 C 
ATOM     18  C   UNL     1     -33.933  19.450   1.789  0.00  0.00    +0.020 C 
ATOM     19  C   UNL     1     -32.568  19.875  -0.159  0.00  0.00    -0.022 C 
ATOM     20  C   UNL     1     -33.125  21.149  -0.271  0.00  0.00    -0.003 C 
ATOM     21  C   UNL     1     -32.973  19.025   0.871  0.00  0.00    -0.003 C 
ATOM     22  C   UNL     1     -31.541  19.420  -1.140  0.00  0.00    +0.031 C 
ENDBRANCH  13  16
ENDBRANCH  11  13
ENDBRANCH   1  11
BRANCH   1  23
ATOM     23  C   UNL     1     -38.185  19.926   0.116  0.00  0.00    +0.027 C 
BRANCH  23  24
ATOM     24  C   UNL     1     -36.989  19.474  -0.729  0.00  0.00    -0.000 C 
BRANCH  24  25
ATOM     25  C   UNL     1     -36.513  18.079  -0.317  0.00  0.00    -0.024 C 
BRANCH  25  26
ATOM     26  C   UNL     1     -37.668  17.080  -0.311  0.00  0.00    -0.086 C 
BRANCH  26  27
ATOM     27  N   UNL     1     -37.303  15.888   0.444  0.00  0.00    +0.380 N 
ATOM     28  H   UNL     1     -36.620  15.345  -0.085  0.00  0.00    -0.089 HD
ATOM     29  H   UNL     1     -38.134  15.320   0.608  0.00  0.00    -0.089 HD
ATOM     30  H   UNL     1     -36.898  16.163   1.339  0.00  0.00    -0.089 HD
ENDBRANCH  26  27
ENDBRANCH  25  26
ENDBRANCH  24  25
ENDBRANCH  23  24
ENDBRANCH   1  23
TORSDOF 12
ENDMDL
MODEL 9
REMARK VINA RESULT:      -5.3      2.517      6.033
REMARK  Name = 192728
REMARK  12 active torsions:
REMARK  status: ('A' for Active; 'I' for Inactive)
REMARK    1  A    between atoms: C_1  and  C_4
REMARK    2  A    between atoms: C_1  and  N_11
REMARK    3  A    between atoms: C_1  and  C_23
REMARK    4  A    between atoms: N_3  and  C_6
REMARK    5  A    between atoms: C_6  and  C_8
REMARK    6  A    between atoms: C_8  and  O_9
REMARK    7  A    between atoms: N_11  and  S_13
REMARK    8  A    between atoms: S_13  and  C_16
REMARK    9  A    between atoms: C_23  and  C_24
REMARK   10  A    between atoms: C_24  and  C_25
REMARK   11  A    between atoms: C_25  and  C_26
REMARK   12  A    between atoms: C_26  and  N_27
REMARK                            x       y       z     vdW  Elec       q    Type
REMARK                         _______ _______ _______ _____ _____    ______ ____
ROOT
ATOM      1  C   UNL     1     -35.834  22.647   3.523  0.00  0.00    +0.151 C 
ENDROOT
BRANCH   1   4
ATOM      2  O   UNL     1     -35.208  20.321   3.314  0.00  0.00    -0.274 OA
ATOM      3  N   UNL     1     -35.564  21.557   1.383  0.00  0.00    -0.294 N 
ATOM      4  C   UNL     1     -35.494  21.378   2.757  0.00  0.00    +0.239 C 
ATOM      5  H   UNL     1     -35.802  22.445   1.031  0.00  0.00    +0.150 HD
BRANCH   3   6
ATOM      6  C   UNL     1     -35.301  20.487   0.448  0.00  0.00    +0.200 C 
BRANCH   6   8
ATOM      7  O   UNL     1     -37.141  19.761  -0.923  0.00  0.00    -0.248 OA
ATOM      8  C   UNL     1     -36.527  19.669   0.132  0.00  0.00    +0.334 C 
BRANCH   8   9
ATOM      9  O   UNL     1     -36.886  18.825   1.128  0.00  0.00    -0.479 OA
ATOM     10  H   UNL     1     -36.660  19.025   2.015  0.00  0.00    +0.295 HD
ENDBRANCH   8   9
ENDBRANCH   6   8
ENDBRANCH   3   6
ENDBRANCH   1   4
BRANCH   1  11
ATOM     11  N   UNL     1     -37.313  22.701   3.527  0.00  0.00    -0.172 NA
ATOM     12  H   UNL     1     -37.641  21.865   3.043  0.00  0.00    +0.149 HD
BRANCH  11  13
ATOM     13  S   UNL     1     -38.114  24.023   2.821  0.00  0.00    +0.061 S 
ATOM     14  O   UNL     1     -37.155  24.840   2.102  0.00  0.00    -0.153 OA
ATOM     15  O   UNL     1     -38.987  24.625   3.810  0.00  0.00    -0.153 OA
BRANCH  13  16
ATOM     16  C   UNL     1     -39.153  23.227   1.633  0.00  0.00    +0.122 C 
ATOM     17  C   UNL     1     -39.185  21.835   1.556  0.00  0.00    +0.020 C 
ATOM     18  C   UNL     1     -39.941  23.992   0.773  0.00  0.00    +0.020 C 
ATOM     19  C   UNL     1     -40.794  21.971  -0.240  0.00  0.00    -0.022 C 
ATOM     20  C   UNL     1     -40.006  21.207   0.620  0.00  0.00    -0.003 C 
ATOM     21  C   UNL     1     -40.761  23.364  -0.164  0.00  0.00    -0.003 C 
ATOM     22  C   UNL     1     -41.671  21.300  -1.243  0.00  0.00    +0.031 C 
ENDBRANCH  13  16
ENDBRANCH  11  13
ENDBRANCH   1  11
BRANCH   1  23
ATOM     23  C   UNL     1     -35.308  22.610   4.959  0.00  0.00    +0.027 C 
BRANCH  23  24
ATOM     24  C   UNL     1     -35.518  23.941   5.689  0.00  0.00    -0.000 C 
BRANCH  24  25
ATOM     25  C   UNL     1     -34.511  24.995   5.223  0.00  0.00    -0.024 C 
BRANCH  25  26
ATOM     26  C   UNL     1     -35.219  26.234   4.681  0.00  0.00    -0.086 C 
BRANCH  26  27
ATOM     27  N   UNL     1     -36.622  26.230   5.078  0.00  0.00    +0.380 N 
ATOM     28  H   UNL     1     -36.792  26.989   5.738  0.00  0.00    -0.089 HD
ATOM     29  H   UNL     1     -36.849  25.339   5.519  0.00  0.00    -0.089 HD
ATOM     30  H   UNL     1     -37.208  26.360   4.254  0.00  0.00    -0.089 HD
ENDBRANCH  26  27
ENDBRANCH  25  26
ENDBRANCH  24  25
ENDBRANCH  23  24
ENDBRANCH   1  23
TORSDOF 12
ENDMDL
