MODEL 1
REMARK VINA RESULT:      -5.7      0.000      0.000
REMARK  Name = 54683691
REMARK  7 active torsions:
REMARK  status: ('A' for Active; 'I' for Inactive)
REMARK    1  A    between atoms: N_2  and  C1*_11
REMARK    2  A    between atoms: C_5  and  N_22
REMARK    3  A    between atoms: C_7  and  O_23
REMARK    4  A    between atoms: C2*_9  and  O2*_13
REMARK    5  A    between atoms: C3*_10  and  O3*_15
REMARK    6  A    between atoms: C4*_12  and  C5*_17
REMARK    7  A    between atoms: C5*_17  and  O5*_18
REMARK                            x       y       z     vdW  Elec       q    Type
REMARK                         _______ _______ _______ _____ _____    ______ ____
ROOT
ATOM      1  O   UNL     1     -37.818  26.668   2.655  0.00  0.00    -0.268 OA
ATOM      2  N   UNL     1     -37.306  24.419   3.051  0.00  0.00    -0.228 N 
ATOM      3  C   UNL     1     -38.117  25.478   2.578  0.00  0.00    +0.280 C 
ATOM      4  C   UNL     1     -37.728  23.094   2.922  0.00  0.00    +0.073 C 
ATOM      5  C   UNL     1     -39.406  25.063   1.952  0.00  0.00    +0.230 C 
ATOM      6  C   UNL     1     -38.892  22.755   2.354  0.00  0.00    +0.055 C 
ATOM      7  C   UNL     1     -39.775  23.778   1.846  0.00  0.00    +0.162 C 
ENDROOT
BRANCH   2  11
ATOM      8  O4* UNL     1     -35.323  23.436   3.804  0.00  0.00    -0.333 OA
ATOM      9  C2* UNL     1     -36.184  25.239   5.077  0.00  0.00    +0.187 C 
ATOM     10  C3* UNL     1     -34.934  24.720   5.756  0.00  0.00    +0.171 C 
ATOM     11  C1* UNL     1     -36.038  24.675   3.674  0.00  0.00    +0.228 C 
ATOM     12  C4* UNL     1     -34.791  23.334   5.143  0.00  0.00    +0.175 C 
BRANCH   9  13
ATOM     13  O2* UNL     1     -36.256  26.651   5.090  0.00  0.00    -0.378 OA
ATOM     14  H2* UNL     1     -36.519  26.953   5.974  0.00  0.00    +0.211 HD
ENDBRANCH   9  13
BRANCH  10  15
ATOM     15  O3* UNL     1     -33.801  25.495   5.364  0.00  0.00    -0.379 OA
ATOM     16  H3* UNL     1     -33.368  25.858   6.153  0.00  0.00    +0.211 HD
ENDBRANCH  10  15
BRANCH  12  17
ATOM     17  C5* UNL     1     -35.577  22.263   5.887  0.00  0.00    +0.169 C 
BRANCH  17  18
ATOM     18  O5* UNL     1     -35.194  20.992   5.390  0.00  0.00    -0.379 OA
ATOM     19  H5* UNL     1     -34.400  20.689   5.857  0.00  0.00    +0.211 HD
ENDBRANCH  17  18
ENDBRANCH  12  17
ENDBRANCH   2  11
BRANCH   5  22
ATOM     20  O   UNL     1     -40.379  26.173   0.223  0.00  0.00    -0.126 OA
ATOM     21  O   UNL     1     -40.848  26.789   2.284  0.00  0.00    -0.126 OA
ATOM     22  N   UNL     1     -40.269  26.077   1.453  0.00  0.00    +0.065 N 
ENDBRANCH   5  22
BRANCH   7  23
ATOM     23  O   UNL     1     -40.931  23.284   1.292  0.00  0.00    -0.504 OA
ATOM     24  H   UNL     1     -41.068  22.357   1.245  0.00  0.00    +0.292 HD
ENDBRANCH   7  23
TORSDOF 7
ENDMDL
MODEL 2
REMARK VINA RESULT:      -5.5      3.286      5.264
REMARK  Name = 54683691
REMARK  7 active torsions:
REMARK  status: ('A' for Active; 'I' for Inactive)
REMARK    1  A    between atoms: N_2  and  C1*_11
REMARK    2  A    between atoms: C_5  and  N_22
REMARK    3  A    between atoms: C_7  and  O_23
REMARK    4  A    between atoms: C2*_9  and  O2*_13
REMARK    5  A    between atoms: C3*_10  and  O3*_15
REMARK    6  A    between atoms: C4*_12  and  C5*_17
REMARK    7  A    between atoms: C5*_17  and  O5*_18
REMARK                            x       y       z     vdW  Elec       q    Type
REMARK                         _______ _______ _______ _____ _____    ______ ____
ROOT
ATOM      1  O   UNL     1     -35.105  23.273   1.627  0.00  0.00    -0.268 OA
ATOM      2  N   UNL     1     -34.714  24.320   3.683  0.00  0.00    -0.228 N 
ATOM      3  C   UNL     1     -35.057  23.225   2.855  0.00  0.00    +0.280 C 
ATOM      4  C   UNL     1     -34.687  24.173   5.072  0.00  0.00    +0.073 C 
ATOM      5  C   UNL     1     -35.370  21.956   3.573  0.00  0.00    +0.230 C 
ATOM      6  C   UNL     1     -34.973  23.019   5.686  0.00  0.00    +0.055 C 
ATOM      7  C   UNL     1     -35.332  21.855   4.910  0.00  0.00    +0.162 C 
ENDROOT
BRANCH   2  11
ATOM      8  O4* UNL     1     -33.058  25.963   3.530  0.00  0.00    -0.333 OA
ATOM      9  C2* UNL     1     -35.307  26.703   3.625  0.00  0.00    +0.187 C 
ATOM     10  C3* UNL     1     -34.400  27.914   3.577  0.00  0.00    +0.171 C 
ATOM     11  C1* UNL     1     -34.388  25.601   3.125  0.00  0.00    +0.228 C 
ATOM     12  C4* UNL     1     -33.062  27.328   4.004  0.00  0.00    +0.175 C 
BRANCH   9  13
ATOM     13  O2* UNL     1     -36.457  26.860   2.817  0.00  0.00    -0.378 OA
ATOM     14  H2* UNL     1     -36.894  26.002   2.707  0.00  0.00    +0.211 HD
ENDBRANCH   9  13
BRANCH  10  15
ATOM     15  O3* UNL     1     -34.269  28.381   2.234  0.00  0.00    -0.379 OA
ATOM     16  H3* UNL     1     -33.347  28.634   2.068  0.00  0.00    +0.211 HD
ENDBRANCH  10  15
BRANCH  12  17
ATOM     17  C5* UNL     1     -32.868  27.307   5.514  0.00  0.00    +0.169 C 
BRANCH  17  18
ATOM     18  O5* UNL     1     -32.412  28.582   5.931  0.00  0.00    -0.379 OA
ATOM     19  H5* UNL     1     -32.965  29.270   5.529  0.00  0.00    +0.211 HD
ENDBRANCH  17  18
ENDBRANCH  12  17
ENDBRANCH   2  11
BRANCH   5  22
ATOM     20  O   UNL     1     -34.851  19.947   2.642  0.00  0.00    -0.126 OA
ATOM     21  O   UNL     1     -36.871  20.770   2.344  0.00  0.00    -0.126 OA
ATOM     22  N   UNL     1     -35.722  20.814   2.801  0.00  0.00    +0.065 N 
ENDBRANCH   5  22
BRANCH   7  23
ATOM     23  O   UNL     1     -35.598  20.744   5.673  0.00  0.00    -0.504 OA
ATOM     24  H   UNL     1     -34.948  20.415   6.264  0.00  0.00    +0.292 HD
ENDBRANCH   7  23
TORSDOF 7
ENDMDL
MODEL 3
REMARK VINA RESULT:      -5.5      1.424      2.590
REMARK  Name = 54683691
REMARK  7 active torsions:
REMARK  status: ('A' for Active; 'I' for Inactive)
REMARK    1  A    between atoms: N_2  and  C1*_11
REMARK    2  A    between atoms: C_5  and  N_22
REMARK    3  A    between atoms: C_7  and  O_23
REMARK    4  A    between atoms: C2*_9  and  O2*_13
REMARK    5  A    between atoms: C3*_10  and  O3*_15
REMARK    6  A    between atoms: C4*_12  and  C5*_17
REMARK    7  A    between atoms: C5*_17  and  O5*_18
REMARK                            x       y       z     vdW  Elec       q    Type
REMARK                         _______ _______ _______ _____ _____    ______ ____
ROOT
ATOM      1  O   UNL     1     -36.964  22.108   2.789  0.00  0.00    -0.268 OA
ATOM      2  N   UNL     1     -37.393  24.379   3.157  0.00  0.00    -0.228 N 
ATOM      3  C   UNL     1     -37.721  23.074   2.718  0.00  0.00    +0.280 C 
ATOM      4  C   UNL     1     -38.318  25.418   3.036  0.00  0.00    +0.073 C 
ATOM      5  C   UNL     1     -39.088  22.921   2.141  0.00  0.00    +0.230 C 
ATOM      6  C   UNL     1     -39.539  25.247   2.514  0.00  0.00    +0.055 C 
ATOM      7  C   UNL     1     -39.949  23.944   2.043  0.00  0.00    +0.162 C 
ENDROOT
BRANCH   2  11
ATOM      8  O4* UNL     1     -35.362  23.448   3.847  0.00  0.00    -0.333 OA
ATOM      9  C2* UNL     1     -36.222  25.238   5.138  0.00  0.00    +0.187 C 
ATOM     10  C3* UNL     1     -34.937  24.754   5.776  0.00  0.00    +0.171 C 
ATOM     11  C1* UNL     1     -36.111  24.669   3.734  0.00  0.00    +0.228 C 
ATOM     12  C4* UNL     1     -34.782  23.368   5.167  0.00  0.00    +0.175 C 
BRANCH   9  13
ATOM     13  O2* UNL     1     -36.327  26.648   5.146  0.00  0.00    -0.378 OA
ATOM     14  H2* UNL     1     -37.257  26.902   5.246  0.00  0.00    +0.211 HD
ENDBRANCH   9  13
BRANCH  10  15
ATOM     15  O3* UNL     1     -33.837  25.553   5.341  0.00  0.00    -0.379 OA
ATOM     16  H3* UNL     1     -33.954  25.784   4.406  0.00  0.00    +0.211 HD
ENDBRANCH  10  15
BRANCH  12  17
ATOM     17  C5* UNL     1     -35.516  22.283   5.944  0.00  0.00    +0.169 C 
BRANCH  17  18
ATOM     18  O5* UNL     1     -35.495  21.088   5.183  0.00  0.00    -0.379 OA
ATOM     19  H5* UNL     1     -34.950  21.217   4.392  0.00  0.00    +0.211 HD
ENDBRANCH  17  18
ENDBRANCH  12  17
ENDBRANCH   2  11
BRANCH   5  22
ATOM     20  O   UNL     1     -40.387  21.062   2.306  0.00  0.00    -0.126 OA
ATOM     21  O   UNL     1     -38.897  21.181   0.690  0.00  0.00    -0.126 OA
ATOM     22  N   UNL     1     -39.484  21.635   1.681  0.00  0.00    +0.065 N 
ENDBRANCH   5  22
BRANCH   7  23
ATOM     23  O   UNL     1     -41.224  23.918   1.533  0.00  0.00    -0.504 OA
ATOM     24  H   UNL     1     -41.453  23.289   0.877  0.00  0.00    +0.292 HD
ENDBRANCH   7  23
TORSDOF 7
ENDMDL
MODEL 4
REMARK VINA RESULT:      -5.4      2.355      6.123
REMARK  Name = 54683691
REMARK  7 active torsions:
REMARK  status: ('A' for Active; 'I' for Inactive)
REMARK    1  A    between atoms: N_2  and  C1*_11
REMARK    2  A    between atoms: C_5  and  N_22
REMARK    3  A    between atoms: C_7  and  O_23
REMARK    4  A    between atoms: C2*_9  and  O2*_13
REMARK    5  A    between atoms: C3*_10  and  O3*_15
REMARK    6  A    between atoms: C4*_12  and  C5*_17
REMARK    7  A    between atoms: C5*_17  and  O5*_18
REMARK                            x       y       z     vdW  Elec       q    Type
REMARK                         _______ _______ _______ _____ _____    ______ ____
ROOT
ATOM      1  O   UNL     1     -35.727  21.715   3.455  0.00  0.00    -0.268 OA
ATOM      2  N   UNL     1     -37.593  22.854   2.623  0.00  0.00    -0.228 N 
ATOM      3  C   UNL     1     -36.451  22.708   3.445  0.00  0.00    +0.280 C 
ATOM      4  C   UNL     1     -38.360  24.021   2.679  0.00  0.00    +0.073 C 
ATOM      5  C   UNL     1     -36.154  23.868   4.335  0.00  0.00    +0.230 C 
ATOM      6  C   UNL     1     -38.065  25.045   3.490  0.00  0.00    +0.055 C 
ATOM      7  C   UNL     1     -36.914  24.972   4.360  0.00  0.00    +0.162 C 
ENDROOT
BRANCH   2  11
ATOM      8  O4* UNL     1     -37.430  22.082   0.422  0.00  0.00    -0.333 OA
ATOM      9  C2* UNL     1     -39.501  21.762   1.527  0.00  0.00    +0.187 C 
ATOM     10  C3* UNL     1     -39.621  21.239   0.111  0.00  0.00    +0.171 C 
ATOM     11  C1* UNL     1     -37.995  21.817   1.717  0.00  0.00    +0.228 C 
ATOM     12  C4* UNL     1     -38.456  21.928  -0.583  0.00  0.00    +0.175 C 
BRANCH   9  13
ATOM     13  O2* UNL     1     -40.137  20.919   2.467  0.00  0.00    -0.378 OA
ATOM     14  H2* UNL     1     -39.690  20.996   3.324  0.00  0.00    +0.211 HD
ENDBRANCH   9  13
BRANCH  10  15
ATOM     15  O3* UNL     1     -39.382  19.832   0.082  0.00  0.00    -0.379 OA
ATOM     16  H3* UNL     1     -39.457  19.510  -0.830  0.00  0.00    +0.211 HD
ENDBRANCH  10  15
BRANCH  12  17
ATOM     17  C5* UNL     1     -38.806  23.310  -1.119  0.00  0.00    +0.169 C 
BRANCH  17  18
ATOM     18  O5* UNL     1     -37.735  24.193  -0.833  0.00  0.00    -0.379 OA
ATOM     19  H5* UNL     1     -36.911  23.829  -1.193  0.00  0.00    +0.211 HD
ENDBRANCH  17  18
ENDBRANCH  12  17
ENDBRANCH   2  11
BRANCH   5  22
ATOM     20  O   UNL     1     -35.110  23.064   6.189  0.00  0.00    -0.126 OA
ATOM     21  O   UNL     1     -34.020  24.447   4.867  0.00  0.00    -0.126 OA
ATOM     22  N   UNL     1     -35.018  23.788   5.187  0.00  0.00    +0.065 N 
ENDBRANCH   5  22
BRANCH   7  23
ATOM     23  O   UNL     1     -36.736  26.093   5.134  0.00  0.00    -0.504 OA
ATOM     24  H   UNL     1     -36.314  26.023   5.969  0.00  0.00    +0.292 HD
ENDBRANCH   7  23
TORSDOF 7
ENDMDL
MODEL 5
REMARK VINA RESULT:      -5.4      3.565      6.603
REMARK  Name = 54683691
REMARK  7 active torsions:
REMARK  status: ('A' for Active; 'I' for Inactive)
REMARK    1  A    between atoms: N_2  and  C1*_11
REMARK    2  A    between atoms: C_5  and  N_22
REMARK    3  A    between atoms: C_7  and  O_23
REMARK    4  A    between atoms: C2*_9  and  O2*_13
REMARK    5  A    between atoms: C3*_10  and  O3*_15
REMARK    6  A    between atoms: C4*_12  and  C5*_17
REMARK    7  A    between atoms: C5*_17  and  O5*_18
REMARK                            x       y       z     vdW  Elec       q    Type
REMARK                         _______ _______ _______ _____ _____    ______ ____
ROOT
ATOM      1  O   UNL     1     -33.480  27.775   2.914  0.00  0.00    -0.268 OA
ATOM      2  N   UNL     1     -34.014  26.526   4.819  0.00  0.00    -0.228 N 
ATOM      3  C   UNL     1     -33.306  27.521   4.105  0.00  0.00    +0.280 C 
ATOM      4  C   UNL     1     -33.749  26.305   6.173  0.00  0.00    +0.073 C 
ATOM      5  C   UNL     1     -32.297  28.279   4.899  0.00  0.00    +0.230 C 
ATOM      6  C   UNL     1     -32.836  27.004   6.857  0.00  0.00    +0.055 C 
ATOM      7  C   UNL     1     -32.072  28.037   6.198  0.00  0.00    +0.162 C 
ENDROOT
BRANCH   2  11
ATOM      8  O4* UNL     1     -35.865  25.144   5.184  0.00  0.00    -0.333 OA
ATOM      9  C2* UNL     1     -34.419  24.562   3.400  0.00  0.00    +0.187 C 
ATOM     10  C3* UNL     1     -35.515  23.522   3.494  0.00  0.00    +0.171 C 
ATOM     11  C1* UNL     1     -35.016  25.721   4.179  0.00  0.00    +0.228 C 
ATOM     12  C4* UNL     1     -36.038  23.737   4.907  0.00  0.00    +0.175 C 
BRANCH   9  13
ATOM     13  O2* UNL     1     -34.116  24.904   2.062  0.00  0.00    -0.378 OA
ATOM     14  H2* UNL     1     -34.004  25.864   1.992  0.00  0.00    +0.211 HD
ENDBRANCH   9  13
BRANCH  10  15
ATOM     15  O3* UNL     1     -36.569  23.831   2.582  0.00  0.00    -0.379 OA
ATOM     16  H3* UNL     1     -36.923  24.712   2.782  0.00  0.00    +0.211 HD
ENDBRANCH  10  15
BRANCH  12  17
ATOM     17  C5* UNL     1     -35.272  22.948   5.960  0.00  0.00    +0.169 C 
BRANCH  17  18
ATOM     18  O5* UNL     1     -36.082  21.873   6.401  0.00  0.00    -0.379 OA
ATOM     19  H5* UNL     1     -35.534  21.227   6.873  0.00  0.00    +0.211 HD
ENDBRANCH  17  18
ENDBRANCH  12  17
ENDBRANCH   2  11
BRANCH   5  22
ATOM     20  O   UNL     1     -30.358  29.057   4.001  0.00  0.00    -0.126 OA
ATOM     21  O   UNL     1     -32.143  30.345   3.960  0.00  0.00    -0.126 OA
ATOM     22  N   UNL     1     -31.550  29.296   4.242  0.00  0.00    +0.065 N 
ENDBRANCH   5  22
BRANCH   7  23
ATOM     23  O   UNL     1     -31.173  28.670   7.023  0.00  0.00    -0.504 OA
ATOM     24  H   UNL     1     -31.361  28.759   7.938  0.00  0.00    +0.292 HD
ENDBRANCH   7  23
TORSDOF 7
ENDMDL
MODEL 6
REMARK VINA RESULT:      -5.3      2.477      3.895
REMARK  Name = 54683691
REMARK  7 active torsions:
REMARK  status: ('A' for Active; 'I' for Inactive)
REMARK    1  A    between atoms: N_2  and  C1*_11
REMARK    2  A    between atoms: C_5  and  N_22
REMARK    3  A    between atoms: C_7  and  O_23
REMARK    4  A    between atoms: C2*_9  and  O2*_13
REMARK    5  A    between atoms: C3*_10  and  O3*_15
REMARK    6  A    between atoms: C4*_12  and  C5*_17
REMARK    7  A    between atoms: C5*_17  and  O5*_18
REMARK                            x       y       z     vdW  Elec       q    Type
REMARK                         _______ _______ _______ _____ _____    ______ ____
ROOT
ATOM      1  O   UNL     1     -38.557  24.191   1.627  0.00  0.00    -0.268 OA
ATOM      2  N   UNL     1     -36.442  23.993   2.608  0.00  0.00    -0.228 N 
ATOM      3  C   UNL     1     -37.651  23.489   2.073  0.00  0.00    +0.280 C 
ATOM      4  C   UNL     1     -35.466  23.119   3.094  0.00  0.00    +0.073 C 
ATOM      5  C   UNL     1     -37.779  22.003   2.075  0.00  0.00    +0.230 C 
ATOM      6  C   UNL     1     -35.612  21.789   3.081  0.00  0.00    +0.055 C 
ATOM      7  C   UNL     1     -36.819  21.197   2.551  0.00  0.00    +0.162 C 
ENDROOT
BRANCH   2  11
ATOM      8  O4* UNL     1     -35.197  25.741   1.680  0.00  0.00    -0.333 OA
ATOM      9  C2* UNL     1     -35.621  25.836   4.009  0.00  0.00    +0.187 C 
ATOM     10  C3* UNL     1     -34.767  27.025   3.623  0.00  0.00    +0.171 C 
ATOM     11  C1* UNL     1     -36.185  25.404   2.666  0.00  0.00    +0.228 C 
ATOM     12  C4* UNL     1     -34.191  26.584   2.285  0.00  0.00    +0.175 C 
BRANCH   9  13
ATOM     13  O2* UNL     1     -36.630  26.178   4.938  0.00  0.00    -0.378 OA
ATOM     14  H2* UNL     1     -36.358  26.967   5.433  0.00  0.00    +0.211 HD
ENDBRANCH   9  13
BRANCH  10  15
ATOM     15  O3* UNL     1     -35.589  28.170   3.393  0.00  0.00    -0.379 OA
ATOM     16  H3* UNL     1     -36.011  28.438   4.224  0.00  0.00    +0.211 HD
ENDBRANCH  10  15
BRANCH  12  17
ATOM     17  C5* UNL     1     -32.909  25.773   2.419  0.00  0.00    +0.169 C 
BRANCH  17  18
ATOM     18  O5* UNL     1     -32.042  26.441   3.318  0.00  0.00    -0.379 OA
ATOM     19  H5* UNL     1     -31.251  26.740   2.842  0.00  0.00    +0.211 HD
ENDBRANCH  17  18
ENDBRANCH  12  17
ENDBRANCH   2  11
BRANCH   5  22
ATOM     20  O   UNL     1     -38.892  20.872   0.446  0.00  0.00    -0.126 OA
ATOM     21  O   UNL     1     -39.997  21.528   2.234  0.00  0.00    -0.126 OA
ATOM     22  N   UNL     1     -38.970  21.429   1.550  0.00  0.00    +0.065 N 
ENDBRANCH   5  22
BRANCH   7  23
ATOM     23  O   UNL     1     -36.828  19.825   2.602  0.00  0.00    -0.504 OA
ATOM     24  H   UNL     1     -36.038  19.345   2.444  0.00  0.00    +0.292 HD
ENDBRANCH   7  23
TORSDOF 7
ENDMDL
MODEL 7
REMARK VINA RESULT:      -5.3      2.469      3.717
REMARK  Name = 54683691
REMARK  7 active torsions:
REMARK  status: ('A' for Active; 'I' for Inactive)
REMARK    1  A    between atoms: N_2  and  C1*_11
REMARK    2  A    between atoms: C_5  and  N_22
REMARK    3  A    between atoms: C_7  and  O_23
REMARK    4  A    between atoms: C2*_9  and  O2*_13
REMARK    5  A    between atoms: C3*_10  and  O3*_15
REMARK    6  A    between atoms: C4*_12  and  C5*_17
REMARK    7  A    between atoms: C5*_17  and  O5*_18
REMARK                            x       y       z     vdW  Elec       q    Type
REMARK                         _______ _______ _______ _____ _____    ______ ____
ROOT
ATOM      1  O   UNL     1     -38.754  23.648   3.002  0.00  0.00    -0.268 OA
ATOM      2  N   UNL     1     -36.531  22.954   3.234  0.00  0.00    -0.228 N 
ATOM      3  C   UNL     1     -37.862  22.835   2.766  0.00  0.00    +0.280 C 
ATOM      4  C   UNL     1     -35.582  21.979   2.917  0.00  0.00    +0.073 C 
ATOM      5  C   UNL     1     -38.140  21.628   1.937  0.00  0.00    +0.230 C 
ATOM      6  C   UNL     1     -35.865  20.906   2.169  0.00  0.00    +0.055 C 
ATOM      7  C   UNL     1     -37.201  20.714   1.654  0.00  0.00    +0.162 C 
ENDROOT
BRANCH   2  11
ATOM      8  O4* UNL     1     -35.838  25.186   3.186  0.00  0.00    -0.333 OA
ATOM      9  C2* UNL     1     -34.850  23.785   4.821  0.00  0.00    +0.187 C 
ATOM     10  C3* UNL     1     -34.234  25.163   4.929  0.00  0.00    +0.171 C 
ATOM     11  C1* UNL     1     -36.123  24.068   4.042  0.00  0.00    +0.228 C 
ATOM     12  C4* UNL     1     -34.577  25.772   3.576  0.00  0.00    +0.175 C 
BRANCH   9  13
ATOM     13  O2* UNL     1     -35.104  23.210   6.087  0.00  0.00    -0.378 OA
ATOM     14  H2* UNL     1     -35.875  22.625   6.027  0.00  0.00    +0.211 HD
ENDBRANCH   9  13
BRANCH  10  15
ATOM     15  O3* UNL     1     -34.900  25.925   5.936  0.00  0.00    -0.379 OA
ATOM     16  H3* UNL     1     -35.177  25.337   6.656  0.00  0.00    +0.211 HD
ENDBRANCH  10  15
BRANCH  12  17
ATOM     17  C5* UNL     1     -33.551  25.455   2.496  0.00  0.00    +0.169 C 
BRANCH  17  18
ATOM     18  O5* UNL     1     -32.268  25.834   2.963  0.00  0.00    -0.379 OA
ATOM     19  H5* UNL     1     -31.630  25.134   2.756  0.00  0.00    +0.211 HD
ENDBRANCH  17  18
ENDBRANCH  12  17
ENDBRANCH   2  11
BRANCH   5  22
ATOM     20  O   UNL     1     -40.333  21.109   2.242  0.00  0.00    -0.126 OA
ATOM     21  O   UNL     1     -39.634  21.640   0.223  0.00  0.00    -0.126 OA
ATOM     22  N   UNL     1     -39.458  21.447   1.433  0.00  0.00    +0.065 N 
ENDBRANCH   5  22
BRANCH   7  23
ATOM     23  O   UNL     1     -37.344  19.572   0.904  0.00  0.00    -0.504 OA
ATOM     24  H   UNL     1     -36.588  19.156   0.536  0.00  0.00    +0.292 HD
ENDBRANCH   7  23
TORSDOF 7
ENDMDL
MODEL 8
REMARK VINA RESULT:      -5.2      2.293      5.930
REMARK  Name = 54683691
REMARK  7 active torsions:
REMARK  status: ('A' for Active; 'I' for Inactive)
REMARK    1  A    between atoms: N_2  and  C1*_11
REMARK    2  A    between atoms: C_5  and  N_22
REMARK    3  A    between atoms: C_7  and  O_23
REMARK    4  A    between atoms: C2*_9  and  O2*_13
REMARK    5  A    between atoms: C3*_10  and  O3*_15
REMARK    6  A    between atoms: C4*_12  and  C5*_17
REMARK    7  A    between atoms: C5*_17  and  O5*_18
REMARK                            x       y       z     vdW  Elec       q    Type
REMARK                         _______ _______ _______ _____ _____    ______ ____
ROOT
ATOM      1  O   UNL     1     -34.363  26.053   1.985  0.00  0.00    -0.268 OA
ATOM      2  N   UNL     1     -35.631  24.886   3.568  0.00  0.00    -0.228 N 
ATOM      3  C   UNL     1     -34.627  25.795   3.158  0.00  0.00    +0.280 C 
ATOM      4  C   UNL     1     -35.861  24.653   4.926  0.00  0.00    +0.073 C 
ATOM      5  C   UNL     1     -33.872  26.452   4.264  0.00  0.00    +0.230 C 
ATOM      6  C   UNL     1     -35.166  25.260   5.895  0.00  0.00    +0.055 C 
ATOM      7  C   UNL     1     -34.123  26.202   5.557  0.00  0.00    +0.162 C 
ENDROOT
BRANCH   2  11
ATOM      8  O4* UNL     1     -37.440  25.074   2.099  0.00  0.00    -0.333 OA
ATOM      9  C2* UNL     1     -37.172  23.005   3.221  0.00  0.00    +0.187 C 
ATOM     10  C3* UNL     1     -38.417  22.933   2.363  0.00  0.00    +0.171 C 
ATOM     11  C1* UNL     1     -36.435  24.183   2.609  0.00  0.00    +0.228 C 
ATOM     12  C4* UNL     1     -38.720  24.404   2.116  0.00  0.00    +0.175 C 
BRANCH   9  13
ATOM     13  O2* UNL     1     -36.419  21.809   3.176  0.00  0.00    -0.378 OA
ATOM     14  H2* UNL     1     -35.777  21.860   2.451  0.00  0.00    +0.211 HD
ENDBRANCH   9  13
BRANCH  10  15
ATOM     15  O3* UNL     1     -38.117  22.328   1.105  0.00  0.00    -0.379 OA
ATOM     16  H3* UNL     1     -37.424  21.660   1.225  0.00  0.00    +0.211 HD
ENDBRANCH  10  15
BRANCH  12  17
ATOM     17  C5* UNL     1     -39.572  25.036   3.209  0.00  0.00    +0.169 C 
BRANCH  17  18
ATOM     18  O5* UNL     1     -39.103  26.351   3.446  0.00  0.00    -0.379 OA
ATOM     19  H5* UNL     1     -39.384  26.641   4.328  0.00  0.00    +0.211 HD
ENDBRANCH  17  18
ENDBRANCH  12  17
ENDBRANCH   2  11
BRANCH   5  22
ATOM     20  O   UNL     1     -33.088  28.581   4.106  0.00  0.00    -0.126 OA
ATOM     21  O   UNL     1     -31.794  26.917   3.467  0.00  0.00    -0.126 OA
ATOM     22  N   UNL     1     -32.849  27.379   3.923  0.00  0.00    +0.065 N 
ENDBRANCH   5  22
BRANCH   7  23
ATOM     23  O   UNL     1     -33.496  26.747   6.652  0.00  0.00    -0.504 OA
ATOM     24  H   UNL     1     -32.607  26.519   6.842  0.00  0.00    +0.292 HD
ENDBRANCH   7  23
TORSDOF 7
ENDMDL
MODEL 9
REMARK VINA RESULT:      -5.2      2.803      5.404
REMARK  Name = 54683691
REMARK  7 active torsions:
REMARK  status: ('A' for Active; 'I' for Inactive)
REMARK    1  A    between atoms: N_2  and  C1*_11
REMARK    2  A    between atoms: C_5  and  N_22
REMARK    3  A    between atoms: C_7  and  O_23
REMARK    4  A    between atoms: C2*_9  and  O2*_13
REMARK    5  A    between atoms: C3*_10  and  O3*_15
REMARK    6  A    between atoms: C4*_12  and  C5*_17
REMARK    7  A    between atoms: C5*_17  and  O5*_18
REMARK                            x       y       z     vdW  Elec       q    Type
REMARK                         _______ _______ _______ _____ _____    ______ ____
ROOT
ATOM      1  O   UNL     1     -34.010  24.258   5.511  0.00  0.00    -0.268 OA
ATOM      2  N   UNL     1     -34.952  25.293   3.636  0.00  0.00    -0.228 N 
ATOM      3  C   UNL     1     -34.800  24.240   4.569  0.00  0.00    +0.280 C 
ATOM      4  C   UNL     1     -35.877  25.185   2.594  0.00  0.00    +0.073 C 
ATOM      5  C   UNL     1     -35.683  23.059   4.347  0.00  0.00    +0.230 C 
ATOM      6  C   UNL     1     -36.655  24.109   2.422  0.00  0.00    +0.055 C 
ATOM      7  C   UNL     1     -36.560  22.993   3.334  0.00  0.00    +0.162 C 
ENDROOT
BRANCH   2  11
ATOM      8  O4* UNL     1     -35.040  27.629   3.648  0.00  0.00    -0.333 OA
ATOM      9  C2* UNL     1     -33.172  26.625   2.591  0.00  0.00    +0.187 C 
ATOM     10  C3* UNL     1     -33.060  28.128   2.447  0.00  0.00    +0.171 C 
ATOM     11  C1* UNL     1     -34.167  26.491   3.731  0.00  0.00    +0.228 C 
ATOM     12  C4* UNL     1     -34.489  28.581   2.711  0.00  0.00    +0.175 C 
BRANCH   9  13
ATOM     13  O2* UNL     1     -31.929  26.019   2.881  0.00  0.00    -0.378 OA
ATOM     14  H2* UNL     1     -31.211  26.574   2.539  0.00  0.00    +0.211 HD
ENDBRANCH   9  13
BRANCH  10  15
ATOM     15  O3* UNL     1     -32.231  28.663   3.478  0.00  0.00    -0.379 OA
ATOM     16  H3* UNL     1     -32.302  28.109   4.271  0.00  0.00    +0.211 HD
ENDBRANCH  10  15
BRANCH  12  17
ATOM     17  C5* UNL     1     -35.362  28.578   1.463  0.00  0.00    +0.169 C 
BRANCH  17  18
ATOM     18  O5* UNL     1     -36.719  28.478   1.859  0.00  0.00    -0.379 OA
ATOM     19  H5* UNL     1     -36.819  27.745   2.486  0.00  0.00    +0.211 HD
ENDBRANCH  17  18
ENDBRANCH  12  17
ENDBRANCH   2  11
BRANCH   5  22
ATOM     20  O   UNL     1     -35.065  20.923   4.824  0.00  0.00    -0.126 OA
ATOM     21  O   UNL     1     -36.021  22.133   6.396  0.00  0.00    -0.126 OA
ATOM     22  N   UNL     1     -35.583  21.965   5.250  0.00  0.00    +0.065 N 
ENDBRANCH   5  22
BRANCH   7  23
ATOM     23  O   UNL     1     -37.417  21.962   3.036  0.00  0.00    -0.504 OA
ATOM     24  H   UNL     1     -37.371  21.543   2.199  0.00  0.00    +0.292 HD
ENDBRANCH   7  23
TORSDOF 7
ENDMDL
