MODEL 1
REMARK VINA RESULT:      -5.6      0.000      0.000
REMARK  Name = 5282253
REMARK  10 active torsions:
REMARK  status: ('A' for Active; 'I' for Inactive)
REMARK    1  A    between atoms: C_2  and  C_23
REMARK    2  A    between atoms: C_3  and  C_8
REMARK    3  A    between atoms: CA_4  and  C_20
REMARK    4  A    between atoms: C_10  and  C_11
REMARK    5  A    between atoms: C_12  and  C_13
REMARK    6  A    between atoms: C_13  and  C_16
REMARK    7  A    between atoms: C_16  and  O_17
REMARK    8  A    between atoms: C_20  and  O_21
REMARK    9  A    between atoms: C_23  and  C_25
REMARK   10  A    between atoms: C_25  and  O_26
REMARK                            x       y       z     vdW  Elec       q    Type
REMARK                         _______ _______ _______ _____ _____    ______ ____
ROOT
ATOM      1  N   UNL     1     -35.396  24.113   4.850  0.00  0.00    +0.392 N 
ATOM      2  C   UNL     1     -35.728  22.415   3.173  0.00  0.00    +0.004 C 
ATOM      3  C   UNL     1     -34.895  23.599   2.641  0.00  0.00    -0.004 C 
ATOM      4  CA  UNL     1     -36.003  22.798   4.640  0.00  0.00    +0.040 C 
ATOM      5  C   UNL     1     -35.329  24.751   3.537  0.00  0.00    -0.077 C 
ATOM      6  H1  UNL     1     -34.459  24.012   5.241  0.00  0.00    -0.084 HD
ATOM      7  H2  UNL     1     -35.942  24.672   5.505  0.00  0.00    -0.084 HD
ENDROOT
BRANCH   3   8
ATOM      8  C   UNL     1     -35.003  23.905   1.184  0.00  0.00    -0.046 C 
ATOM      9  C   UNL     1     -35.932  25.050   0.868  0.00  0.00    +0.026 C 
ATOM     10  C   UNL     1     -34.363  23.262   0.188  0.00  0.00    -0.009 C 
BRANCH  10  11
ATOM     11  C   UNL     1     -33.444  22.149   0.310  0.00  0.00    -0.005 C 
ATOM     12  C   UNL     1     -33.804  20.879   0.054  0.00  0.00    -0.015 C 
BRANCH  12  13
ATOM     13  C   UNL     1     -32.932  19.649   0.152  0.00  0.00    +0.121 C 
ATOM     14  C   UNL     1     -31.426  19.876   0.032  0.00  0.00    +0.016 C 
BRANCH  13  16
ATOM     15  O   UNL     1     -34.091  19.301   2.275  0.00  0.00    -0.250 OA
ATOM     16  C   UNL     1     -33.219  18.969   1.482  0.00  0.00    +0.317 C 
BRANCH  16  17
ATOM     17  O   UNL     1     -32.401  17.903   1.696  0.00  0.00    -0.480 OA
ATOM     18  H   UNL     1     -31.558  17.871   1.289  0.00  0.00    +0.295 HD
ENDBRANCH  16  17
ENDBRANCH  13  16
ENDBRANCH  12  13
ENDBRANCH  10  11
ENDBRANCH   3   8
BRANCH   4  20
ATOM     19  OXT UNL     1     -35.025  22.146   6.747  0.00  0.00    -0.253 OA
ATOM     20  C   UNL     1     -35.336  21.867   5.598  0.00  0.00    +0.293 C 
BRANCH  20  21
ATOM     21  O   UNL     1     -35.116  20.661   5.020  0.00  0.00    -0.482 OA
ATOM     22  H   UNL     1     -34.573  20.028   5.450  0.00  0.00    +0.295 HD
ENDBRANCH  20  21
ENDBRANCH   4  20
BRANCH   2  23
ATOM     23  C   UNL     1     -37.050  22.178   2.435  0.00  0.00    +0.108 C 
BRANCH  23  25
ATOM     24  O   UNL     1     -37.323  20.589   0.606  0.00  0.00    -0.250 OA
ATOM     25  C   UNL     1     -37.081  20.826   1.780  0.00  0.00    +0.314 C 
BRANCH  25  26
ATOM     26  O   UNL     1     -36.794  19.868   2.700  0.00  0.00    -0.480 OA
ATOM     27  H   UNL     1     -35.919  19.774   3.019  0.00  0.00    +0.295 HD
ENDBRANCH  25  26
ENDBRANCH  23  25
ENDBRANCH   2  23
TORSDOF 10
ENDMDL
MODEL 2
REMARK VINA RESULT:      -5.3      2.525      4.835
REMARK  Name = 5282253
REMARK  10 active torsions:
REMARK  status: ('A' for Active; 'I' for Inactive)
REMARK    1  A    between atoms: C_2  and  C_23
REMARK    2  A    between atoms: C_3  and  C_8
REMARK    3  A    between atoms: CA_4  and  C_20
REMARK    4  A    between atoms: C_10  and  C_11
REMARK    5  A    between atoms: C_12  and  C_13
REMARK    6  A    between atoms: C_13  and  C_16
REMARK    7  A    between atoms: C_16  and  O_17
REMARK    8  A    between atoms: C_20  and  O_21
REMARK    9  A    between atoms: C_23  and  C_25
REMARK   10  A    between atoms: C_25  and  O_26
REMARK                            x       y       z     vdW  Elec       q    Type
REMARK                         _______ _______ _______ _____ _____    ______ ____
ROOT
ATOM      1  N   UNL     1     -38.688  23.131  -0.162  0.00  0.00    +0.392 N 
ATOM      2  C   UNL     1     -36.963  22.506   1.401  0.00  0.00    +0.004 C 
ATOM      3  C   UNL     1     -36.653  23.846   0.701  0.00  0.00    -0.004 C 
ATOM      4  CA  UNL     1     -38.328  22.100   0.813  0.00  0.00    +0.040 C 
ATOM      5  C   UNL     1     -37.434  23.738  -0.601  0.00  0.00    -0.077 C 
ATOM      6  H1  UNL     1     -39.287  23.834   0.272  0.00  0.00    -0.084 HD
ATOM      7  H2  UNL     1     -39.202  22.735  -0.948  0.00  0.00    -0.084 HD
ENDROOT
BRANCH   3   8
ATOM      8  C   UNL     1     -35.215  24.193   0.507  0.00  0.00    -0.046 C 
ATOM      9  C   UNL     1     -34.718  23.969  -0.899  0.00  0.00    +0.026 C 
ATOM     10  C   UNL     1     -34.377  24.665   1.451  0.00  0.00    -0.009 C 
BRANCH  10  11
ATOM     11  C   UNL     1     -34.684  24.935   2.841  0.00  0.00    -0.005 C 
ATOM     12  C   UNL     1     -34.555  24.008   3.805  0.00  0.00    -0.015 C 
BRANCH  12  13
ATOM     13  C   UNL     1     -34.848  24.180   5.278  0.00  0.00    +0.121 C 
ATOM     14  C   UNL     1     -35.704  25.386   5.661  0.00  0.00    +0.016 C 
BRANCH  13  16
ATOM     15  O   UNL     1     -35.258  22.321   6.811  0.00  0.00    -0.250 OA
ATOM     16  C   UNL     1     -35.533  22.916   5.776  0.00  0.00    +0.317 C 
BRANCH  16  17
ATOM     17  O   UNL     1     -36.532  22.517   4.944  0.00  0.00    -0.480 OA
ATOM     18  H   UNL     1     -37.255  22.027   5.281  0.00  0.00    +0.295 HD
ENDBRANCH  16  17
ENDBRANCH  13  16
ENDBRANCH  12  13
ENDBRANCH  10  11
ENDBRANCH   3   8
BRANCH   4  20
ATOM     19  OXT UNL     1     -40.060  23.077   2.178  0.00  0.00    -0.253 OA
ATOM     20  C   UNL     1     -39.407  22.100   1.844  0.00  0.00    +0.293 C 
BRANCH  20  21
ATOM     21  O   UNL     1     -39.569  20.860   2.369  0.00  0.00    -0.482 OA
ATOM     22  H   UNL     1     -39.178  20.120   1.947  0.00  0.00    +0.295 HD
ENDBRANCH  20  21
ENDBRANCH   4  20
BRANCH   2  23
ATOM     23  C   UNL     1     -35.933  21.399   1.152  0.00  0.00    +0.108 C 
BRANCH  23  25
ATOM     24  O   UNL     1     -35.168  20.468   3.270  0.00  0.00    -0.250 OA
ATOM     25  C   UNL     1     -35.893  20.418   2.288  0.00  0.00    +0.314 C 
BRANCH  25  26
ATOM     26  O   UNL     1     -36.803  19.433   2.072  0.00  0.00    -0.480 OA
ATOM     27  H   UNL     1     -37.477  19.552   1.432  0.00  0.00    +0.295 HD
ENDBRANCH  25  26
ENDBRANCH  23  25
ENDBRANCH   2  23
TORSDOF 10
ENDMDL
MODEL 3
REMARK VINA RESULT:      -5.1      2.915      5.637
REMARK  Name = 5282253
REMARK  10 active torsions:
REMARK  status: ('A' for Active; 'I' for Inactive)
REMARK    1  A    between atoms: C_2  and  C_23
REMARK    2  A    between atoms: C_3  and  C_8
REMARK    3  A    between atoms: CA_4  and  C_20
REMARK    4  A    between atoms: C_10  and  C_11
REMARK    5  A    between atoms: C_12  and  C_13
REMARK    6  A    between atoms: C_13  and  C_16
REMARK    7  A    between atoms: C_16  and  O_17
REMARK    8  A    between atoms: C_20  and  O_21
REMARK    9  A    between atoms: C_23  and  C_25
REMARK   10  A    between atoms: C_25  and  O_26
REMARK                            x       y       z     vdW  Elec       q    Type
REMARK                         _______ _______ _______ _____ _____    ______ ____
ROOT
ATOM      1  N   UNL     1     -38.124  24.315   3.136  0.00  0.00    +0.392 N 
ATOM      2  C   UNL     1     -36.823  22.291   3.264  0.00  0.00    +0.004 C 
ATOM      3  C   UNL     1     -36.636  23.178   4.511  0.00  0.00    -0.004 C 
ATOM      4  CA  UNL     1     -37.834  23.078   2.409  0.00  0.00    +0.040 C 
ATOM      5  C   UNL     1     -36.967  24.571   3.991  0.00  0.00    -0.077 C 
ATOM      6  H1  UNL     1     -38.964  24.204   3.704  0.00  0.00    -0.084 HD
ATOM      7  H2  UNL     1     -38.288  25.092   2.496  0.00  0.00    -0.084 HD
ENDROOT
BRANCH   3   8
ATOM      8  C   UNL     1     -35.319  23.100   5.208  0.00  0.00    -0.046 C 
ATOM      9  C   UNL     1     -35.123  21.835   6.004  0.00  0.00    +0.026 C 
ATOM     10  C   UNL     1     -34.347  24.033   5.176  0.00  0.00    -0.009 C 
BRANCH  10  11
ATOM     11  C   UNL     1     -34.367  25.298   4.469  0.00  0.00    -0.005 C 
ATOM     12  C   UNL     1     -33.563  25.557   3.423  0.00  0.00    -0.015 C 
BRANCH  12  13
ATOM     13  C   UNL     1     -33.499  26.835   2.620  0.00  0.00    +0.121 C 
ATOM     14  C   UNL     1     -34.403  26.909   1.391  0.00  0.00    +0.016 C 
BRANCH  13  16
ATOM     15  O   UNL     1     -33.071  28.503   4.355  0.00  0.00    -0.250 OA
ATOM     16  C   UNL     1     -33.837  27.994   3.546  0.00  0.00    +0.317 C 
BRANCH  16  17
ATOM     17  O   UNL     1     -35.108  28.440   3.359  0.00  0.00    -0.480 OA
ATOM     18  H   UNL     1     -35.360  29.285   3.676  0.00  0.00    +0.295 HD
ENDBRANCH  16  17
ENDBRANCH  13  16
ENDBRANCH  12  13
ENDBRANCH  10  11
ENDBRANCH   3   8
BRANCH   4  20
ATOM     19  OXT UNL     1     -40.224  22.893   2.134  0.00  0.00    -0.253 OA
ATOM     20  C   UNL     1     -39.134  22.357   2.270  0.00  0.00    +0.293 C 
BRANCH  20  21
ATOM     21  O   UNL     1     -38.946  21.016   2.316  0.00  0.00    -0.482 OA
ATOM     22  H   UNL     1     -39.661  20.436   2.140  0.00  0.00    +0.295 HD
ENDBRANCH  20  21
ENDBRANCH   4  20
BRANCH   2  23
ATOM     23  C   UNL     1     -35.543  22.036   2.460  0.00  0.00    +0.108 C 
BRANCH  23  25
ATOM     24  O   UNL     1     -34.360  20.053   1.677  0.00  0.00    -0.250 OA
ATOM     25  C   UNL     1     -35.330  20.569   2.213  0.00  0.00    +0.314 C 
BRANCH  25  26
ATOM     26  O   UNL     1     -36.394  19.869   2.683  0.00  0.00    -0.480 OA
ATOM     27  H   UNL     1     -36.571  19.011   2.352  0.00  0.00    +0.295 HD
ENDBRANCH  25  26
ENDBRANCH  23  25
ENDBRANCH   2  23
TORSDOF 10
ENDMDL
MODEL 4
REMARK VINA RESULT:      -5.1     11.786     13.836
REMARK  Name = 5282253
REMARK  10 active torsions:
REMARK  status: ('A' for Active; 'I' for Inactive)
REMARK    1  A    between atoms: C_2  and  C_23
REMARK    2  A    between atoms: C_3  and  C_8
REMARK    3  A    between atoms: CA_4  and  C_20
REMARK    4  A    between atoms: C_10  and  C_11
REMARK    5  A    between atoms: C_12  and  C_13
REMARK    6  A    between atoms: C_13  and  C_16
REMARK    7  A    between atoms: C_16  and  O_17
REMARK    8  A    between atoms: C_20  and  O_21
REMARK    9  A    between atoms: C_23  and  C_25
REMARK   10  A    between atoms: C_25  and  O_26
REMARK                            x       y       z     vdW  Elec       q    Type
REMARK                         _______ _______ _______ _____ _____    ______ ____
ROOT
ATOM      1  N   UNL     1     -46.145  33.732   4.197  0.00  0.00    +0.392 N 
ATOM      2  C   UNL     1     -44.891  31.869   5.070  0.00  0.00    +0.004 C 
ATOM      3  C   UNL     1     -46.262  31.434   4.511  0.00  0.00    -0.004 C 
ATOM      4  CA  UNL     1     -44.861  33.387   4.809  0.00  0.00    +0.040 C 
ATOM      5  C   UNL     1     -47.093  32.705   4.621  0.00  0.00    -0.077 C 
ATOM      6  H1  UNL     1     -46.062  33.738   3.181  0.00  0.00    -0.084 HD
ATOM      7  H2  UNL     1     -46.454  34.661   4.484  0.00  0.00    -0.084 HD
ENDROOT
BRANCH   3   8
ATOM      8  C   UNL     1     -46.906  30.245   5.143  0.00  0.00    -0.046 C 
ATOM      9  C   UNL     1     -48.028  30.589   6.089  0.00  0.00    +0.026 C 
ATOM     10  C   UNL     1     -46.570  28.957   4.935  0.00  0.00    -0.009 C 
BRANCH  10  11
ATOM     11  C   UNL     1     -45.527  28.450   4.068  0.00  0.00    -0.005 C 
ATOM     12  C   UNL     1     -44.644  27.516   4.464  0.00  0.00    -0.015 C 
BRANCH  12  13
ATOM     13  C   UNL     1     -43.520  26.922   3.647  0.00  0.00    +0.121 C 
ATOM     14  C   UNL     1     -43.889  26.423   2.251  0.00  0.00    +0.016 C 
BRANCH  13  16
ATOM     15  O   UNL     1     -42.340  28.802   2.624  0.00  0.00    -0.250 OA
ATOM     16  C   UNL     1     -42.424  27.969   3.518  0.00  0.00    +0.317 C 
BRANCH  16  17
ATOM     17  O   UNL     1     -41.534  27.903   4.544  0.00  0.00    -0.480 OA
ATOM     18  H   UNL     1     -41.084  28.676   4.825  0.00  0.00    +0.295 HD
ENDBRANCH  16  17
ENDBRANCH  13  16
ENDBRANCH  12  13
ENDBRANCH  10  11
ENDBRANCH   3   8
BRANCH   4  20
ATOM     19  OXT UNL     1     -43.787  33.423   2.649  0.00  0.00    -0.253 OA
ATOM     20  C   UNL     1     -43.807  33.766   3.822  0.00  0.00    +0.293 C 
BRANCH  20  21
ATOM     21  O   UNL     1     -42.865  34.549   4.403  0.00  0.00    -0.482 OA
ATOM     22  H   UNL     1     -41.956  34.382   4.245  0.00  0.00    +0.295 HD
ENDBRANCH  20  21
ENDBRANCH   4  20
BRANCH   2  23
ATOM     23  C   UNL     1     -44.690  31.588   6.563  0.00  0.00    +0.108 C 
BRANCH  23  25
ATOM     24  O   UNL     1     -42.894  30.062   5.941  0.00  0.00    -0.250 OA
ATOM     25  C   UNL     1     -43.560  30.625   6.796  0.00  0.00    +0.314 C 
BRANCH  25  26
ATOM     26  O   UNL     1     -43.371  30.460   8.131  0.00  0.00    -0.480 OA
ATOM     27  H   UNL     1     -42.513  30.549   8.496  0.00  0.00    +0.295 HD
ENDBRANCH  25  26
ENDBRANCH  23  25
ENDBRANCH   2  23
TORSDOF 10
ENDMDL
MODEL 5
REMARK VINA RESULT:      -5.1      3.460      5.768
REMARK  Name = 5282253
REMARK  10 active torsions:
REMARK  status: ('A' for Active; 'I' for Inactive)
REMARK    1  A    between atoms: C_2  and  C_23
REMARK    2  A    between atoms: C_3  and  C_8
REMARK    3  A    between atoms: CA_4  and  C_20
REMARK    4  A    between atoms: C_10  and  C_11
REMARK    5  A    between atoms: C_12  and  C_13
REMARK    6  A    between atoms: C_13  and  C_16
REMARK    7  A    between atoms: C_16  and  O_17
REMARK    8  A    between atoms: C_20  and  O_21
REMARK    9  A    between atoms: C_23  and  C_25
REMARK   10  A    between atoms: C_25  and  O_26
REMARK                            x       y       z     vdW  Elec       q    Type
REMARK                         _______ _______ _______ _____ _____    ______ ____
ROOT
ATOM      1  N   UNL     1     -36.045  23.224  -0.405  0.00  0.00    +0.392 N 
ATOM      2  C   UNL     1     -37.193  22.604   1.620  0.00  0.00    +0.004 C 
ATOM      3  C   UNL     1     -35.683  22.299   1.695  0.00  0.00    -0.004 C 
ATOM      4  CA  UNL     1     -37.365  23.237   0.226  0.00  0.00    +0.040 C 
ATOM      5  C   UNL     1     -35.295  22.143   0.231  0.00  0.00    -0.077 C 
ATOM      6  H1  UNL     1     -35.573  24.115  -0.257  0.00  0.00    -0.084 HD
ATOM      7  H2  UNL     1     -36.117  23.080  -1.412  0.00  0.00    -0.084 HD
ENDROOT
BRANCH   3   8
ATOM      8  C   UNL     1     -35.264  21.148   2.548  0.00  0.00    -0.046 C 
ATOM      9  C   UNL     1     -34.878  19.918   1.766  0.00  0.00    +0.026 C 
ATOM     10  C   UNL     1     -35.211  21.136   3.894  0.00  0.00    -0.009 C 
BRANCH  10  11
ATOM     11  C   UNL     1     -35.545  22.219   4.796  0.00  0.00    -0.005 C 
ATOM     12  C   UNL     1     -35.033  23.456   4.665  0.00  0.00    -0.015 C 
BRANCH  12  13
ATOM     13  C   UNL     1     -35.308  24.652   5.546  0.00  0.00    +0.121 C 
ATOM     14  C   UNL     1     -34.167  25.656   5.700  0.00  0.00    +0.016 C 
BRANCH  13  16
ATOM     15  O   UNL     1     -37.431  24.857   4.353  0.00  0.00    -0.250 OA
ATOM     16  C   UNL     1     -36.526  25.378   4.993  0.00  0.00    +0.317 C 
BRANCH  16  17
ATOM     17  O   UNL     1     -36.521  26.699   5.315  0.00  0.00    -0.480 OA
ATOM     18  H   UNL     1     -35.892  27.274   4.926  0.00  0.00    +0.295 HD
ENDBRANCH  16  17
ENDBRANCH  13  16
ENDBRANCH  12  13
ENDBRANCH  10  11
ENDBRANCH   3   8
BRANCH   4  20
ATOM     19  OXT UNL     1     -37.812  25.445  -0.637  0.00  0.00    -0.253 OA
ATOM     20  C   UNL     1     -37.780  24.669   0.307  0.00  0.00    +0.293 C 
BRANCH  20  21
ATOM     21  O   UNL     1     -38.117  25.000   1.577  0.00  0.00    -0.482 OA
ATOM     22  H   UNL     1     -39.013  25.177   1.792  0.00  0.00    +0.295 HD
ENDBRANCH  20  21
ENDBRANCH   4  20
BRANCH   2  23
ATOM     23  C   UNL     1     -38.102  21.378   1.756  0.00  0.00    +0.108 C 
BRANCH  23  25
ATOM     24  O   UNL     1     -39.982  22.790   2.400  0.00  0.00    -0.250 OA
ATOM     25  C   UNL     1     -39.546  21.773   1.881  0.00  0.00    +0.314 C 
BRANCH  25  26
ATOM     26  O   UNL     1     -40.330  20.816   1.321  0.00  0.00    -0.480 OA
ATOM     27  H   UNL     1     -40.132  19.910   1.456  0.00  0.00    +0.295 HD
ENDBRANCH  25  26
ENDBRANCH  23  25
ENDBRANCH   2  23
TORSDOF 10
ENDMDL
MODEL 6
REMARK VINA RESULT:      -5.0      3.118      4.856
REMARK  Name = 5282253
REMARK  10 active torsions:
REMARK  status: ('A' for Active; 'I' for Inactive)
REMARK    1  A    between atoms: C_2  and  C_23
REMARK    2  A    between atoms: C_3  and  C_8
REMARK    3  A    between atoms: CA_4  and  C_20
REMARK    4  A    between atoms: C_10  and  C_11
REMARK    5  A    between atoms: C_12  and  C_13
REMARK    6  A    between atoms: C_13  and  C_16
REMARK    7  A    between atoms: C_16  and  O_17
REMARK    8  A    between atoms: C_20  and  O_21
REMARK    9  A    between atoms: C_23  and  C_25
REMARK   10  A    between atoms: C_25  and  O_26
REMARK                            x       y       z     vdW  Elec       q    Type
REMARK                         _______ _______ _______ _____ _____    ______ ____
ROOT
ATOM      1  N   UNL     1     -39.216  26.489   0.891  0.00  0.00    +0.392 N 
ATOM      2  C   UNL     1     -38.241  24.460   1.753  0.00  0.00    +0.004 C 
ATOM      3  C   UNL     1     -37.187  25.377   1.098  0.00  0.00    -0.004 C 
ATOM      4  CA  UNL     1     -39.551  25.259   1.611  0.00  0.00    +0.040 C 
ATOM      5  C   UNL     1     -38.012  26.197   0.116  0.00  0.00    -0.077 C 
ATOM      6  H1  UNL     1     -39.037  27.246   1.549  0.00  0.00    -0.084 HD
ATOM      7  H2  UNL     1     -39.982  26.784   0.285  0.00  0.00    -0.084 HD
ENDROOT
BRANCH   3   8
ATOM      8  C   UNL     1     -36.005  24.713   0.474  0.00  0.00    -0.046 C 
ATOM      9  C   UNL     1     -36.099  24.583  -1.025  0.00  0.00    +0.026 C 
ATOM     10  C   UNL     1     -34.921  24.248   1.125  0.00  0.00    -0.009 C 
BRANCH  10  11
ATOM     11  C   UNL     1     -34.668  24.288   2.550  0.00  0.00    -0.005 C 
ATOM     12  C   UNL     1     -35.100  23.333   3.391  0.00  0.00    -0.015 C 
BRANCH  12  13
ATOM     13  C   UNL     1     -34.897  23.277   4.888  0.00  0.00    +0.121 C 
ATOM     14  C   UNL     1     -35.398  24.481   5.684  0.00  0.00    +0.016 C 
BRANCH  13  16
ATOM     15  O   UNL     1     -36.054  21.892   6.535  0.00  0.00    -0.250 OA
ATOM     16  C   UNL     1     -35.582  22.024   5.413  0.00  0.00    +0.317 C 
BRANCH  16  17
ATOM     17  O   UNL     1     -35.645  21.046   4.471  0.00  0.00    -0.480 OA
ATOM     18  H   UNL     1     -36.165  21.168   3.701  0.00  0.00    +0.295 HD
ENDBRANCH  16  17
ENDBRANCH  13  16
ENDBRANCH  12  13
ENDBRANCH  10  11
ENDBRANCH   3   8
BRANCH   4  20
ATOM     19  OXT UNL     1     -40.725  26.710   3.139  0.00  0.00    -0.253 OA
ATOM     20  C   UNL     1     -40.099  25.681   2.934  0.00  0.00    +0.293 C 
BRANCH  20  21
ATOM     21  O   UNL     1     -39.806  24.764   3.888  0.00  0.00    -0.482 OA
ATOM     22  H   UNL     1     -39.404  23.952   3.649  0.00  0.00    +0.295 HD
ENDBRANCH  20  21
ENDBRANCH   4  20
BRANCH   2  23
ATOM     23  C   UNL     1     -38.391  23.084   1.096  0.00  0.00    +0.108 C 
BRANCH  23  25
ATOM     24  O   UNL     1     -40.150  22.005   2.394  0.00  0.00    -0.250 OA
ATOM     25  C   UNL     1     -38.981  22.081   2.046  0.00  0.00    +0.314 C 
BRANCH  25  26
ATOM     26  O   UNL     1     -38.009  21.239   2.480  0.00  0.00    -0.480 OA
ATOM     27  H   UNL     1     -38.230  20.371   2.754  0.00  0.00    +0.295 HD
ENDBRANCH  25  26
ENDBRANCH  23  25
ENDBRANCH   2  23
TORSDOF 10
ENDMDL
MODEL 7
REMARK VINA RESULT:      -4.9      2.785      5.598
REMARK  Name = 5282253
REMARK  10 active torsions:
REMARK  status: ('A' for Active; 'I' for Inactive)
REMARK    1  A    between atoms: C_2  and  C_23
REMARK    2  A    between atoms: C_3  and  C_8
REMARK    3  A    between atoms: CA_4  and  C_20
REMARK    4  A    between atoms: C_10  and  C_11
REMARK    5  A    between atoms: C_12  and  C_13
REMARK    6  A    between atoms: C_13  and  C_16
REMARK    7  A    between atoms: C_16  and  O_17
REMARK    8  A    between atoms: C_20  and  O_21
REMARK    9  A    between atoms: C_23  and  C_25
REMARK   10  A    between atoms: C_25  and  O_26
REMARK                            x       y       z     vdW  Elec       q    Type
REMARK                         _______ _______ _______ _____ _____    ______ ____
ROOT
ATOM      1  N   UNL     1     -37.769  20.441   0.970  0.00  0.00    +0.392 N 
ATOM      2  C   UNL     1     -36.684  22.253   2.130  0.00  0.00    +0.004 C 
ATOM      3  C   UNL     1     -35.999  21.933   0.785  0.00  0.00    -0.004 C 
ATOM      4  CA  UNL     1     -37.858  21.257   2.182  0.00  0.00    +0.040 C 
ATOM      5  C   UNL     1     -36.370  20.475   0.552  0.00  0.00    -0.077 C 
ATOM      6  H1  UNL     1     -38.365  20.828   0.239  0.00  0.00    -0.084 HD
ATOM      7  H2  UNL     1     -38.080  19.485   1.144  0.00  0.00    -0.084 HD
ENDROOT
BRANCH   3   8
ATOM      8  C   UNL     1     -34.533  22.197   0.690  0.00  0.00    -0.046 C 
ATOM      9  C   UNL     1     -33.698  20.953   0.524  0.00  0.00    +0.026 C 
ATOM     10  C   UNL     1     -33.939  23.405   0.742  0.00  0.00    -0.009 C 
BRANCH  10  11
ATOM     11  C   UNL     1     -34.582  24.694   0.898  0.00  0.00    -0.005 C 
ATOM     12  C   UNL     1     -34.575  25.372   2.059  0.00  0.00    -0.015 C 
BRANCH  12  13
ATOM     13  C   UNL     1     -35.213  26.714   2.332  0.00  0.00    +0.121 C 
ATOM     14  C   UNL     1     -36.717  26.812   2.083  0.00  0.00    +0.016 C 
BRANCH  13  16
ATOM     15  O   UNL     1     -33.891  27.573   4.199  0.00  0.00    -0.250 OA
ATOM     16  C   UNL     1     -34.933  27.086   3.781  0.00  0.00    +0.317 C 
BRANCH  16  17
ATOM     17  O   UNL     1     -36.002  26.841   4.585  0.00  0.00    -0.480 OA
ATOM     18  H   UNL     1     -36.630  27.517   4.750  0.00  0.00    +0.295 HD
ENDBRANCH  16  17
ENDBRANCH  13  16
ENDBRANCH  12  13
ENDBRANCH  10  11
ENDBRANCH   3   8
BRANCH   4  20
ATOM     19  OXT UNL     1     -39.344  23.157   2.123  0.00  0.00    -0.253 OA
ATOM     20  C   UNL     1     -39.182  21.946   2.130  0.00  0.00    +0.293 C 
BRANCH  20  21
ATOM     21  O   UNL     1     -40.191  21.042   2.092  0.00  0.00    -0.482 OA
ATOM     22  H   UNL     1     -40.852  21.051   2.757  0.00  0.00    +0.295 HD
ENDBRANCH  20  21
ENDBRANCH   4  20
BRANCH   2  23
ATOM     23  C   UNL     1     -35.790  22.076   3.362  0.00  0.00    +0.108 C 
BRANCH  23  25
ATOM     24  O   UNL     1     -36.778  24.018   4.455  0.00  0.00    -0.250 OA
ATOM     25  C   UNL     1     -36.272  22.907   4.517  0.00  0.00    +0.314 C 
BRANCH  25  26
ATOM     26  O   UNL     1     -36.064  22.237   5.679  0.00  0.00    -0.480 OA
ATOM     27  H   UNL     1     -36.793  21.990   6.214  0.00  0.00    +0.295 HD
ENDBRANCH  25  26
ENDBRANCH  23  25
ENDBRANCH   2  23
TORSDOF 10
ENDMDL
MODEL 8
REMARK VINA RESULT:      -4.9      2.918      5.445
REMARK  Name = 5282253
REMARK  10 active torsions:
REMARK  status: ('A' for Active; 'I' for Inactive)
REMARK    1  A    between atoms: C_2  and  C_23
REMARK    2  A    between atoms: C_3  and  C_8
REMARK    3  A    between atoms: CA_4  and  C_20
REMARK    4  A    between atoms: C_10  and  C_11
REMARK    5  A    between atoms: C_12  and  C_13
REMARK    6  A    between atoms: C_13  and  C_16
REMARK    7  A    between atoms: C_16  and  O_17
REMARK    8  A    between atoms: C_20  and  O_21
REMARK    9  A    between atoms: C_23  and  C_25
REMARK   10  A    between atoms: C_25  and  O_26
REMARK                            x       y       z     vdW  Elec       q    Type
REMARK                         _______ _______ _______ _____ _____    ______ ____
ROOT
ATOM      1  N   UNL     1     -38.467  23.481   1.228  0.00  0.00    +0.392 N 
ATOM      2  C   UNL     1     -36.563  23.594   2.700  0.00  0.00    +0.004 C 
ATOM      3  C   UNL     1     -36.183  23.906   1.237  0.00  0.00    -0.004 C 
ATOM      4  CA  UNL     1     -38.083  23.351   2.634  0.00  0.00    +0.040 C 
ATOM      5  C   UNL     1     -37.269  23.190   0.445  0.00  0.00    -0.077 C 
ATOM      6  H1  UNL     1     -38.792  24.429   1.036  0.00  0.00    -0.084 HD
ATOM      7  H2  UNL     1     -39.227  22.844   0.991  0.00  0.00    -0.084 HD
ENDROOT
BRANCH   3   8
ATOM      8  C   UNL     1     -34.799  23.552   0.805  0.00  0.00    -0.046 C 
ATOM      9  C   UNL     1     -34.714  22.267   0.021  0.00  0.00    +0.026 C 
ATOM     10  C   UNL     1     -33.683  24.264   1.056  0.00  0.00    -0.009 C 
BRANCH  10  11
ATOM     11  C   UNL     1     -33.582  25.509   1.789  0.00  0.00    -0.005 C 
ATOM     12  C   UNL     1     -33.470  25.556   3.128  0.00  0.00    -0.015 C 
BRANCH  12  13
ATOM     13  C   UNL     1     -33.362  26.793   3.989  0.00  0.00    +0.121 C 
ATOM     14  C   UNL     1     -33.809  28.105   3.348  0.00  0.00    +0.016 C 
BRANCH  13  16
ATOM     15  O   UNL     1     -33.724  26.502   6.388  0.00  0.00    -0.250 OA
ATOM     16  C   UNL     1     -34.178  26.563   5.252  0.00  0.00    +0.317 C 
BRANCH  16  17
ATOM     17  O   UNL     1     -35.508  26.459   4.987  0.00  0.00    -0.480 OA
ATOM     18  H   UNL     1     -35.840  26.711   4.148  0.00  0.00    +0.295 HD
ENDBRANCH  16  17
ENDBRANCH  13  16
ENDBRANCH  12  13
ENDBRANCH  10  11
ENDBRANCH   3   8
BRANCH   4  20
ATOM     19  OXT UNL     1     -40.042  24.624   3.236  0.00  0.00    -0.253 OA
ATOM     20  C   UNL     1     -38.851  24.393   3.379  0.00  0.00    +0.293 C 
BRANCH  20  21
ATOM     21  O   UNL     1     -38.044  25.056   4.244  0.00  0.00    -0.482 OA
ATOM     22  H   UNL     1     -38.124  24.907   5.166  0.00  0.00    +0.295 HD
ENDBRANCH  20  21
ENDBRANCH   4  20
BRANCH   2  23
ATOM     23  C   UNL     1     -35.861  22.370   3.298  0.00  0.00    +0.108 C 
BRANCH  23  25
ATOM     24  O   UNL     1     -35.938  23.461   5.476  0.00  0.00    -0.250 OA
ATOM     25  C   UNL     1     -35.776  22.459   4.795  0.00  0.00    +0.314 C 
BRANCH  25  26
ATOM     26  O   UNL     1     -35.487  21.236   5.308  0.00  0.00    -0.480 OA
ATOM     27  H   UNL     1     -35.674  21.050   6.207  0.00  0.00    +0.295 HD
ENDBRANCH  25  26
ENDBRANCH  23  25
ENDBRANCH   2  23
TORSDOF 10
ENDMDL
MODEL 9
REMARK VINA RESULT:      -4.8      2.893      4.258
REMARK  Name = 5282253
REMARK  10 active torsions:
REMARK  status: ('A' for Active; 'I' for Inactive)
REMARK    1  A    between atoms: C_2  and  C_23
REMARK    2  A    between atoms: C_3  and  C_8
REMARK    3  A    between atoms: CA_4  and  C_20
REMARK    4  A    between atoms: C_10  and  C_11
REMARK    5  A    between atoms: C_12  and  C_13
REMARK    6  A    between atoms: C_13  and  C_16
REMARK    7  A    between atoms: C_16  and  O_17
REMARK    8  A    between atoms: C_20  and  O_21
REMARK    9  A    between atoms: C_23  and  C_25
REMARK   10  A    between atoms: C_25  and  O_26
REMARK                            x       y       z     vdW  Elec       q    Type
REMARK                         _______ _______ _______ _____ _____    ______ ____
ROOT
ATOM      1  N   UNL     1     -32.677  27.247   3.821  0.00  0.00    +0.392 N 
ATOM      2  C   UNL     1     -34.667  26.034   3.208  0.00  0.00    +0.004 C 
ATOM      3  C   UNL     1     -33.501  25.762   2.236  0.00  0.00    -0.004 C 
ATOM      4  CA  UNL     1     -34.056  26.996   4.245  0.00  0.00    +0.040 C 
ATOM      5  C   UNL     1     -32.639  27.009   2.380  0.00  0.00    -0.077 C 
ATOM      6  H1  UNL     1     -32.039  26.612   4.300  0.00  0.00    -0.084 HD
ATOM      7  H2  UNL     1     -32.388  28.199   4.046  0.00  0.00    -0.084 HD
ENDROOT
BRANCH   3   8
ATOM      8  C   UNL     1     -33.856  25.443   0.822  0.00  0.00    -0.046 C 
ATOM      9  C   UNL     1     -33.682  26.602  -0.127  0.00  0.00    +0.026 C 
ATOM     10  C   UNL     1     -34.298  24.256   0.363  0.00  0.00    -0.009 C 
BRANCH  10  11
ATOM     11  C   UNL     1     -34.522  23.047   1.128  0.00  0.00    -0.005 C 
ATOM     12  C   UNL     1     -35.670  22.805   1.783  0.00  0.00    -0.015 C 
BRANCH  12  13
ATOM     13  C   UNL     1     -36.007  21.586   2.609  0.00  0.00    +0.121 C 
ATOM     14  C   UNL     1     -35.152  20.344   2.363  0.00  0.00    +0.016 C 
BRANCH  13  16
ATOM     15  O   UNL     1     -36.309  23.012   4.571  0.00  0.00    -0.250 OA
ATOM     16  C   UNL     1     -35.905  21.966   4.079  0.00  0.00    +0.317 C 
BRANCH  16  17
ATOM     17  O   UNL     1     -35.327  20.983   4.820  0.00  0.00    -0.480 OA
ATOM     18  H   UNL     1     -35.846  20.474   5.411  0.00  0.00    +0.295 HD
ENDBRANCH  16  17
ENDBRANCH  13  16
ENDBRANCH  12  13
ENDBRANCH  10  11
ENDBRANCH   3   8
BRANCH   4  20
ATOM     19  OXT UNL     1     -33.340  26.835   6.543  0.00  0.00    -0.253 OA
ATOM     20  C   UNL     1     -33.974  26.381   5.603  0.00  0.00    +0.293 C 
BRANCH  20  21
ATOM     21  O   UNL     1     -34.702  25.238   5.656  0.00  0.00    -0.482 OA
ATOM     22  H   UNL     1     -35.548  25.204   5.253  0.00  0.00    +0.295 HD
ENDBRANCH  20  21
ENDBRANCH   4  20
BRANCH   2  23
ATOM     23  C   UNL     1     -35.903  26.673   2.564  0.00  0.00    +0.108 C 
BRANCH  23  25
ATOM     24  O   UNL     1     -37.975  25.438   2.216  0.00  0.00    -0.250 OA
ATOM     25  C   UNL     1     -37.164  25.962   2.965  0.00  0.00    +0.314 C 
BRANCH  25  26
ATOM     26  O   UNL     1     -37.285  25.978   4.317  0.00  0.00    -0.480 OA
ATOM     27  H   UNL     1     -38.128  25.870   4.713  0.00  0.00    +0.295 HD
ENDBRANCH  25  26
ENDBRANCH  23  25
ENDBRANCH   2  23
TORSDOF 10
ENDMDL
