MODEL 1
REMARK VINA RESULT:      -6.3      0.000      0.000
REMARK  Name = 5748360
REMARK  5 active torsions:
REMARK  status: ('A' for Active; 'I' for Inactive)
REMARK    1  A    between atoms: C_6  and  C_20
REMARK    2  A    between atoms: C_19  and  O_27
REMARK    3  A    between atoms: C_20  and  O_22
REMARK    4  A    between atoms: O_22  and  S_23
REMARK    5  A    between atoms: O_27  and  S_28
REMARK                            x       y       z     vdW  Elec       q    Type
REMARK                         _______ _______ _______ _____ _____    ______ ____
ROOT
ATOM      1  C   UNL     1     -33.059  27.574   4.420  0.00  0.00    +0.000 C 
ATOM      2  C   UNL     1     -34.266  26.683   4.739  0.00  0.00    +0.000 C 
ATOM      3  C   UNL     1     -33.539  28.756   3.517  0.00  0.00    +0.000 C 
ATOM      4  C   UNL     1     -34.927  26.093   3.475  0.00  0.00    +0.002 C 
ATOM      5  C   UNL     1     -32.367  29.754   3.184  0.00  0.00    +0.000 C 
ATOM      6  C   UNL     1     -36.027  25.237   4.150  0.00  0.00    +0.030 C 
ATOM      7  C   UNL     1     -31.770  30.243   4.544  0.00  0.00    +0.002 C 
ATOM      8  C   UNL     1     -34.330  28.258   2.279  0.00  0.00    +0.000 C 
ATOM      9  C   UNL     1     -35.450  27.262   2.628  0.00  0.00    +0.000 C 
ATOM     10  C   UNL     1     -32.386  28.088   5.701  0.00  0.00    +0.000 C 
ATOM     11  C   UNL     1     -34.074  25.470   5.644  0.00  0.00    +0.000 C 
ATOM     12  C   UNL     1     -31.267  29.085   5.412  0.00  0.00    +0.000 C 
ATOM     13  C   UNL     1     -35.300  24.585   5.350  0.00  0.00    +0.002 C 
ATOM     14  C   UNL     1     -32.908  31.002   2.430  0.00  0.00    +0.003 C 
ATOM     15  C   UNL     1     -33.983  25.212   2.619  0.00  0.00    +0.000 C 
ATOM     16  C   UNL     1     -30.696  31.322   4.370  0.00  0.00    +0.032 C 
ATOM     17  C   UNL     1     -31.299  29.070   2.293  0.00  0.00    +0.000 C 
ATOM     18  C   UNL     1     -31.871  32.116   2.269  0.00  0.00    +0.032 C 
ATOM     19  C   UNL     1     -31.242  32.522   3.598  0.00  0.00    +0.147 C 
ENDROOT
BRANCH   6  20
ATOM     20  C   UNL     1     -36.739  24.222   3.267  0.00  0.00    +0.147 C 
ATOM     21  C   UNL     1     -38.223  24.528   3.136  0.00  0.00    +0.035 C 
BRANCH  20  22
ATOM     22  O   UNL     1     -36.575  22.921   3.823  0.00  0.00    -0.203 OA
BRANCH  22  23
ATOM     23  S   UNL     1     -35.967  21.717   2.901  0.00  0.00    +0.239 S 
ATOM     24  O   UNL     1     -37.290  21.049   2.221  0.00  0.00    -0.116 OA
ATOM     25  O   UNL     1     -35.193  22.333   1.838  0.00  0.00    -0.116 OA
ATOM     26  O   UNL     1     -35.358  20.723   3.764  0.00  0.00    -0.022 OA
ENDBRANCH  22  23
ENDBRANCH  20  22
ENDBRANCH   6  20
BRANCH  19  27
ATOM     27  O   UNL     1     -30.190  33.446   3.339  0.00  0.00    -0.203 OA
BRANCH  27  28
ATOM     28  S   UNL     1     -30.547  34.994   2.959  0.00  0.00    +0.239 S 
ATOM     29  O   UNL     1     -29.377  35.851   3.704  0.00  0.00    -0.116 OA
ATOM     30  O   UNL     1     -30.357  35.145   1.528  0.00  0.00    -0.022 OA
ATOM     31  O   UNL     1     -31.817  35.348   3.566  0.00  0.00    -0.116 OA
ENDBRANCH  27  28
ENDBRANCH  19  27
TORSDOF 5
ENDMDL
MODEL 2
REMARK VINA RESULT:      -6.3      6.203     12.821
REMARK  Name = 5748360
REMARK  5 active torsions:
REMARK  status: ('A' for Active; 'I' for Inactive)
REMARK    1  A    between atoms: C_6  and  C_20
REMARK    2  A    between atoms: C_19  and  O_27
REMARK    3  A    between atoms: C_20  and  O_22
REMARK    4  A    between atoms: O_22  and  S_23
REMARK    5  A    between atoms: O_27  and  S_28
REMARK                            x       y       z     vdW  Elec       q    Type
REMARK                         _______ _______ _______ _____ _____    ______ ____
ROOT
ATOM      1  C   UNL     1     -37.387  21.145   0.815  0.00  0.00    +0.000 C 
ATOM      2  C   UNL     1     -37.372  21.903   2.148  0.00  0.00    +0.000 C 
ATOM      3  C   UNL     1     -36.705  19.755   1.027  0.00  0.00    +0.000 C 
ATOM      4  C   UNL     1     -35.944  22.138   2.689  0.00  0.00    +0.002 C 
ATOM      5  C   UNL     1     -36.725  18.884  -0.285  0.00  0.00    +0.000 C 
ATOM      6  C   UNL     1     -36.294  22.947   3.962  0.00  0.00    +0.030 C 
ATOM      7  C   UNL     1     -38.217  18.758  -0.738  0.00  0.00    +0.002 C 
ATOM      8  C   UNL     1     -35.307  19.887   1.687  0.00  0.00    +0.000 C 
ATOM      9  C   UNL     1     -35.309  20.766   2.952  0.00  0.00    +0.000 C 
ATOM     10  C   UNL     1     -38.816  20.989   0.275  0.00  0.00    +0.000 C 
ATOM     11  C   UNL     1     -38.016  23.284   2.224  0.00  0.00    +0.000 C 
ATOM     12  C   UNL     1     -38.873  20.121  -0.980  0.00  0.00    +0.000 C 
ATOM     13  C   UNL     1     -37.404  23.915   3.488  0.00  0.00    +0.002 C 
ATOM     14  C   UNL     1     -36.195  17.450  -0.001  0.00  0.00    +0.003 C 
ATOM     15  C   UNL     1     -35.035  22.959   1.739  0.00  0.00    +0.000 C 
ATOM     16  C   UNL     1     -38.398  17.826  -1.941  0.00  0.00    +0.032 C 
ATOM     17  C   UNL     1     -35.838  19.524  -1.383  0.00  0.00    +0.000 C 
ATOM     18  C   UNL     1     -36.392  16.482  -1.170  0.00  0.00    +0.032 C 
ATOM     19  C   UNL     1     -37.839  16.434  -1.648  0.00  0.00    +0.147 C 
ENDROOT
BRANCH   6  20
ATOM     20  C   UNL     1     -35.142  23.661   4.653  0.00  0.00    +0.147 C 
ATOM     21  C   UNL     1     -34.813  23.034   6.000  0.00  0.00    +0.035 C 
BRANCH  20  22
ATOM     22  O   UNL     1     -35.485  25.030   4.845  0.00  0.00    -0.203 OA
BRANCH  22  23
ATOM     23  S   UNL     1     -34.336  26.182   4.696  0.00  0.00    +0.239 S 
ATOM     24  O   UNL     1     -33.926  26.515   6.239  0.00  0.00    -0.116 OA
ATOM     25  O   UNL     1     -33.185  25.568   4.060  0.00  0.00    -0.116 OA
ATOM     26  O   UNL     1     -34.935  27.374   4.126  0.00  0.00    -0.022 OA
ENDBRANCH  22  23
ENDBRANCH  20  22
ENDBRANCH   6  20
BRANCH  19  27
ATOM     27  O   UNL     1     -37.903  15.634  -2.824  0.00  0.00    -0.203 OA
BRANCH  27  28
ATOM     28  S   UNL     1     -38.205  14.034  -2.699  0.00  0.00    +0.239 S 
ATOM     29  O   UNL     1     -38.729  13.862  -1.164  0.00  0.00    -0.116 OA
ATOM     30  O   UNL     1     -39.319  13.731  -3.578  0.00  0.00    -0.022 OA
ATOM     31  O   UNL     1     -36.956  13.306  -2.829  0.00  0.00    -0.116 OA
ENDBRANCH  27  28
ENDBRANCH  19  27
TORSDOF 5
ENDMDL
MODEL 3
REMARK VINA RESULT:      -6.3      7.467     10.694
REMARK  Name = 5748360
REMARK  5 active torsions:
REMARK  status: ('A' for Active; 'I' for Inactive)
REMARK    1  A    between atoms: C_6  and  C_20
REMARK    2  A    between atoms: C_19  and  O_27
REMARK    3  A    between atoms: C_20  and  O_22
REMARK    4  A    between atoms: O_22  and  S_23
REMARK    5  A    between atoms: O_27  and  S_28
REMARK                            x       y       z     vdW  Elec       q    Type
REMARK                         _______ _______ _______ _____ _____    ______ ____
ROOT
ATOM      1  C   UNL     1     -32.457  20.497  -0.212  0.00  0.00    +0.000 C 
ATOM      2  C   UNL     1     -31.075  19.853  -0.049  0.00  0.00    +0.000 C 
ATOM      3  C   UNL     1     -33.321  20.144   1.042  0.00  0.00    +0.000 C 
ATOM      4  C   UNL     1     -31.141  18.316   0.081  0.00  0.00    +0.002 C 
ATOM      5  C   UNL     1     -34.745  20.814   0.981  0.00  0.00    +0.000 C 
ATOM      6  C   UNL     1     -29.625  18.011   0.167  0.00  0.00    +0.030 C 
ATOM      7  C   UNL     1     -34.529  22.353   0.815  0.00  0.00    +0.002 C 
ATOM      8  C   UNL     1     -33.340  18.619   1.325  0.00  0.00    +0.000 C 
ATOM      9  C   UNL     1     -31.937  17.984   1.350  0.00  0.00    +0.000 C 
ATOM     10  C   UNL     1     -32.349  22.017  -0.406  0.00  0.00    +0.000 C 
ATOM     11  C   UNL     1     -30.019  20.077  -1.128  0.00  0.00    +0.000 C 
ATOM     12  C   UNL     1     -33.714  22.699  -0.435  0.00  0.00    +0.000 C 
ATOM     13  C   UNL     1     -29.002  18.943  -0.899  0.00  0.00    +0.002 C 
ATOM     14  C   UNL     1     -35.514  20.586   2.313  0.00  0.00    +0.003 C 
ATOM     15  C   UNL     1     -31.784  17.604  -1.137  0.00  0.00    +0.000 C 
ATOM     16  C   UNL     1     -35.839  23.148   0.868  0.00  0.00    +0.032 C 
ATOM     17  C   UNL     1     -35.584  20.217  -0.176  0.00  0.00    +0.000 C 
ATOM     18  C   UNL     1     -36.811  21.392   2.416  0.00  0.00    +0.032 C 
ATOM     19  C   UNL     1     -36.592  22.881   2.170  0.00  0.00    +0.147 C 
ENDROOT
BRANCH   6  20
ATOM     20  C   UNL     1     -29.211  16.557  -0.005  0.00  0.00    +0.147 C 
ATOM     21  C   UNL     1     -28.142  16.150   0.998  0.00  0.00    +0.035 C 
BRANCH  20  22
ATOM     22  O   UNL     1     -28.713  16.364  -1.325  0.00  0.00    -0.203 OA
BRANCH  22  23
ATOM     23  S   UNL     1     -29.138  15.027  -2.164  0.00  0.00    +0.239 S 
ATOM     24  O   UNL     1     -30.296  14.347  -1.239  0.00  0.00    -0.116 OA
ATOM     25  O   UNL     1     -29.765  15.469  -3.396  0.00  0.00    -0.116 OA
ATOM     26  O   UNL     1     -28.008  14.118  -2.206  0.00  0.00    -0.022 OA
ENDBRANCH  22  23
ENDBRANCH  20  22
ENDBRANCH   6  20
BRANCH  19  27
ATOM     27  O   UNL     1     -37.860  23.527   2.133  0.00  0.00    -0.203 OA
BRANCH  27  28
ATOM     28  S   UNL     1     -38.200  24.706   3.210  0.00  0.00    +0.239 S 
ATOM     29  O   UNL     1     -37.212  24.375   4.465  0.00  0.00    -0.116 OA
ATOM     30  O   UNL     1     -37.766  25.964   2.631  0.00  0.00    -0.022 OA
ATOM     31  O   UNL     1     -39.569  24.549   3.666  0.00  0.00    -0.116 OA
ENDBRANCH  27  28
ENDBRANCH  19  27
TORSDOF 5
ENDMDL
MODEL 4
REMARK VINA RESULT:      -6.2      5.201     10.923
REMARK  Name = 5748360
REMARK  5 active torsions:
REMARK  status: ('A' for Active; 'I' for Inactive)
REMARK    1  A    between atoms: C_6  and  C_20
REMARK    2  A    between atoms: C_19  and  O_27
REMARK    3  A    between atoms: C_20  and  O_22
REMARK    4  A    between atoms: O_22  and  S_23
REMARK    5  A    between atoms: O_27  and  S_28
REMARK                            x       y       z     vdW  Elec       q    Type
REMARK                         _______ _______ _______ _____ _____    ______ ____
ROOT
ATOM      1  C   UNL     1     -35.769  33.359   0.952  0.00  0.00    +0.000 C 
ATOM      2  C   UNL     1     -36.060  34.858   1.083  0.00  0.00    +0.000 C 
ATOM      3  C   UNL     1     -34.484  33.028   1.778  0.00  0.00    +0.000 C 
ATOM      4  C   UNL     1     -34.905  35.741   0.562  0.00  0.00    +0.002 C 
ATOM      5  C   UNL     1     -34.142  31.491   1.743  0.00  0.00    +0.000 C 
ATOM      6  C   UNL     1     -35.541  37.135   0.786  0.00  0.00    +0.030 C 
ATOM      7  C   UNL     1     -35.401  30.721   2.259  0.00  0.00    +0.002 C 
ATOM      8  C   UNL     1     -33.299  33.958   1.408  0.00  0.00    +0.000 C 
ATOM      9  C   UNL     1     -33.667  35.453   1.423  0.00  0.00    +0.000 C 
ATOM     10  C   UNL     1     -36.964  32.512   1.417  0.00  0.00    +0.000 C 
ATOM     11  C   UNL     1     -37.293  35.438   0.397  0.00  0.00    +0.000 C 
ATOM     12  C   UNL     1     -36.651  31.018   1.425  0.00  0.00    +0.000 C 
ATOM     13  C   UNL     1     -37.005  36.949   0.322  0.00  0.00    +0.002 C 
ATOM     14  C   UNL     1     -32.964  31.169   2.706  0.00  0.00    +0.003 C 
ATOM     15  C   UNL     1     -34.563  35.519  -0.933  0.00  0.00    +0.000 C 
ATOM     16  C   UNL     1     -35.163  29.212   2.395  0.00  0.00    +0.032 C 
ATOM     17  C   UNL     1     -33.738  31.051   0.313  0.00  0.00    +0.000 C 
ATOM     18  C   UNL     1     -32.720  29.670   2.894  0.00  0.00    +0.032 C 
ATOM     19  C   UNL     1     -33.980  28.924   3.319  0.00  0.00    +0.147 C 
ENDROOT
BRANCH   6  20
ATOM     20  C   UNL     1     -34.853  38.314   0.114  0.00  0.00    +0.147 C 
ATOM     21  C   UNL     1     -34.539  39.426   1.104  0.00  0.00    +0.035 C 
BRANCH  20  22
ATOM     22  O   UNL     1     -35.696  38.825  -0.914  0.00  0.00    -0.203 OA
BRANCH  22  23
ATOM     23  S   UNL     1     -35.103  39.024  -2.424  0.00  0.00    +0.239 S 
ATOM     24  O   UNL     1     -33.514  38.696  -2.257  0.00  0.00    -0.116 OA
ATOM     25  O   UNL     1     -35.679  37.983  -3.257  0.00  0.00    -0.116 OA
ATOM     26  O   UNL     1     -35.235  40.418  -2.803  0.00  0.00    -0.022 OA
ENDBRANCH  22  23
ENDBRANCH  20  22
ENDBRANCH   6  20
BRANCH  19  27
ATOM     27  O   UNL     1     -33.703  27.528   3.322  0.00  0.00    -0.203 OA
BRANCH  27  28
ATOM     28  S   UNL     1     -33.747  26.697   4.728  0.00  0.00    +0.239 S 
ATOM     29  O   UNL     1     -35.336  26.635   5.087  0.00  0.00    -0.116 OA
ATOM     30  O   UNL     1     -33.309  25.342   4.446  0.00  0.00    -0.022 OA
ATOM     31  O   UNL     1     -33.085  27.477   5.757  0.00  0.00    -0.116 OA
ENDBRANCH  27  28
ENDBRANCH  19  27
TORSDOF 5
ENDMDL
MODEL 5
REMARK VINA RESULT:      -6.2      6.239     12.606
REMARK  Name = 5748360
REMARK  5 active torsions:
REMARK  status: ('A' for Active; 'I' for Inactive)
REMARK    1  A    between atoms: C_6  and  C_20
REMARK    2  A    between atoms: C_19  and  O_27
REMARK    3  A    between atoms: C_20  and  O_22
REMARK    4  A    between atoms: O_22  and  S_23
REMARK    5  A    between atoms: O_27  and  S_28
REMARK                            x       y       z     vdW  Elec       q    Type
REMARK                         _______ _______ _______ _____ _____    ______ ____
ROOT
ATOM      1  C   UNL     1     -37.687  21.736   0.866  0.00  0.00    +0.000 C 
ATOM      2  C   UNL     1     -37.586  22.425   2.232  0.00  0.00    +0.000 C 
ATOM      3  C   UNL     1     -37.231  20.249   1.024  0.00  0.00    +0.000 C 
ATOM      4  C   UNL     1     -36.153  22.413   2.806  0.00  0.00    +0.002 C 
ATOM      5  C   UNL     1     -37.354  19.450  -0.326  0.00  0.00    +0.000 C 
ATOM      6  C   UNL     1     -36.403  23.211   4.110  0.00  0.00    +0.030 C 
ATOM      7  C   UNL     1     -38.836  19.574  -0.808  0.00  0.00    +0.002 C 
ATOM      8  C   UNL     1     -35.846  20.136   1.713  0.00  0.00    +0.000 C 
ATOM      9  C   UNL     1     -35.742  20.949   3.016  0.00  0.00    +0.000 C 
ATOM     10  C   UNL     1     -39.110  21.825   0.296  0.00  0.00    +0.000 C 
ATOM     11  C   UNL     1     -38.013  23.884   2.361  0.00  0.00    +0.000 C 
ATOM     12  C   UNL     1     -39.270  21.031  -0.998  0.00  0.00    +0.000 C 
ATOM     13  C   UNL     1     -37.340  24.358   3.663  0.00  0.00    +0.002 C 
ATOM     14  C   UNL     1     -37.057  17.940  -0.099  0.00  0.00    +0.003 C 
ATOM     15  C   UNL     1     -35.106  23.124   1.911  0.00  0.00    +0.000 C 
ATOM     16  C   UNL     1     -39.131  18.734  -2.056  0.00  0.00    +0.032 C 
ATOM     17  C   UNL     1     -36.354  19.991  -1.379  0.00  0.00    +0.000 C 
ATOM     18  C   UNL     1     -37.373  17.065  -1.315  0.00  0.00    +0.032 C 
ATOM     19  C   UNL     1     -38.799  17.261  -1.818  0.00  0.00    +0.147 C 
ENDROOT
BRANCH   6  20
ATOM     20  C   UNL     1     -35.172  23.709   4.852  0.00  0.00    +0.147 C 
ATOM     21  C   UNL     1     -34.812  22.806   6.022  0.00  0.00    +0.035 C 
BRANCH  20  22
ATOM     22  O   UNL     1     -35.415  25.027   5.333  0.00  0.00    -0.203 OA
BRANCH  22  23
ATOM     23  S   UNL     1     -34.292  26.192   5.105  0.00  0.00    +0.239 S 
ATOM     24  O   UNL     1     -33.157  25.458   4.194  0.00  0.00    -0.116 OA
ATOM     25  O   UNL     1     -34.901  27.230   4.293  0.00  0.00    -0.116 OA
ATOM     26  O   UNL     1     -33.693  26.525   6.384  0.00  0.00    -0.022 OA
ENDBRANCH  22  23
ENDBRANCH  20  22
ENDBRANCH   6  20
BRANCH  19  27
ATOM     27  O   UNL     1     -38.957  16.532  -3.030  0.00  0.00    -0.203 OA
BRANCH  27  28
ATOM     28  S   UNL     1     -39.704  15.079  -3.009  0.00  0.00    +0.239 S 
ATOM     29  O   UNL     1     -40.408  15.032  -1.539  0.00  0.00    -0.116 OA
ATOM     30  O   UNL     1     -40.762  15.119  -4.001  0.00  0.00    -0.022 OA
ATOM     31  O   UNL     1     -38.700  14.032  -3.058  0.00  0.00    -0.116 OA
ENDBRANCH  27  28
ENDBRANCH  19  27
TORSDOF 5
ENDMDL
MODEL 6
REMARK VINA RESULT:      -6.1      5.401     10.840
REMARK  Name = 5748360
REMARK  5 active torsions:
REMARK  status: ('A' for Active; 'I' for Inactive)
REMARK    1  A    between atoms: C_6  and  C_20
REMARK    2  A    between atoms: C_19  and  O_27
REMARK    3  A    between atoms: C_20  and  O_22
REMARK    4  A    between atoms: O_22  and  S_23
REMARK    5  A    between atoms: O_27  and  S_28
REMARK                            x       y       z     vdW  Elec       q    Type
REMARK                         _______ _______ _______ _____ _____    ______ ____
ROOT
ATOM      1  C   UNL     1     -34.736  33.809   1.240  0.00  0.00    +0.000 C 
ATOM      2  C   UNL     1     -35.313  35.225   1.132  0.00  0.00    +0.000 C 
ATOM      3  C   UNL     1     -33.497  33.848   2.191  0.00  0.00    +0.000 C 
ATOM      4  C   UNL     1     -34.300  36.245   0.569  0.00  0.00    +0.002 C 
ATOM      5  C   UNL     1     -32.872  32.419   2.402  0.00  0.00    +0.000 C 
ATOM      6  C   UNL     1     -35.204  37.502   0.544  0.00  0.00    +0.030 C 
ATOM      7  C   UNL     1     -34.008  31.487   2.936  0.00  0.00    +0.002 C 
ATOM      8  C   UNL     1     -32.477  34.939   1.772  0.00  0.00    +0.000 C 
ATOM      9  C   UNL     1     -33.117  36.321   1.544  0.00  0.00    +0.000 C 
ATOM     10  C   UNL     1     -35.791  32.809   1.739  0.00  0.00    +0.000 C 
ATOM     11  C   UNL     1     -36.562  35.455   0.285  0.00  0.00    +0.000 C 
ATOM     12  C   UNL     1     -35.207  31.421   1.985  0.00  0.00    +0.000 C 
ATOM     13  C   UNL     1     -36.556  36.971   0.012  0.00  0.00    +0.002 C 
ATOM     14  C   UNL     1     -31.752  32.463   3.480  0.00  0.00    +0.003 C 
ATOM     15  C   UNL     1     -33.781  35.904  -0.851  0.00  0.00    +0.000 C 
ATOM     16  C   UNL     1     -33.507  30.086   3.306  0.00  0.00    +0.032 C 
ATOM     17  C   UNL     1     -32.258  31.887   1.082  0.00  0.00    +0.000 C 
ATOM     18  C   UNL     1     -31.251  31.079   3.899  0.00  0.00    +0.032 C 
ATOM     19  C   UNL     1     -32.385  30.160   4.341  0.00  0.00    +0.147 C 
ENDROOT
BRANCH   6  20
ATOM     20  C   UNL     1     -34.687  38.698  -0.243  0.00  0.00    +0.147 C 
ATOM     21  C   UNL     1     -34.456  39.907   0.651  0.00  0.00    +0.035 C 
BRANCH  20  22
ATOM     22  O   UNL     1     -35.630  39.035  -1.255  0.00  0.00    -0.203 OA
BRANCH  22  23
ATOM     23  S   UNL     1     -35.133  39.201  -2.803  0.00  0.00    +0.239 S 
ATOM     24  O   UNL     1     -33.506  39.161  -2.689  0.00  0.00    -0.116 OA
ATOM     25  O   UNL     1     -35.550  38.011  -3.523  0.00  0.00    -0.116 OA
ATOM     26  O   UNL     1     -35.515  40.515  -3.284  0.00  0.00    -0.022 OA
ENDBRANCH  22  23
ENDBRANCH  20  22
ENDBRANCH   6  20
BRANCH  19  27
ATOM     27  O   UNL     1     -31.853  28.858   4.565  0.00  0.00    -0.203 OA
BRANCH  27  28
ATOM     28  S   UNL     1     -31.664  28.313   6.093  0.00  0.00    +0.239 S 
ATOM     29  O   UNL     1     -30.114  27.805   6.129  0.00  0.00    -0.116 OA
ATOM     30  O   UNL     1     -31.770  29.457   6.980  0.00  0.00    -0.022 OA
ATOM     31  O   UNL     1     -32.518  27.157   6.291  0.00  0.00    -0.116 OA
ENDBRANCH  27  28
ENDBRANCH  19  27
TORSDOF 5
ENDMDL
MODEL 7
REMARK VINA RESULT:      -6.1      4.741      7.257
REMARK  Name = 5748360
REMARK  5 active torsions:
REMARK  status: ('A' for Active; 'I' for Inactive)
REMARK    1  A    between atoms: C_6  and  C_20
REMARK    2  A    between atoms: C_19  and  O_27
REMARK    3  A    between atoms: C_20  and  O_22
REMARK    4  A    between atoms: O_22  and  S_23
REMARK    5  A    between atoms: O_27  and  S_28
REMARK                            x       y       z     vdW  Elec       q    Type
REMARK                         _______ _______ _______ _____ _____    ______ ____
ROOT
ATOM      1  C   UNL     1     -36.541  23.371   0.868  0.00  0.00    +0.000 C 
ATOM      2  C   UNL     1     -36.577  22.151  -0.060  0.00  0.00    +0.000 C 
ATOM      3  C   UNL     1     -35.772  22.981   2.171  0.00  0.00    +0.000 C 
ATOM      4  C   UNL     1     -37.283  20.933   0.576  0.00  0.00    +0.002 C 
ATOM      5  C   UNL     1     -35.641  24.198   3.162  0.00  0.00    +0.000 C 
ATOM      6  C   UNL     1     -37.190  19.946  -0.613  0.00  0.00    +0.030 C 
ATOM      7  C   UNL     1     -34.947  25.362   2.382  0.00  0.00    +0.002 C 
ATOM      8  C   UNL     1     -36.336  21.687   2.815  0.00  0.00    +0.000 C 
ATOM      9  C   UNL     1     -36.481  20.522   1.819  0.00  0.00    +0.000 C 
ATOM     10  C   UNL     1     -35.894  24.581   0.179  0.00  0.00    +0.000 C 
ATOM     11  C   UNL     1     -37.243  22.277  -1.427  0.00  0.00    +0.000 C 
ATOM     12  C   UNL     1     -35.722  25.767   1.124  0.00  0.00    +0.000 C 
ATOM     13  C   UNL     1     -37.524  20.821  -1.844  0.00  0.00    +0.002 C 
ATOM     14  C   UNL     1     -34.730  23.828   4.367  0.00  0.00    +0.003 C 
ATOM     15  C   UNL     1     -38.759  21.192   0.971  0.00  0.00    +0.000 C 
ATOM     16  C   UNL     1     -34.642  26.575   3.268  0.00  0.00    +0.032 C 
ATOM     17  C   UNL     1     -37.030  24.613   3.710  0.00  0.00    +0.000 C 
ATOM     18  C   UNL     1     -34.375  25.023   5.255  0.00  0.00    +0.032 C 
ATOM     19  C   UNL     1     -33.774  26.179   4.462  0.00  0.00    +0.147 C 
ENDROOT
BRANCH   6  20
ATOM     20  C   UNL     1     -38.049  18.693  -0.527  0.00  0.00    +0.147 C 
ATOM     21  C   UNL     1     -37.242  17.483  -0.081  0.00  0.00    +0.035 C 
BRANCH  20  22
ATOM     22  O   UNL     1     -38.623  18.430  -1.804  0.00  0.00    -0.203 OA
BRANCH  22  23
ATOM     23  S   UNL     1     -40.236  18.206  -1.935  0.00  0.00    +0.239 S 
ATOM     24  O   UNL     1     -40.867  19.490  -1.153  0.00  0.00    -0.116 OA
ATOM     25  O   UNL     1     -40.580  18.337  -3.340  0.00  0.00    -0.116 OA
ATOM     26  O   UNL     1     -40.607  17.010  -1.203  0.00  0.00    -0.022 OA
ENDBRANCH  22  23
ENDBRANCH  20  22
ENDBRANCH   6  20
BRANCH  19  27
ATOM     27  O   UNL     1     -33.617  27.295   5.332  0.00  0.00    -0.203 OA
BRANCH  27  28
ATOM     28  S   UNL     1     -32.178  28.062   5.414  0.00  0.00    +0.239 S 
ATOM     29  O   UNL     1     -31.427  27.337   6.667  0.00  0.00    -0.116 OA
ATOM     30  O   UNL     1     -31.439  27.731   4.210  0.00  0.00    -0.022 OA
ATOM     31  O   UNL     1     -32.403  29.451   5.770  0.00  0.00    -0.116 OA
ENDBRANCH  27  28
ENDBRANCH  19  27
TORSDOF 5
ENDMDL
MODEL 8
REMARK VINA RESULT:      -6.0      6.565     10.377
REMARK  Name = 5748360
REMARK  5 active torsions:
REMARK  status: ('A' for Active; 'I' for Inactive)
REMARK    1  A    between atoms: C_6  and  C_20
REMARK    2  A    between atoms: C_19  and  O_27
REMARK    3  A    between atoms: C_20  and  O_22
REMARK    4  A    between atoms: O_22  and  S_23
REMARK    5  A    between atoms: O_27  and  S_28
REMARK                            x       y       z     vdW  Elec       q    Type
REMARK                         _______ _______ _______ _____ _____    ______ ____
ROOT
ATOM      1  C   UNL     1     -35.217  21.732   1.300  0.00  0.00    +0.000 C 
ATOM      2  C   UNL     1     -35.807  22.944   2.031  0.00  0.00    +0.000 C 
ATOM      3  C   UNL     1     -33.844  22.147   0.679  0.00  0.00    +0.000 C 
ATOM      4  C   UNL     1     -36.040  24.152   1.099  0.00  0.00    +0.002 C 
ATOM      5  C   UNL     1     -33.140  20.941  -0.048  0.00  0.00    +0.000 C 
ATOM      6  C   UNL     1     -36.671  25.132   2.119  0.00  0.00    +0.030 C 
ATOM      7  C   UNL     1     -33.001  19.784   0.994  0.00  0.00    +0.002 C 
ATOM      8  C   UNL     1     -33.959  23.435  -0.178  0.00  0.00    +0.000 C 
ATOM      9  C   UNL     1     -34.676  24.589   0.546  0.00  0.00    +0.000 C 
ATOM     10  C   UNL     1     -35.062  20.529   2.242  0.00  0.00    +0.000 C 
ATOM     11  C   UNL     1     -37.138  22.793   2.763  0.00  0.00    +0.000 C 
ATOM     12  C   UNL     1     -34.352  19.354   1.575  0.00  0.00    +0.000 C 
ATOM     13  C   UNL     1     -37.637  24.240   2.933  0.00  0.00    +0.002 C 
ATOM     14  C   UNL     1     -31.707  21.338  -0.507  0.00  0.00    +0.003 C 
ATOM     15  C   UNL     1     -37.010  23.869  -0.076  0.00  0.00    +0.000 C 
ATOM     16  C   UNL     1     -32.215  18.584   0.454  0.00  0.00    +0.032 C 
ATOM     17  C   UNL     1     -33.948  20.503  -1.296  0.00  0.00    +0.000 C 
ATOM     18  C   UNL     1     -30.881  20.156  -1.021  0.00  0.00    +0.032 C 
ATOM     19  C   UNL     1     -30.825  19.006  -0.021  0.00  0.00    +0.147 C 
ENDROOT
BRANCH   6  20
ATOM     20  C   UNL     1     -37.348  26.369   1.547  0.00  0.00    +0.147 C 
ATOM     21  C   UNL     1     -36.499  27.617   1.735  0.00  0.00    +0.035 C 
BRANCH  20  22
ATOM     22  O   UNL     1     -38.605  26.555   2.189  0.00  0.00    -0.203 OA
BRANCH  22  23
ATOM     23  S   UNL     1     -39.966  26.660   1.291  0.00  0.00    +0.239 S 
ATOM     24  O   UNL     1     -41.128  26.976   2.391  0.00  0.00    -0.116 OA
ATOM     25  O   UNL     1     -39.837  27.831   0.442  0.00  0.00    -0.116 OA
ATOM     26  O   UNL     1     -40.246  25.363   0.705  0.00  0.00    -0.022 OA
ENDBRANCH  22  23
ENDBRANCH  20  22
ENDBRANCH   6  20
BRANCH  19  27
ATOM     27  O   UNL     1     -30.172  17.901  -0.636  0.00  0.00    -0.203 OA
BRANCH  27  28
ATOM     28  S   UNL     1     -29.539  16.715   0.293  0.00  0.00    +0.239 S 
ATOM     29  O   UNL     1     -28.142  16.342  -0.461  0.00  0.00    -0.116 OA
ATOM     30  O   UNL     1     -29.201  17.302   1.577  0.00  0.00    -0.022 OA
ATOM     31  O   UNL     1     -30.406  15.553   0.229  0.00  0.00    -0.116 OA
ENDBRANCH  27  28
ENDBRANCH  19  27
TORSDOF 5
ENDMDL
MODEL 9
REMARK VINA RESULT:      -6.0      7.214     11.496
REMARK  Name = 5748360
REMARK  5 active torsions:
REMARK  status: ('A' for Active; 'I' for Inactive)
REMARK    1  A    between atoms: C_6  and  C_20
REMARK    2  A    between atoms: C_19  and  O_27
REMARK    3  A    between atoms: C_20  and  O_22
REMARK    4  A    between atoms: O_22  and  S_23
REMARK    5  A    between atoms: O_27  and  S_28
REMARK                            x       y       z     vdW  Elec       q    Type
REMARK                         _______ _______ _______ _____ _____    ______ ____
ROOT
ATOM      1  C   UNL     1     -36.413  20.399   0.538  0.00  0.00    +0.000 C 
ATOM      2  C   UNL     1     -37.319  21.143   1.527  0.00  0.00    +0.000 C 
ATOM      3  C   UNL     1     -34.946  20.444   1.076  0.00  0.00    +0.000 C 
ATOM      4  C   UNL     1     -36.914  22.621   1.716  0.00  0.00    +0.002 C 
ATOM      5  C   UNL     1     -33.954  19.654   0.144  0.00  0.00    +0.000 C 
ATOM      6  C   UNL     1     -38.033  23.059   2.694  0.00  0.00    +0.030 C 
ATOM      7  C   UNL     1     -34.499  18.195   0.012  0.00  0.00    +0.002 C 
ATOM      8  C   UNL     1     -34.496  21.890   1.416  0.00  0.00    +0.000 C 
ATOM      9  C   UNL     1     -35.497  22.650   2.304  0.00  0.00    +0.000 C 
ATOM     10  C   UNL     1     -36.884  18.953   0.324  0.00  0.00    +0.000 C 
ATOM     11  C   UNL     1     -38.818  21.213   1.253  0.00  0.00    +0.000 C 
ATOM     12  C   UNL     1     -35.924  18.151  -0.550  0.00  0.00    +0.000 C 
ATOM     13  C   UNL     1     -39.304  22.388   2.121  0.00  0.00    +0.002 C 
ATOM     14  C   UNL     1     -32.541  19.574   0.790  0.00  0.00    +0.003 C 
ATOM     15  C   UNL     1     -36.954  23.460   0.414  0.00  0.00    +0.000 C 
ATOM     16  C   UNL     1     -33.557  17.274  -0.772  0.00  0.00    +0.032 C 
ATOM     17  C   UNL     1     -33.821  20.351  -1.234  0.00  0.00    +0.000 C 
ATOM     18  C   UNL     1     -31.584  18.635   0.052  0.00  0.00    +0.032 C 
ATOM     19  C   UNL     1     -32.168  17.239  -0.137  0.00  0.00    +0.147 C 
ENDROOT
BRANCH   6  20
ATOM     20  C   UNL     1     -38.200  24.555   2.912  0.00  0.00    +0.147 C 
ATOM     21  C   UNL     1     -37.303  25.069   4.028  0.00  0.00    +0.035 C 
BRANCH  20  22
ATOM     22  O   UNL     1     -39.559  24.832   3.237  0.00  0.00    -0.203 OA
BRANCH  22  23
ATOM     23  S   UNL     1     -40.374  25.976   2.402  0.00  0.00    +0.239 S 
ATOM     24  O   UNL     1     -41.086  26.867   3.568  0.00  0.00    -0.116 OA
ATOM     25  O   UNL     1     -39.391  26.820   1.746  0.00  0.00    -0.116 OA
ATOM     26  O   UNL     1     -41.420  25.338   1.625  0.00  0.00    -0.022 OA
ENDBRANCH  22  23
ENDBRANCH  20  22
ENDBRANCH   6  20
BRANCH  19  27
ATOM     27  O   UNL     1     -31.284  16.484  -0.959  0.00  0.00    -0.203 OA
BRANCH  27  28
ATOM     28  S   UNL     1     -30.294  15.377  -0.278  0.00  0.00    +0.239 S 
ATOM     29  O   UNL     1     -29.546  14.695  -1.557  0.00  0.00    -0.116 OA
ATOM     30  O   UNL     1     -29.290  16.100   0.482  0.00  0.00    -0.022 OA
ATOM     31  O   UNL     1     -31.099  14.356   0.366  0.00  0.00    -0.116 OA
ENDBRANCH  27  28
ENDBRANCH  19  27
TORSDOF 5
ENDMDL
