MODEL 1
REMARK VINA RESULT:      -6.1      0.000      0.000
REMARK  Name = 19236
REMARK  3 active torsions:
REMARK  status: ('A' for Active; 'I' for Inactive)
REMARK    1  A    between atoms: P_1  and  O_23
REMARK    2  A    between atoms: C_8  and  O_21
REMARK    3  A    between atoms: C_9  and  N_12
REMARK                            x       y       z     vdW  Elec       q    Type
REMARK                         _______ _______ _______ _____ _____    ______ ____
ROOT
ATOM      1  P   UNL     1     -33.956  26.864   4.071  0.00  0.00    +0.476 P 
ATOM      2  O   UNL     1     -36.979  23.815   4.612  0.00  0.00    -0.332 OA
ATOM      3  O   UNL     1     -34.304  25.617   3.082  0.00  0.00    -0.271 OA
ATOM      4  O   UNL     1     -34.522  26.411   5.526  0.00  0.00    -0.271 OA
ATOM      5  O   UNL     1     -32.513  27.278   4.056  0.00  0.00    -0.227 OA
ATOM      6  C   UNL     1     -35.593  25.065   3.234  0.00  0.00    +0.187 C 
ATOM      7  C   UNL     1     -35.777  24.580   4.655  0.00  0.00    +0.177 C 
ATOM      8  C   UNL     1     -35.897  23.802   2.464  0.00  0.00    +0.189 C 
ATOM      9  C   UNL     1     -37.063  23.234   3.286  0.00  0.00    +0.236 C 
ATOM     10  C   UNL     1     -35.788  25.755   5.612  0.00  0.00    +0.186 C 
ENDROOT
BRANCH   9  12
ATOM     11  O   UNL     1     -38.761  21.458   1.907  0.00  0.00    -0.193 OA
ATOM     12  N   UNL     1     -38.342  23.574   2.726  0.00  0.00    -0.178 N 
ATOM     13  N   UNL     1     -40.364  23.021   1.532  0.00  0.00    -0.306 NA
ATOM     14  N   UNL     1     -42.001  24.627   1.149  0.00  0.00    -0.332 N 
ATOM     15  C   UNL     1     -38.802  24.875   2.861  0.00  0.00    +0.083 C 
ATOM     16  C   UNL     1     -39.141  22.622   2.045  0.00  0.00    +0.276 C 
ATOM     17  C   UNL     1     -39.974  25.278   2.374  0.00  0.00    +0.065 C 
ATOM     18  C   UNL     1     -40.783  24.251   1.666  0.00  0.00    +0.193 C 
ATOM     19  H   UNL     1     -42.559  23.968   0.676  0.00  0.00    +0.145 HD
ATOM     20  H   UNL     1     -42.316  25.554   1.252  0.00  0.00    +0.145 HD
ENDBRANCH   9  12
BRANCH   8  21
ATOM     21  O   UNL     1     -34.805  22.889   2.525  0.00  0.00    -0.378 OA
ATOM     22  H   UNL     1     -34.613  22.676   3.451  0.00  0.00    +0.211 HD
ENDBRANCH   8  21
BRANCH   1  23
ATOM     23  O   UNL     1     -34.983  28.026   3.602  0.00  0.00    -0.302 OA
ATOM     24  H   UNL     1     -35.835  27.901   4.046  0.00  0.00    +0.222 HD
ENDBRANCH   1  23
TORSDOF 3
ENDMDL
MODEL 2
REMARK VINA RESULT:      -6.1      2.310      3.541
REMARK  Name = 19236
REMARK  3 active torsions:
REMARK  status: ('A' for Active; 'I' for Inactive)
REMARK    1  A    between atoms: P_1  and  O_23
REMARK    2  A    between atoms: C_8  and  O_21
REMARK    3  A    between atoms: C_9  and  N_12
REMARK                            x       y       z     vdW  Elec       q    Type
REMARK                         _______ _______ _______ _____ _____    ______ ____
ROOT
ATOM      1  P   UNL     1     -32.871  27.724   3.864  0.00  0.00    +0.476 P 
ATOM      2  O   UNL     1     -36.651  26.071   2.556  0.00  0.00    -0.332 OA
ATOM      3  O   UNL     1     -34.009  26.994   4.773  0.00  0.00    -0.271 OA
ATOM      4  O   UNL     1     -33.662  28.234   2.538  0.00  0.00    -0.271 OA
ATOM      5  O   UNL     1     -32.095  28.788   4.584  0.00  0.00    -0.227 OA
ATOM      6  C   UNL     1     -34.895  26.151   4.072  0.00  0.00    +0.187 C 
ATOM      7  C   UNL     1     -35.612  26.941   2.999  0.00  0.00    +0.177 C 
ATOM      8  C   UNL     1     -36.069  25.592   4.841  0.00  0.00    +0.189 C 
ATOM      9  C   UNL     1     -37.034  25.259   3.695  0.00  0.00    +0.236 C 
ATOM     10  C   UNL     1     -34.632  27.380   1.929  0.00  0.00    +0.186 C 
ENDROOT
BRANCH   9  12
ATOM     11  O   UNL     1     -39.065  23.841   2.351  0.00  0.00    -0.193 OA
ATOM     12  N   UNL     1     -36.965  23.877   3.306  0.00  0.00    -0.178 N 
ATOM     13  N   UNL     1     -37.893  21.898   2.285  0.00  0.00    -0.306 NA
ATOM     14  N   UNL     1     -36.688  19.911   2.223  0.00  0.00    -0.332 N 
ATOM     15  C   UNL     1     -35.817  23.160   3.605  0.00  0.00    +0.083 C 
ATOM     16  C   UNL     1     -38.030  23.233   2.630  0.00  0.00    +0.276 C 
ATOM     17  C   UNL     1     -35.665  21.877   3.283  0.00  0.00    +0.065 C 
ATOM     18  C   UNL     1     -36.805  21.236   2.574  0.00  0.00    +0.193 C 
ATOM     19  H   UNL     1     -37.426  19.460   1.753  0.00  0.00    +0.145 HD
ATOM     20  H   UNL     1     -35.867  19.414   2.441  0.00  0.00    +0.145 HD
ENDBRANCH   9  12
BRANCH   8  21
ATOM     21  O   UNL     1     -36.662  26.590   5.666  0.00  0.00    -0.378 OA
ATOM     22  H   UNL     1     -37.585  26.724   5.400  0.00  0.00    +0.211 HD
ENDBRANCH   8  21
BRANCH   1  23
ATOM     23  O   UNL     1     -31.963  26.495   3.323  0.00  0.00    -0.302 OA
ATOM     24  H   UNL     1     -31.649  25.971   4.076  0.00  0.00    +0.222 HD
ENDBRANCH   1  23
TORSDOF 3
ENDMDL
MODEL 3
REMARK VINA RESULT:      -6.0      3.063      4.245
REMARK  Name = 19236
REMARK  3 active torsions:
REMARK  status: ('A' for Active; 'I' for Inactive)
REMARK    1  A    between atoms: P_1  and  O_23
REMARK    2  A    between atoms: C_8  and  O_21
REMARK    3  A    between atoms: C_9  and  N_12
REMARK                            x       y       z     vdW  Elec       q    Type
REMARK                         _______ _______ _______ _____ _____    ______ ____
ROOT
ATOM      1  P   UNL     1     -32.626  28.292   4.182  0.00  0.00    +0.476 P 
ATOM      2  O   UNL     1     -35.891  25.971   2.545  0.00  0.00    -0.332 OA
ATOM      3  O   UNL     1     -33.700  27.371   4.990  0.00  0.00    -0.271 OA
ATOM      4  O   UNL     1     -33.357  28.643   2.773  0.00  0.00    -0.271 OA
ATOM      5  O   UNL     1     -32.133  29.484   4.951  0.00  0.00    -0.227 OA
ATOM      6  C   UNL     1     -34.343  26.377   4.225  0.00  0.00    +0.187 C 
ATOM      7  C   UNL     1     -35.077  27.018   3.068  0.00  0.00    +0.177 C 
ATOM      8  C   UNL     1     -35.468  25.617   4.887  0.00  0.00    +0.189 C 
ATOM      9  C   UNL     1     -36.235  25.108   3.659  0.00  0.00    +0.236 C 
ATOM     10  C   UNL     1     -34.089  27.623   2.091  0.00  0.00    +0.186 C 
ENDROOT
BRANCH   9  12
ATOM     11  O   UNL     1     -36.312  22.900   5.408  0.00  0.00    -0.193 OA
ATOM     12  N   UNL     1     -35.877  23.760   3.311  0.00  0.00    -0.178 N 
ATOM     13  N   UNL     1     -35.583  21.426   3.843  0.00  0.00    -0.306 NA
ATOM     14  N   UNL     1     -34.834  19.921   2.237  0.00  0.00    -0.332 N 
ATOM     15  C   UNL     1     -35.455  23.498   2.017  0.00  0.00    +0.083 C 
ATOM     16  C   UNL     1     -35.943  22.700   4.249  0.00  0.00    +0.276 C 
ATOM     17  C   UNL     1     -35.104  22.280   1.607  0.00  0.00    +0.065 C 
ATOM     18  C   UNL     1     -35.187  21.194   2.620  0.00  0.00    +0.193 C 
ATOM     19  H   UNL     1     -34.879  19.182   2.886  0.00  0.00    +0.145 HD
ATOM     20  H   UNL     1     -34.536  19.749   1.314  0.00  0.00    +0.145 HD
ENDBRANCH   9  12
BRANCH   8  21
ATOM     21  O   UNL     1     -36.313  26.495   5.625  0.00  0.00    -0.378 OA
ATOM     22  H   UNL     1     -36.560  27.250   5.069  0.00  0.00    +0.211 HD
ENDBRANCH   8  21
BRANCH   1  23
ATOM     23  O   UNL     1     -31.461  27.248   3.763  0.00  0.00    -0.302 OA
ATOM     24  H   UNL     1     -30.802  27.702   3.216  0.00  0.00    +0.222 HD
ENDBRANCH   1  23
TORSDOF 3
ENDMDL
MODEL 4
REMARK VINA RESULT:      -6.0      2.760      3.615
REMARK  Name = 19236
REMARK  3 active torsions:
REMARK  status: ('A' for Active; 'I' for Inactive)
REMARK    1  A    between atoms: P_1  and  O_23
REMARK    2  A    between atoms: C_8  and  O_21
REMARK    3  A    between atoms: C_9  and  N_12
REMARK                            x       y       z     vdW  Elec       q    Type
REMARK                         _______ _______ _______ _____ _____    ______ ____
ROOT
ATOM      1  P   UNL     1     -34.068  26.086   5.339  0.00  0.00    +0.476 P 
ATOM      2  O   UNL     1     -37.170  24.014   3.146  0.00  0.00    -0.332 OA
ATOM      3  O   UNL     1     -34.397  24.490   5.343  0.00  0.00    -0.271 OA
ATOM      4  O   UNL     1     -35.448  26.794   4.854  0.00  0.00    -0.271 OA
ATOM      5  O   UNL     1     -33.514  26.604   6.634  0.00  0.00    -0.227 OA
ATOM      6  C   UNL     1     -35.116  24.018   4.226  0.00  0.00    +0.187 C 
ATOM      7  C   UNL     1     -36.436  24.752   4.120  0.00  0.00    +0.177 C 
ATOM      8  C   UNL     1     -35.594  22.585   4.269  0.00  0.00    +0.189 C 
ATOM      9  C   UNL     1     -36.744  22.633   3.253  0.00  0.00    +0.236 C 
ATOM     10  C   UNL     1     -36.198  26.211   3.786  0.00  0.00    +0.186 C 
ENDROOT
BRANCH   9  12
ATOM     11  O   UNL     1     -36.340  19.946   2.505  0.00  0.00    -0.193 OA
ATOM     12  N   UNL     1     -36.338  22.185   1.948  0.00  0.00    -0.178 N 
ATOM     13  N   UNL     1     -35.764  20.454   0.369  0.00  0.00    -0.306 NA
ATOM     14  N   UNL     1     -35.173  20.981  -1.817  0.00  0.00    -0.332 N 
ATOM     15  C   UNL     1     -36.119  23.131   0.959  0.00  0.00    +0.083 C 
ATOM     16  C   UNL     1     -36.156  20.812   1.648  0.00  0.00    +0.276 C 
ATOM     17  C   UNL     1     -35.742  22.807  -0.276  0.00  0.00    +0.065 C 
ATOM     18  C   UNL     1     -35.562  21.358  -0.552  0.00  0.00    +0.193 C 
ATOM     19  H   UNL     1     -35.047  20.028  -2.029  0.00  0.00    +0.145 HD
ATOM     20  H   UNL     1     -35.022  21.663  -2.510  0.00  0.00    +0.145 HD
ENDBRANCH   9  12
BRANCH   8  21
ATOM     21  O   UNL     1     -36.127  22.262   5.550  0.00  0.00    -0.378 OA
ATOM     22  H   UNL     1     -35.406  21.999   6.143  0.00  0.00    +0.211 HD
ENDBRANCH   8  21
BRANCH   1  23
ATOM     23  O   UNL     1     -33.073  26.271   4.074  0.00  0.00    -0.302 OA
ATOM     24  H   UNL     1     -33.597  26.420   3.271  0.00  0.00    +0.222 HD
ENDBRANCH   1  23
TORSDOF 3
ENDMDL
MODEL 5
REMARK VINA RESULT:      -6.0      2.972      4.191
REMARK  Name = 19236
REMARK  3 active torsions:
REMARK  status: ('A' for Active; 'I' for Inactive)
REMARK    1  A    between atoms: P_1  and  O_23
REMARK    2  A    between atoms: C_8  and  O_21
REMARK    3  A    between atoms: C_9  and  N_12
REMARK                            x       y       z     vdW  Elec       q    Type
REMARK                         _______ _______ _______ _____ _____    ______ ____
ROOT
ATOM      1  P   UNL     1     -34.469  28.516   2.914  0.00  0.00    +0.476 P 
ATOM      2  O   UNL     1     -37.250  25.202   3.010  0.00  0.00    -0.332 OA
ATOM      3  O   UNL     1     -34.704  27.445   4.119  0.00  0.00    -0.271 OA
ATOM      4  O   UNL     1     -35.842  28.473   2.045  0.00  0.00    -0.271 OA
ATOM      5  O   UNL     1     -34.057  29.884   3.375  0.00  0.00    -0.227 OA
ATOM      6  C   UNL     1     -35.298  26.225   3.738  0.00  0.00    +0.187 C 
ATOM      7  C   UNL     1     -36.644  26.489   3.098  0.00  0.00    +0.177 C 
ATOM      8  C   UNL     1     -35.694  25.275   4.843  0.00  0.00    +0.189 C 
ATOM      9  C   UNL     1     -36.754  24.425   4.129  0.00  0.00    +0.236 C 
ATOM     10  C   UNL     1     -36.464  27.214   1.779  0.00  0.00    +0.186 C 
ENDROOT
BRANCH   9  12
ATOM     11  O   UNL     1     -35.938  22.231   5.697  0.00  0.00    -0.193 OA
ATOM     12  N   UNL     1     -36.215  23.194   3.619  0.00  0.00    -0.178 N 
ATOM     13  N   UNL     1     -35.315  20.975   3.911  0.00  0.00    -0.306 NA
ATOM     14  N   UNL     1     -34.676  19.695   2.078  0.00  0.00    -0.332 N 
ATOM     15  C   UNL     1     -36.073  23.049   2.248  0.00  0.00    +0.083 C 
ATOM     16  C   UNL     1     -35.826  22.133   4.474  0.00  0.00    +0.276 C 
ATOM     17  C   UNL     1     -35.583  21.945   1.688  0.00  0.00    +0.065 C 
ATOM     18  C   UNL     1     -35.187  20.854   2.617  0.00  0.00    +0.193 C 
ATOM     19  H   UNL     1     -34.406  18.956   2.669  0.00  0.00    +0.145 HD
ATOM     20  H   UNL     1     -34.582  19.605   1.103  0.00  0.00    +0.145 HD
ENDBRANCH   9  12
BRANCH   8  21
ATOM     21  O   UNL     1     -36.313  25.972   5.920  0.00  0.00    -0.378 OA
ATOM     22  H   UNL     1     -37.118  26.410   5.602  0.00  0.00    +0.211 HD
ENDBRANCH   8  21
BRANCH   1  23
ATOM     23  O   UNL     1     -33.384  27.787   1.957  0.00  0.00    -0.302 OA
ATOM     24  H   UNL     1     -33.712  26.910   1.707  0.00  0.00    +0.222 HD
ENDBRANCH   1  23
TORSDOF 3
ENDMDL
MODEL 6
REMARK VINA RESULT:      -5.7      3.447      4.799
REMARK  Name = 19236
REMARK  3 active torsions:
REMARK  status: ('A' for Active; 'I' for Inactive)
REMARK    1  A    between atoms: P_1  and  O_23
REMARK    2  A    between atoms: C_8  and  O_21
REMARK    3  A    between atoms: C_9  and  N_12
REMARK                            x       y       z     vdW  Elec       q    Type
REMARK                         _______ _______ _______ _____ _____    ______ ____
ROOT
ATOM      1  P   UNL     1     -31.458  28.770   4.593  0.00  0.00    +0.476 P 
ATOM      2  O   UNL     1     -33.663  25.775   2.380  0.00  0.00    -0.332 OA
ATOM      3  O   UNL     1     -33.064  28.495   4.613  0.00  0.00    -0.271 OA
ATOM      4  O   UNL     1     -30.945  28.137   3.186  0.00  0.00    -0.271 OA
ATOM      5  O   UNL     1     -31.075  30.205   4.816  0.00  0.00    -0.227 OA
ATOM      6  C   UNL     1     -33.464  27.210   4.193  0.00  0.00    +0.187 C 
ATOM      7  C   UNL     1     -32.980  26.960   2.781  0.00  0.00    +0.177 C 
ATOM      8  C   UNL     1     -34.945  26.968   4.030  0.00  0.00    +0.189 C 
ATOM      9  C   UNL     1     -34.939  25.771   3.068  0.00  0.00    +0.236 C 
ATOM     10  C   UNL     1     -31.466  26.879   2.753  0.00  0.00    +0.186 C 
ENDROOT
BRANCH   9  12
ATOM     11  O   UNL     1     -35.532  23.299   1.852  0.00  0.00    -0.193 OA
ATOM     12  N   UNL     1     -35.074  24.516   3.758  0.00  0.00    -0.178 N 
ATOM     13  N   UNL     1     -35.489  22.140   3.804  0.00  0.00    -0.306 NA
ATOM     14  N   UNL     1     -35.444  20.960   5.806  0.00  0.00    -0.332 N 
ATOM     15  C   UNL     1     -34.905  24.493   5.133  0.00  0.00    +0.083 C 
ATOM     16  C   UNL     1     -35.374  23.312   3.074  0.00  0.00    +0.276 C 
ATOM     17  C   UNL     1     -35.011  23.377   5.853  0.00  0.00    +0.065 C 
ATOM     18  C   UNL     1     -35.326  22.134   5.100  0.00  0.00    +0.193 C 
ATOM     19  H   UNL     1     -35.652  20.121   5.334  0.00  0.00    +0.145 HD
ATOM     20  H   UNL     1     -35.321  20.957   6.783  0.00  0.00    +0.145 HD
ENDBRANCH   9  12
BRANCH   8  21
ATOM     21  O   UNL     1     -35.576  28.070   3.385  0.00  0.00    -0.378 OA
ATOM     22  H   UNL     1     -36.323  28.375   3.923  0.00  0.00    +0.211 HD
ENDBRANCH   8  21
BRANCH   1  23
ATOM     23  O   UNL     1     -30.879  27.750   5.710  0.00  0.00    -0.302 OA
ATOM     24  H   UNL     1     -30.806  26.862   5.328  0.00  0.00    +0.222 HD
ENDBRANCH   1  23
TORSDOF 3
ENDMDL
MODEL 7
REMARK VINA RESULT:      -5.7      3.495      6.041
REMARK  Name = 19236
REMARK  3 active torsions:
REMARK  status: ('A' for Active; 'I' for Inactive)
REMARK    1  A    between atoms: P_1  and  O_23
REMARK    2  A    between atoms: C_8  and  O_21
REMARK    3  A    between atoms: C_9  and  N_12
REMARK                            x       y       z     vdW  Elec       q    Type
REMARK                         _______ _______ _______ _____ _____    ______ ____
ROOT
ATOM      1  P   UNL     1     -39.216  22.170   1.601  0.00  0.00    +0.476 P 
ATOM      2  O   UNL     1     -35.090  23.356   2.148  0.00  0.00    -0.332 OA
ATOM      3  O   UNL     1     -38.449  22.501   3.000  0.00  0.00    -0.271 OA
ATOM      4  O   UNL     1     -38.028  21.794   0.556  0.00  0.00    -0.271 OA
ATOM      5  O   UNL     1     -40.301  21.140   1.721  0.00  0.00    -0.227 OA
ATOM      6  C   UNL     1     -37.290  23.295   2.883  0.00  0.00    +0.187 C 
ATOM      7  C   UNL     1     -36.293  22.612   1.971  0.00  0.00    +0.177 C 
ATOM      8  C   UNL     1     -36.453  23.482   4.126  0.00  0.00    +0.189 C 
ATOM      9  C   UNL     1     -35.097  23.854   3.509  0.00  0.00    +0.236 C 
ATOM     10  C   UNL     1     -36.826  22.566   0.553  0.00  0.00    +0.186 C 
ENDROOT
BRANCH   9  12
ATOM     11  O   UNL     1     -34.287  25.442   5.692  0.00  0.00    -0.193 OA
ATOM     12  N   UNL     1     -34.887  25.275   3.470  0.00  0.00    -0.178 N 
ATOM     13  N   UNL     1     -34.295  27.375   4.500  0.00  0.00    -0.306 NA
ATOM     14  N   UNL     1     -34.307  29.351   3.275  0.00  0.00    -0.332 N 
ATOM     15  C   UNL     1     -35.095  25.944   2.273  0.00  0.00    +0.083 C 
ATOM     16  C   UNL     1     -34.478  26.006   4.613  0.00  0.00    +0.276 C 
ATOM     17  C   UNL     1     -34.924  27.259   2.145  0.00  0.00    +0.065 C 
ATOM     18  C   UNL     1     -34.494  27.991   3.366  0.00  0.00    +0.193 C 
ATOM     19  H   UNL     1     -34.021  29.861   4.067  0.00  0.00    +0.145 HD
ATOM     20  H   UNL     1     -34.457  29.813   2.419  0.00  0.00    +0.145 HD
ENDBRANCH   9  12
BRANCH   8  21
ATOM     21  O   UNL     1     -36.312  22.255   4.837  0.00  0.00    -0.378 OA
ATOM     22  H   UNL     1     -36.541  22.394   5.769  0.00  0.00    +0.211 HD
ENDBRANCH   8  21
BRANCH   1  23
ATOM     23  O   UNL     1     -39.733  23.619   1.093  0.00  0.00    -0.302 OA
ATOM     24  H   UNL     1     -40.014  23.554   0.167  0.00  0.00    +0.222 HD
ENDBRANCH   1  23
TORSDOF 3
ENDMDL
MODEL 8
REMARK VINA RESULT:      -5.6      4.225      6.274
REMARK  Name = 19236
REMARK  3 active torsions:
REMARK  status: ('A' for Active; 'I' for Inactive)
REMARK    1  A    between atoms: P_1  and  O_23
REMARK    2  A    between atoms: C_8  and  O_21
REMARK    3  A    between atoms: C_9  and  N_12
REMARK                            x       y       z     vdW  Elec       q    Type
REMARK                         _______ _______ _______ _____ _____    ______ ____
ROOT
ATOM      1  P   UNL     1     -35.164  20.195  -0.881  0.00  0.00    +0.476 P 
ATOM      2  O   UNL     1     -35.205  20.748   3.411  0.00  0.00    -0.332 OA
ATOM      3  O   UNL     1     -36.324  20.896   0.024  0.00  0.00    -0.271 OA
ATOM      4  O   UNL     1     -34.348  19.243   0.153  0.00  0.00    -0.271 OA
ATOM      5  O   UNL     1     -35.676  19.500  -2.109  0.00  0.00    -0.227 OA
ATOM      6  C   UNL     1     -35.906  21.364   1.287  0.00  0.00    +0.187 C 
ATOM      7  C   UNL     1     -35.333  20.219   2.093  0.00  0.00    +0.177 C 
ATOM      8  C   UNL     1     -36.979  21.862   2.227  0.00  0.00    +0.189 C 
ATOM      9  C   UNL     1     -36.265  21.722   3.579  0.00  0.00    +0.236 C 
ATOM     10  C   UNL     1     -34.045  19.728   1.462  0.00  0.00    +0.186 C 
ENDROOT
BRANCH   9  12
ATOM     11  O   UNL     1     -35.909  22.499   6.265  0.00  0.00    -0.193 OA
ATOM     12  N   UNL     1     -35.675  22.958   4.015  0.00  0.00    -0.178 N 
ATOM     13  N   UNL     1     -34.950  24.487   5.735  0.00  0.00    -0.306 NA
ATOM     14  N   UNL     1     -33.971  26.524   5.185  0.00  0.00    -0.332 N 
ATOM     15  C   UNL     1     -35.238  23.860   3.057  0.00  0.00    +0.083 C 
ATOM     16  C   UNL     1     -35.529  23.278   5.388  0.00  0.00    +0.276 C 
ATOM     17  C   UNL     1     -34.680  25.028   3.370  0.00  0.00    +0.065 C 
ATOM     18  C   UNL     1     -34.543  25.327   4.820  0.00  0.00    +0.193 C 
ATOM     19  H   UNL     1     -33.868  26.748   6.138  0.00  0.00    +0.145 HD
ATOM     20  H   UNL     1     -33.665  27.154   4.494  0.00  0.00    +0.145 HD
ENDBRANCH   9  12
BRANCH   8  21
ATOM     21  O   UNL     1     -38.111  20.998   2.214  0.00  0.00    -0.378 OA
ATOM     22  H   UNL     1     -38.254  20.638   3.103  0.00  0.00    +0.211 HD
ENDBRANCH   8  21
BRANCH   1  23
ATOM     23  O   UNL     1     -34.132  21.406  -1.188  0.00  0.00    -0.302 OA
ATOM     24  H   UNL     1     -34.239  21.695  -2.108  0.00  0.00    +0.222 HD
ENDBRANCH   1  23
TORSDOF 3
ENDMDL
MODEL 9
REMARK VINA RESULT:      -5.6      3.359      5.160
REMARK  Name = 19236
REMARK  3 active torsions:
REMARK  status: ('A' for Active; 'I' for Inactive)
REMARK    1  A    between atoms: P_1  and  O_23
REMARK    2  A    between atoms: C_8  and  O_21
REMARK    3  A    between atoms: C_9  and  N_12
REMARK                            x       y       z     vdW  Elec       q    Type
REMARK                         _______ _______ _______ _____ _____    ______ ____
ROOT
ATOM      1  P   UNL     1     -39.547  27.134   0.727  0.00  0.00    +0.476 P 
ATOM      2  O   UNL     1     -38.120  24.636   3.960  0.00  0.00    -0.332 OA
ATOM      3  O   UNL     1     -38.037  27.054   1.336  0.00  0.00    -0.271 OA
ATOM      4  O   UNL     1     -40.504  26.571   1.915  0.00  0.00    -0.271 OA
ATOM      5  O   UNL     1     -39.927  28.486   0.197  0.00  0.00    -0.227 OA
ATOM      6  C   UNL     1     -37.728  25.869   2.034  0.00  0.00    +0.187 C 
ATOM      7  C   UNL     1     -38.691  25.690   3.188  0.00  0.00    +0.177 C 
ATOM      8  C   UNL     1     -36.405  25.823   2.762  0.00  0.00    +0.189 C 
ATOM      9  C   UNL     1     -36.682  24.724   3.798  0.00  0.00    +0.236 C 
ATOM     10  C   UNL     1     -40.090  25.429   2.667  0.00  0.00    +0.186 C 
ENDROOT
BRANCH   9  12
ATOM     11  O   UNL     1     -36.080  22.565   5.506  0.00  0.00    -0.193 OA
ATOM     12  N   UNL     1     -36.198  23.439   3.373  0.00  0.00    -0.178 N 
ATOM     13  N   UNL     1     -35.454  21.187   3.814  0.00  0.00    -0.306 NA
ATOM     14  N   UNL     1     -34.811  19.781   2.077  0.00  0.00    -0.332 N 
ATOM     15  C   UNL     1     -36.001  23.218   2.019  0.00  0.00    +0.083 C 
ATOM     16  C   UNL     1     -35.917  22.400   4.295  0.00  0.00    +0.276 C 
ATOM     17  C   UNL     1     -35.555  22.059   1.537  0.00  0.00    +0.065 C 
ATOM     18  C   UNL     1     -35.273  20.994   2.535  0.00  0.00    +0.193 C 
ATOM     19  H   UNL     1     -34.616  19.057   2.715  0.00  0.00    +0.145 HD
ATOM     20  H   UNL     1     -34.677  19.637   1.113  0.00  0.00    +0.145 HD
ENDBRANCH   9  12
BRANCH   8  21
ATOM     21  O   UNL     1     -36.155  27.047   3.447  0.00  0.00    -0.378 OA
ATOM     22  H   UNL     1     -36.993  27.418   3.762  0.00  0.00    +0.211 HD
ENDBRANCH   8  21
BRANCH   1  23
ATOM     23  O   UNL     1     -39.576  25.956  -0.384  0.00  0.00    -0.302 OA
ATOM     24  H   UNL     1     -40.453  25.925  -0.798  0.00  0.00    +0.222 HD
ENDBRANCH   1  23
TORSDOF 3
ENDMDL
