MODEL 1
REMARK VINA RESULT:      -6.9      0.000      0.000
REMARK  Name = 191742
REMARK  12 active torsions:
REMARK  status: ('A' for Active; 'I' for Inactive)
REMARK    1  A    between atoms: C_2  and  O_7
REMARK    2  A    between atoms: C_3  and  O_9
REMARK    3  A    between atoms: C_4  and  C_25
REMARK    4  A    between atoms: C_5  and  O_11
REMARK    5  A    between atoms: C_6  and  O_13
REMARK    6  A    between atoms: O_13  and  C_14
REMARK    7  A    between atoms: C_17  and  C_22
REMARK    8  A    between atoms: C_19  and  O_20
REMARK    9  A    between atoms: C_22  and  O_23
REMARK   10  A    between atoms: C_25  and  O_26
REMARK   11  A    between atoms: O_26  and  C_28
REMARK   12  A    between atoms: C_28  and  C_29
REMARK                            x       y       z     vdW  Elec       q    Type
REMARK                         _______ _______ _______ _____ _____    ______ ____
ROOT
ATOM      1  O   UNL     1     -36.405  23.809   2.677  0.00  0.00    -0.315 OA
ATOM      2  C   UNL     1     -37.940  22.150   1.802  0.00  0.00    +0.171 C 
ATOM      3  C   UNL     1     -39.091  22.797   2.572  0.00  0.00    +0.173 C 
ATOM      4  C   UNL     1     -36.605  22.406   2.505  0.00  0.00    +0.192 C 
ATOM      5  C   UNL     1     -38.781  24.256   2.908  0.00  0.00    +0.210 C 
ATOM      6  C   UNL     1     -37.389  24.402   3.523  0.00  0.00    +0.318 C 
ENDROOT
BRANCH   2   7
ATOM      7  O   UNL     1     -38.164  20.746   1.711  0.00  0.00    -0.379 OA
ATOM      8  H   UNL     1     -38.950  20.579   1.167  0.00  0.00    +0.211 HD
ENDBRANCH   2   7
BRANCH   3   9
ATOM      9  O   UNL     1     -40.260  22.736   1.753  0.00  0.00    -0.379 OA
ATOM     10  H   UNL     1     -40.088  23.183   0.910  0.00  0.00    +0.211 HD
ENDBRANCH   3   9
BRANCH   5  11
ATOM     11  O   UNL     1     -39.738  24.739   3.850  0.00  0.00    -0.377 OA
ATOM     12  H   UNL     1     -40.462  25.179   3.378  0.00  0.00    +0.211 HD
ENDBRANCH   5  11
BRANCH   6  13
ATOM     13  O   UNL     1     -37.119  25.795   3.675  0.00  0.00    -0.451 OA
BRANCH  13  14
ATOM     14  C   UNL     1     -35.926  26.127   4.257  0.00  0.00    +0.141 C 
ATOM     15  C   UNL     1     -35.068  27.015   3.615  0.00  0.00    +0.038 C 
ATOM     16  C   UNL     1     -35.580  25.575   5.486  0.00  0.00    +0.040 C 
ATOM     17  C   UNL     1     -33.852  27.354   4.209  0.00  0.00    +0.044 C 
ATOM     18  C   UNL     1     -34.365  25.915   6.081  0.00  0.00    +0.039 C 
ATOM     19  C   UNL     1     -33.501  26.804   5.441  0.00  0.00    +0.132 C 
BRANCH  19  20
ATOM     20  O   UNL     1     -32.317  27.124   6.035  0.00  0.00    -0.506 OA
ATOM     21  H   UNL     1     -32.026  26.648   6.787  0.00  0.00    +0.292 HD
ENDBRANCH  19  20
BRANCH  17  22
ATOM     22  C   UNL     1     -32.940  28.307   3.510  0.00  0.00    +0.167 C 
BRANCH  22  23
ATOM     23  O   UNL     1     -32.806  29.489   4.290  0.00  0.00    -0.377 OA
ATOM     24  H   UNL     1     -31.880  29.776   4.286  0.00  0.00    +0.211 HD
ENDBRANCH  22  23
ENDBRANCH  17  22
ENDBRANCH  13  14
ENDBRANCH   6  13
BRANCH   4  25
ATOM     25  C   UNL     1     -35.429  21.870   1.695  0.00  0.00    +0.241 C 
BRANCH  25  26
ATOM     26  O   UNL     1     -35.169  20.539   2.102  0.00  0.00    -0.443 OA
BRANCH  26  28
ATOM     27  O   UNL     1     -35.880  19.070   0.478  0.00  0.00    -0.245 OA
ATOM     28  C   UNL     1     -34.991  19.626   1.105  0.00  0.00    +0.341 C 
BRANCH  28  29
ATOM     29  C   UNL     1     -33.548  19.379   0.861  0.00  0.00    +0.076 C 
ATOM     30  C   UNL     1     -32.827  20.300   0.129  0.00  0.00    +0.006 C 
ATOM     31  C   UNL     1     -32.972  18.234   1.374  0.00  0.00    +0.006 C 
ATOM     32  C   UNL     1     -31.471  20.067  -0.099  0.00  0.00    +0.000 C 
ATOM     33  C   UNL     1     -31.616  18.001   1.145  0.00  0.00    +0.000 C 
ATOM     34  C   UNL     1     -30.865  18.917   0.409  0.00  0.00    +0.000 C 
ENDBRANCH  28  29
ENDBRANCH  26  28
ENDBRANCH  25  26
ENDBRANCH   4  25
TORSDOF 12
ENDMDL
MODEL 2
REMARK VINA RESULT:      -6.8      1.492      2.385
REMARK  Name = 191742
REMARK  12 active torsions:
REMARK  status: ('A' for Active; 'I' for Inactive)
REMARK    1  A    between atoms: C_2  and  O_7
REMARK    2  A    between atoms: C_3  and  O_9
REMARK    3  A    between atoms: C_4  and  C_25
REMARK    4  A    between atoms: C_5  and  O_11
REMARK    5  A    between atoms: C_6  and  O_13
REMARK    6  A    between atoms: O_13  and  C_14
REMARK    7  A    between atoms: C_17  and  C_22
REMARK    8  A    between atoms: C_19  and  O_20
REMARK    9  A    between atoms: C_22  and  O_23
REMARK   10  A    between atoms: C_25  and  O_26
REMARK   11  A    between atoms: O_26  and  C_28
REMARK   12  A    between atoms: C_28  and  C_29
REMARK                            x       y       z     vdW  Elec       q    Type
REMARK                         _______ _______ _______ _____ _____    ______ ____
ROOT
ATOM      1  O   UNL     1     -34.781  24.695   2.670  0.00  0.00    -0.315 OA
ATOM      2  C   UNL     1     -36.875  23.534   3.044  0.00  0.00    +0.171 C 
ATOM      3  C   UNL     1     -37.239  24.529   4.146  0.00  0.00    +0.173 C 
ATOM      4  C   UNL     1     -35.356  23.409   2.905  0.00  0.00    +0.192 C 
ATOM      5  C   UNL     1     -36.473  25.841   3.982  0.00  0.00    +0.210 C 
ATOM      6  C   UNL     1     -34.981  25.591   3.761  0.00  0.00    +0.318 C 
ENDROOT
BRANCH   2   7
ATOM      7  O   UNL     1     -37.426  22.258   3.359  0.00  0.00    -0.379 OA
ATOM      8  H   UNL     1     -37.157  21.614   2.684  0.00  0.00    +0.211 HD
ENDBRANCH   2   7
BRANCH   3   9
ATOM      9  O   UNL     1     -38.642  24.783   4.065  0.00  0.00    -0.379 OA
ATOM     10  H   UNL     1     -38.970  25.061   4.934  0.00  0.00    +0.211 HD
ENDBRANCH   3   9
BRANCH   5  11
ATOM     11  O   UNL     1     -36.624  26.629   5.162  0.00  0.00    -0.377 OA
ATOM     12  H   UNL     1     -37.539  26.947   5.224  0.00  0.00    +0.211 HD
ENDBRANCH   5  11
BRANCH   6  13
ATOM     13  O   UNL     1     -34.362  26.845   3.476  0.00  0.00    -0.451 OA
BRANCH  13  14
ATOM     14  C   UNL     1     -33.492  27.326   4.416  0.00  0.00    +0.141 C 
ATOM     15  C   UNL     1     -32.683  28.417   4.114  0.00  0.00    +0.038 C 
ATOM     16  C   UNL     1     -33.422  26.721   5.666  0.00  0.00    +0.040 C 
ATOM     17  C   UNL     1     -31.796  28.908   5.072  0.00  0.00    +0.044 C 
ATOM     18  C   UNL     1     -32.536  27.212   6.625  0.00  0.00    +0.039 C 
ATOM     19  C   UNL     1     -31.722  28.305   6.327  0.00  0.00    +0.132 C 
BRANCH  19  20
ATOM     20  O   UNL     1     -30.861  28.771   7.274  0.00  0.00    -0.506 OA
ATOM     21  H   UNL     1     -30.805  28.345   8.106  0.00  0.00    +0.292 HD
ENDBRANCH  19  20
BRANCH  17  22
ATOM     22  C   UNL     1     -30.932  30.078   4.735  0.00  0.00    +0.167 C 
BRANCH  22  23
ATOM     23  O   UNL     1     -31.277  31.174   5.574  0.00  0.00    -0.377 OA
ATOM     24  H   UNL     1     -31.993  30.910   6.172  0.00  0.00    +0.211 HD
ENDBRANCH  22  23
ENDBRANCH  17  22
ENDBRANCH  13  14
ENDBRANCH   6  13
BRANCH   4  25
ATOM     25  C   UNL     1     -34.968  22.511   1.734  0.00  0.00    +0.241 C 
BRANCH  25  26
ATOM     26  O   UNL     1     -34.818  21.186   2.212  0.00  0.00    -0.443 OA
BRANCH  26  28
ATOM     27  O   UNL     1     -35.861  19.760   0.737  0.00  0.00    -0.245 OA
ATOM     28  C   UNL     1     -34.855  20.198   1.273  0.00  0.00    +0.341 C 
BRANCH  28  29
ATOM     29  C   UNL     1     -33.489  19.702   0.969  0.00  0.00    +0.076 C 
ATOM     30  C   UNL     1     -33.095  18.480   1.476  0.00  0.00    +0.006 C 
ATOM     31  C   UNL     1     -32.656  20.478   0.190  0.00  0.00    +0.006 C 
ATOM     32  C   UNL     1     -31.812  18.015   1.190  0.00  0.00    +0.000 C 
ATOM     33  C   UNL     1     -31.373  20.013  -0.097  0.00  0.00    +0.000 C 
ATOM     34  C   UNL     1     -30.951  18.781   0.403  0.00  0.00    +0.000 C 
ENDBRANCH  28  29
ENDBRANCH  26  28
ENDBRANCH  25  26
ENDBRANCH   4  25
TORSDOF 12
ENDMDL
MODEL 3
REMARK VINA RESULT:      -6.7      2.021      7.977
REMARK  Name = 191742
REMARK  12 active torsions:
REMARK  status: ('A' for Active; 'I' for Inactive)
REMARK    1  A    between atoms: C_2  and  O_7
REMARK    2  A    between atoms: C_3  and  O_9
REMARK    3  A    between atoms: C_4  and  C_25
REMARK    4  A    between atoms: C_5  and  O_11
REMARK    5  A    between atoms: C_6  and  O_13
REMARK    6  A    between atoms: O_13  and  C_14
REMARK    7  A    between atoms: C_17  and  C_22
REMARK    8  A    between atoms: C_19  and  O_20
REMARK    9  A    between atoms: C_22  and  O_23
REMARK   10  A    between atoms: C_25  and  O_26
REMARK   11  A    between atoms: O_26  and  C_28
REMARK   12  A    between atoms: C_28  and  C_29
REMARK                            x       y       z     vdW  Elec       q    Type
REMARK                         _______ _______ _______ _____ _____    ______ ____
ROOT
ATOM      1  O   UNL     1     -35.181  23.281   3.950  0.00  0.00    -0.315 OA
ATOM      2  C   UNL     1     -36.736  25.065   4.475  0.00  0.00    +0.171 C 
ATOM      3  C   UNL     1     -37.695  24.555   3.400  0.00  0.00    +0.173 C 
ATOM      4  C   UNL     1     -35.291  24.693   4.134  0.00  0.00    +0.192 C 
ATOM      5  C   UNL     1     -37.441  23.081   3.084  0.00  0.00    +0.210 C 
ATOM      6  C   UNL     1     -35.955  22.811   2.849  0.00  0.00    +0.318 C 
ENDROOT
BRANCH   2   7
ATOM      7  O   UNL     1     -36.847  26.482   4.574  0.00  0.00    -0.379 OA
ATOM      8  H   UNL     1     -36.353  26.791   5.350  0.00  0.00    +0.211 HD
ENDBRANCH   2   7
BRANCH   3   9
ATOM      9  O   UNL     1     -39.029  24.715   3.887  0.00  0.00    -0.379 OA
ATOM     10  H   UNL     1     -39.155  25.627   4.190  0.00  0.00    +0.211 HD
ENDBRANCH   3   9
BRANCH   5  11
ATOM     11  O   UNL     1     -38.154  22.721   1.902  0.00  0.00    -0.377 OA
ATOM     12  H   UNL     1     -37.870  21.841   1.609  0.00  0.00    +0.211 HD
ENDBRANCH   5  11
BRANCH   6  13
ATOM     13  O   UNL     1     -35.782  21.402   2.704  0.00  0.00    -0.451 OA
BRANCH  13  14
ATOM     14  C   UNL     1     -34.810  20.991   1.833  0.00  0.00    +0.141 C 
ATOM     15  C   UNL     1     -34.344  19.680   1.887  0.00  0.00    +0.038 C 
ATOM     16  C   UNL     1     -34.294  21.885   0.902  0.00  0.00    +0.040 C 
ATOM     17  C   UNL     1     -33.353  19.261   0.999  0.00  0.00    +0.044 C 
ATOM     18  C   UNL     1     -33.304  21.467   0.013  0.00  0.00    +0.039 C 
ATOM     19  C   UNL     1     -32.833  20.154   0.063  0.00  0.00    +0.132 C 
BRANCH  19  20
ATOM     20  O   UNL     1     -31.864  19.761  -0.811  0.00  0.00    -0.506 OA
ATOM     21  H   UNL     1     -32.071  19.640  -1.716  0.00  0.00    +0.292 HD
ENDBRANCH  19  20
BRANCH  17  22
ATOM     22  C   UNL     1     -32.860  17.854   1.067  0.00  0.00    +0.167 C 
BRANCH  22  23
ATOM     23  O   UNL     1     -31.542  17.842   1.600  0.00  0.00    -0.377 OA
ATOM     24  H   UNL     1     -30.964  17.318   1.023  0.00  0.00    +0.211 HD
ENDBRANCH  22  23
ENDBRANCH  17  22
ENDBRANCH  13  14
ENDBRANCH   6  13
BRANCH   4  25
ATOM     25  C   UNL     1     -34.328  25.088   5.249  0.00  0.00    +0.241 C 
BRANCH  25  26
ATOM     26  O   UNL     1     -34.131  26.489   5.200  0.00  0.00    -0.443 OA
BRANCH  26  28
ATOM     27  O   UNL     1     -32.508  26.346   3.575  0.00  0.00    -0.245 OA
ATOM     28  C   UNL     1     -33.036  26.922   4.514  0.00  0.00    +0.341 C 
BRANCH  28  29
ATOM     29  C   UNL     1     -32.542  28.213   5.057  0.00  0.00    +0.076 C 
ATOM     30  C   UNL     1     -32.076  28.256   6.355  0.00  0.00    +0.006 C 
ATOM     31  C   UNL     1     -32.567  29.330   4.247  0.00  0.00    +0.006 C 
ATOM     32  C   UNL     1     -31.613  29.468   6.864  0.00  0.00    +0.000 C 
ATOM     33  C   UNL     1     -32.104  30.542   4.756  0.00  0.00    +0.000 C 
ATOM     34  C   UNL     1     -31.627  30.612   6.065  0.00  0.00    +0.000 C 
ENDBRANCH  28  29
ENDBRANCH  26  28
ENDBRANCH  25  26
ENDBRANCH   4  25
TORSDOF 12
ENDMDL
MODEL 4
REMARK VINA RESULT:      -6.5      2.911      8.743
REMARK  Name = 191742
REMARK  12 active torsions:
REMARK  status: ('A' for Active; 'I' for Inactive)
REMARK    1  A    between atoms: C_2  and  O_7
REMARK    2  A    between atoms: C_3  and  O_9
REMARK    3  A    between atoms: C_4  and  C_25
REMARK    4  A    between atoms: C_5  and  O_11
REMARK    5  A    between atoms: C_6  and  O_13
REMARK    6  A    between atoms: O_13  and  C_14
REMARK    7  A    between atoms: C_17  and  C_22
REMARK    8  A    between atoms: C_19  and  O_20
REMARK    9  A    between atoms: C_22  and  O_23
REMARK   10  A    between atoms: C_25  and  O_26
REMARK   11  A    between atoms: O_26  and  C_28
REMARK   12  A    between atoms: C_28  and  C_29
REMARK                            x       y       z     vdW  Elec       q    Type
REMARK                         _______ _______ _______ _____ _____    ______ ____
ROOT
ATOM      1  O   UNL     1     -34.345  26.857   3.958  0.00  0.00    -0.315 OA
ATOM      2  C   UNL     1     -33.756  28.813   2.653  0.00  0.00    +0.171 C 
ATOM      3  C   UNL     1     -34.803  28.438   1.605  0.00  0.00    +0.173 C 
ATOM      4  C   UNL     1     -33.247  27.566   3.382  0.00  0.00    +0.192 C 
ATOM      5  C   UNL     1     -35.877  27.525   2.196  0.00  0.00    +0.210 C 
ATOM      6  C   UNL     1     -35.255  26.366   2.975  0.00  0.00    +0.318 C 
ENDROOT
BRANCH   2   7
ATOM      7  O   UNL     1     -32.661  29.465   2.015  0.00  0.00    -0.379 OA
ATOM      8  H   UNL     1     -32.848  29.556   1.067  0.00  0.00    +0.211 HD
ENDBRANCH   2   7
BRANCH   3   9
ATOM      9  O   UNL     1     -35.409  29.644   1.135  0.00  0.00    -0.379 OA
ATOM     10  H   UNL     1     -36.255  29.779   1.590  0.00  0.00    +0.211 HD
ENDBRANCH   3   9
BRANCH   5  11
ATOM     11  O   UNL     1     -36.669  26.980   1.141  0.00  0.00    -0.377 OA
ATOM     12  H   UNL     1     -37.471  27.515   1.030  0.00  0.00    +0.211 HD
ENDBRANCH   5  11
BRANCH   6  13
ATOM     13  O   UNL     1     -36.311  25.647   3.611  0.00  0.00    -0.451 OA
BRANCH  13  14
ATOM     14  C   UNL     1     -36.008  24.394   4.070  0.00  0.00    +0.141 C 
ATOM     15  C   UNL     1     -35.932  23.331   3.174  0.00  0.00    +0.038 C 
ATOM     16  C   UNL     1     -35.777  24.192   5.426  0.00  0.00    +0.040 C 
ATOM     17  C   UNL     1     -35.623  22.053   3.641  0.00  0.00    +0.044 C 
ATOM     18  C   UNL     1     -35.467  22.915   5.893  0.00  0.00    +0.039 C 
ATOM     19  C   UNL     1     -35.390  21.845   5.000  0.00  0.00    +0.132 C 
BRANCH  19  20
ATOM     20  O   UNL     1     -35.088  20.604   5.473  0.00  0.00    -0.506 OA
ATOM     21  H   UNL     1     -34.216  20.271   5.392  0.00  0.00    +0.292 HD
ENDBRANCH  19  20
BRANCH  17  22
ATOM     22  C   UNL     1     -35.546  20.921   2.671  0.00  0.00    +0.167 C 
BRANCH  22  23
ATOM     23  O   UNL     1     -36.622  20.023   2.911  0.00  0.00    -0.377 OA
ATOM     24  H   UNL     1     -37.359  20.234   2.316  0.00  0.00    +0.211 HD
ENDBRANCH  22  23
ENDBRANCH  17  22
ENDBRANCH  13  14
ENDBRANCH   6  13
BRANCH   4  25
ATOM     25  C   UNL     1     -32.289  27.926   4.512  0.00  0.00    +0.241 C 
BRANCH  25  26
ATOM     26  O   UNL     1     -32.642  29.202   5.015  0.00  0.00    -0.443 OA
BRANCH  26  28
ATOM     27  O   UNL     1     -31.776  29.515   7.125  0.00  0.00    -0.245 OA
ATOM     28  C   UNL     1     -31.788  29.749   5.926  0.00  0.00    +0.341 C 
BRANCH  28  29
ATOM     29  C   UNL     1     -30.845  30.692   5.272  0.00  0.00    +0.076 C 
ATOM     30  C   UNL     1     -31.341  31.625   4.385  0.00  0.00    +0.006 C 
ATOM     31  C   UNL     1     -29.501  30.605   5.572  0.00  0.00    +0.006 C 
ATOM     32  C   UNL     1     -30.455  32.509   3.771  0.00  0.00    +0.000 C 
ATOM     33  C   UNL     1     -28.614  31.489   4.958  0.00  0.00    +0.000 C 
ATOM     34  C   UNL     1     -29.091  32.442   4.058  0.00  0.00    +0.000 C 
ENDBRANCH  28  29
ENDBRANCH  26  28
ENDBRANCH  25  26
ENDBRANCH   4  25
TORSDOF 12
ENDMDL
MODEL 5
REMARK VINA RESULT:      -6.5      3.727      7.951
REMARK  Name = 191742
REMARK  12 active torsions:
REMARK  status: ('A' for Active; 'I' for Inactive)
REMARK    1  A    between atoms: C_2  and  O_7
REMARK    2  A    between atoms: C_3  and  O_9
REMARK    3  A    between atoms: C_4  and  C_25
REMARK    4  A    between atoms: C_5  and  O_11
REMARK    5  A    between atoms: C_6  and  O_13
REMARK    6  A    between atoms: O_13  and  C_14
REMARK    7  A    between atoms: C_17  and  C_22
REMARK    8  A    between atoms: C_19  and  O_20
REMARK    9  A    between atoms: C_22  and  O_23
REMARK   10  A    between atoms: C_25  and  O_26
REMARK   11  A    between atoms: O_26  and  C_28
REMARK   12  A    between atoms: C_28  and  C_29
REMARK                            x       y       z     vdW  Elec       q    Type
REMARK                         _______ _______ _______ _____ _____    ______ ____
ROOT
ATOM      1  O   UNL     1     -38.772  24.676   3.623  0.00  0.00    -0.315 OA
ATOM      2  C   UNL     1     -40.479  23.758   2.168  0.00  0.00    +0.171 C 
ATOM      3  C   UNL     1     -39.461  22.786   1.573  0.00  0.00    +0.173 C 
ATOM      4  C   UNL     1     -39.787  25.023   2.681  0.00  0.00    +0.192 C 
ATOM      5  C   UNL     1     -38.285  22.566   2.524  0.00  0.00    +0.210 C 
ATOM      6  C   UNL     1     -37.731  23.893   3.042  0.00  0.00    +0.318 C 
ENDROOT
BRANCH   2   7
ATOM      7  O   UNL     1     -41.432  24.114   1.170  0.00  0.00    -0.379 OA
ATOM      8  H   UNL     1     -41.815  23.308   0.787  0.00  0.00    +0.211 HD
ENDBRANCH   2   7
BRANCH   3   9
ATOM      9  O   UNL     1     -40.123  21.542   1.339  0.00  0.00    -0.379 OA
ATOM     10  H   UNL     1     -41.044  21.709   1.087  0.00  0.00    +0.211 HD
ENDBRANCH   3   9
BRANCH   5  11
ATOM     11  O   UNL     1     -37.238  21.884   1.833  0.00  0.00    -0.377 OA
ATOM     12  H   UNL     1     -37.569  21.565   0.979  0.00  0.00    +0.211 HD
ENDBRANCH   5  11
BRANCH   6  13
ATOM     13  O   UNL     1     -36.739  23.603   4.025  0.00  0.00    -0.451 OA
BRANCH  13  14
ATOM     14  C   UNL     1     -35.853  24.604   4.315  0.00  0.00    +0.141 C 
ATOM     15  C   UNL     1     -35.706  25.673   3.435  0.00  0.00    +0.038 C 
ATOM     16  C   UNL     1     -35.106  24.547   5.487  0.00  0.00    +0.040 C 
ATOM     17  C   UNL     1     -34.803  26.694   3.731  0.00  0.00    +0.044 C 
ATOM     18  C   UNL     1     -34.204  25.569   5.784  0.00  0.00    +0.039 C 
ATOM     19  C   UNL     1     -34.052  26.643   4.905  0.00  0.00    +0.132 C 
BRANCH  19  20
ATOM     20  O   UNL     1     -33.166  27.631   5.209  0.00  0.00    -0.506 OA
ATOM     21  H   UNL     1     -33.444  28.372   5.710  0.00  0.00    +0.292 HD
ENDBRANCH  19  20
BRANCH  17  22
ATOM     22  C   UNL     1     -34.654  27.834   2.779  0.00  0.00    +0.167 C 
BRANCH  22  23
ATOM     23  O   UNL     1     -35.150  29.021   3.385  0.00  0.00    -0.377 OA
ATOM     24  H   UNL     1     -35.145  29.742   2.736  0.00  0.00    +0.211 HD
ENDBRANCH  22  23
ENDBRANCH  17  22
ENDBRANCH  13  14
ENDBRANCH   6  13
BRANCH   4  25
ATOM     25  C   UNL     1     -40.767  25.957   3.385  0.00  0.00    +0.241 C 
BRANCH  25  26
ATOM     26  O   UNL     1     -41.552  26.610   2.403  0.00  0.00    -0.443 OA
BRANCH  26  28
ATOM     27  O   UNL     1     -42.352  28.686   2.994  0.00  0.00    -0.245 OA
ATOM     28  C   UNL     1     -42.495  27.480   2.865  0.00  0.00    +0.341 C 
BRANCH  28  29
ATOM     29  C   UNL     1     -43.754  26.770   3.204  0.00  0.00    +0.076 C 
ATOM     30  C   UNL     1     -44.300  25.902   2.280  0.00  0.00    +0.006 C 
ATOM     31  C   UNL     1     -44.339  27.000   4.432  0.00  0.00    +0.006 C 
ATOM     32  C   UNL     1     -45.483  25.236   2.599  0.00  0.00    +0.000 C 
ATOM     33  C   UNL     1     -45.522  26.333   4.751  0.00  0.00    +0.000 C 
ATOM     34  C   UNL     1     -46.094  25.451   3.835  0.00  0.00    +0.000 C 
ENDBRANCH  28  29
ENDBRANCH  26  28
ENDBRANCH  25  26
ENDBRANCH   4  25
TORSDOF 12
ENDMDL
MODEL 6
REMARK VINA RESULT:      -6.4      2.113      7.705
REMARK  Name = 191742
REMARK  12 active torsions:
REMARK  status: ('A' for Active; 'I' for Inactive)
REMARK    1  A    between atoms: C_2  and  O_7
REMARK    2  A    between atoms: C_3  and  O_9
REMARK    3  A    between atoms: C_4  and  C_25
REMARK    4  A    between atoms: C_5  and  O_11
REMARK    5  A    between atoms: C_6  and  O_13
REMARK    6  A    between atoms: O_13  and  C_14
REMARK    7  A    between atoms: C_17  and  C_22
REMARK    8  A    between atoms: C_19  and  O_20
REMARK    9  A    between atoms: C_22  and  O_23
REMARK   10  A    between atoms: C_25  and  O_26
REMARK   11  A    between atoms: O_26  and  C_28
REMARK   12  A    between atoms: C_28  and  C_29
REMARK                            x       y       z     vdW  Elec       q    Type
REMARK                         _______ _______ _______ _____ _____    ______ ____
ROOT
ATOM      1  O   UNL     1     -35.281  21.453   3.405  0.00  0.00    -0.315 OA
ATOM      2  C   UNL     1     -37.263  22.847   3.423  0.00  0.00    +0.171 C 
ATOM      3  C   UNL     1     -37.575  22.437   1.984  0.00  0.00    +0.173 C 
ATOM      4  C   UNL     1     -35.759  22.766   3.698  0.00  0.00    +0.192 C 
ATOM      5  C   UNL     1     -36.901  21.112   1.628  0.00  0.00    +0.210 C 
ATOM      6  C   UNL     1     -35.425  21.113   2.027  0.00  0.00    +0.318 C 
ENDROOT
BRANCH   2   7
ATOM      7  O   UNL     1     -37.710  24.183   3.640  0.00  0.00    -0.379 OA
ATOM      8  H   UNL     1     -37.648  24.684   2.811  0.00  0.00    +0.211 HD
ENDBRANCH   2   7
BRANCH   3   9
ATOM      9  O   UNL     1     -38.991  22.299   1.860  0.00  0.00    -0.379 OA
ATOM     10  H   UNL     1     -39.343  21.866   2.653  0.00  0.00    +0.211 HD
ENDBRANCH   3   9
BRANCH   5  11
ATOM     11  O   UNL     1     -36.982  20.903   0.218  0.00  0.00    -0.377 OA
ATOM     12  H   UNL     1     -37.094  19.956   0.038  0.00  0.00    +0.211 HD
ENDBRANCH   5  11
BRANCH   6  13
ATOM     13  O   UNL     1     -34.907  19.803   1.797  0.00  0.00    -0.451 OA
BRANCH  13  14
ATOM     14  C   UNL     1     -33.696  19.728   1.164  0.00  0.00    +0.141 C 
ATOM     15  C   UNL     1     -32.944  18.559   1.250  0.00  0.00    +0.038 C 
ATOM     16  C   UNL     1     -33.225  20.818   0.441  0.00  0.00    +0.040 C 
ATOM     17  C   UNL     1     -31.709  18.482   0.605  0.00  0.00    +0.044 C 
ATOM     18  C   UNL     1     -31.991  20.740  -0.205  0.00  0.00    +0.039 C 
ATOM     19  C   UNL     1     -31.233  19.572  -0.122  0.00  0.00    +0.132 C 
BRANCH  19  20
ATOM     20  O   UNL     1     -30.029  19.513  -0.757  0.00  0.00    -0.506 OA
ATOM     21  H   UNL     1     -29.696  18.689  -1.053  0.00  0.00    +0.292 HD
ENDBRANCH  19  20
BRANCH  17  22
ATOM     22  C   UNL     1     -30.912  17.224   0.705  0.00  0.00    +0.167 C 
BRANCH  22  23
ATOM     23  O   UNL     1     -29.740  17.470   1.473  0.00  0.00    -0.377 OA
ATOM     24  H   UNL     1     -29.001  17.676   0.878  0.00  0.00    +0.211 HD
ENDBRANCH  22  23
ENDBRANCH  17  22
ENDBRANCH  13  14
ENDBRANCH   6  13
BRANCH   4  25
ATOM     25  C   UNL     1     -35.436  23.058   5.159  0.00  0.00    +0.241 C 
BRANCH  25  26
ATOM     26  O   UNL     1     -34.499  24.118   5.211  0.00  0.00    -0.443 OA
BRANCH  26  28
ATOM     27  O   UNL     1     -36.182  25.626   5.652  0.00  0.00    -0.245 OA
ATOM     28  C   UNL     1     -35.007  25.361   5.447  0.00  0.00    +0.341 C 
BRANCH  28  29
ATOM     29  C   UNL     1     -33.934  26.388   5.425  0.00  0.00    +0.076 C 
ATOM     30  C   UNL     1     -33.279  26.694   6.600  0.00  0.00    +0.006 C 
ATOM     31  C   UNL     1     -33.626  27.004   4.229  0.00  0.00    +0.006 C 
ATOM     32  C   UNL     1     -32.272  27.658   6.578  0.00  0.00    +0.000 C 
ATOM     33  C   UNL     1     -32.619  27.968   4.207  0.00  0.00    +0.000 C 
ATOM     34  C   UNL     1     -31.941  28.295   5.382  0.00  0.00    +0.000 C 
ENDBRANCH  28  29
ENDBRANCH  26  28
ENDBRANCH  25  26
ENDBRANCH   4  25
TORSDOF 12
ENDMDL
MODEL 7
REMARK VINA RESULT:      -6.4      2.134      7.548
REMARK  Name = 191742
REMARK  12 active torsions:
REMARK  status: ('A' for Active; 'I' for Inactive)
REMARK    1  A    between atoms: C_2  and  O_7
REMARK    2  A    between atoms: C_3  and  O_9
REMARK    3  A    between atoms: C_4  and  C_25
REMARK    4  A    between atoms: C_5  and  O_11
REMARK    5  A    between atoms: C_6  and  O_13
REMARK    6  A    between atoms: O_13  and  C_14
REMARK    7  A    between atoms: C_17  and  C_22
REMARK    8  A    between atoms: C_19  and  O_20
REMARK    9  A    between atoms: C_22  and  O_23
REMARK   10  A    between atoms: C_25  and  O_26
REMARK   11  A    between atoms: O_26  and  C_28
REMARK   12  A    between atoms: C_28  and  C_29
REMARK                            x       y       z     vdW  Elec       q    Type
REMARK                         _______ _______ _______ _____ _____    ______ ____
ROOT
ATOM      1  O   UNL     1     -35.214  23.281   3.726  0.00  0.00    -0.315 OA
ATOM      2  C   UNL     1     -36.715  25.054   4.419  0.00  0.00    +0.171 C 
ATOM      3  C   UNL     1     -37.745  24.597   3.388  0.00  0.00    +0.173 C 
ATOM      4  C   UNL     1     -35.298  24.686   3.972  0.00  0.00    +0.192 C 
ATOM      5  C   UNL     1     -37.527  23.135   2.998  0.00  0.00    +0.210 C 
ATOM      6  C   UNL     1     -36.061  22.863   2.658  0.00  0.00    +0.318 C 
ENDROOT
BRANCH   2   7
ATOM      7  O   UNL     1     -36.805  26.468   4.582  0.00  0.00    -0.379 OA
ATOM      8  H   UNL     1     -36.085  26.773   5.157  0.00  0.00    +0.211 HD
ENDBRANCH   2   7
BRANCH   3   9
ATOM      9  O   UNL     1     -39.044  24.747   3.964  0.00  0.00    -0.379 OA
ATOM     10  H   UNL     1     -39.606  25.259   3.364  0.00  0.00    +0.211 HD
ENDBRANCH   3   9
BRANCH   5  11
ATOM     11  O   UNL     1     -38.317  22.828   1.850  0.00  0.00    -0.377 OA
ATOM     12  H   UNL     1     -37.931  23.254   1.068  0.00  0.00    +0.211 HD
ENDBRANCH   5  11
BRANCH   6  13
ATOM     13  O   UNL     1     -35.913  21.459   2.446  0.00  0.00    -0.451 OA
BRANCH  13  14
ATOM     14  C   UNL     1     -34.850  21.065   1.679  0.00  0.00    +0.141 C 
ATOM     15  C   UNL     1     -34.295  21.951   0.761  0.00  0.00    +0.038 C 
ATOM     16  C   UNL     1     -34.332  19.783   1.825  0.00  0.00    +0.040 C 
ATOM     17  C   UNL     1     -33.211  21.550  -0.020  0.00  0.00    +0.044 C 
ATOM     18  C   UNL     1     -33.247  19.382   1.045  0.00  0.00    +0.039 C 
ATOM     19  C   UNL     1     -32.687  20.266   0.121  0.00  0.00    +0.132 C 
BRANCH  19  20
ATOM     20  O   UNL     1     -31.630  19.858  -0.634  0.00  0.00    -0.506 OA
ATOM     21  H   UNL     1     -30.959  20.468  -0.868  0.00  0.00    +0.292 HD
ENDBRANCH  19  20
BRANCH  17  22
ATOM     22  C   UNL     1     -32.626  22.509  -1.003  0.00  0.00    +0.167 C 
BRANCH  22  23
ATOM     23  O   UNL     1     -31.274  22.776  -0.653  0.00  0.00    -0.377 OA
ATOM     24  H   UNL     1     -30.725  22.768  -1.452  0.00  0.00    +0.211 HD
ENDBRANCH  22  23
ENDBRANCH  17  22
ENDBRANCH  13  14
ENDBRANCH   6  13
BRANCH   4  25
ATOM     25  C   UNL     1     -34.263  25.027   5.039  0.00  0.00    +0.241 C 
BRANCH  25  26
ATOM     26  O   UNL     1     -34.076  26.431   5.054  0.00  0.00    -0.443 OA
BRANCH  26  28
ATOM     27  O   UNL     1     -32.420  26.351   3.459  0.00  0.00    -0.245 OA
ATOM     28  C   UNL     1     -32.982  26.902   4.392  0.00  0.00    +0.341 C 
BRANCH  28  29
ATOM     29  C   UNL     1     -32.538  28.202   4.955  0.00  0.00    +0.076 C 
ATOM     30  C   UNL     1     -32.617  29.333   4.168  0.00  0.00    +0.006 C 
ATOM     31  C   UNL     1     -32.058  28.240   6.249  0.00  0.00    +0.006 C 
ATOM     32  C   UNL     1     -32.200  30.553   4.697  0.00  0.00    +0.000 C 
ATOM     33  C   UNL     1     -31.641  29.460   6.778  0.00  0.00    +0.000 C 
ATOM     34  C   UNL     1     -31.711  30.618   6.002  0.00  0.00    +0.000 C 
ENDBRANCH  28  29
ENDBRANCH  26  28
ENDBRANCH  25  26
ENDBRANCH   4  25
TORSDOF 12
ENDMDL
MODEL 8
REMARK VINA RESULT:      -6.4      3.793     10.392
REMARK  Name = 191742
REMARK  12 active torsions:
REMARK  status: ('A' for Active; 'I' for Inactive)
REMARK    1  A    between atoms: C_2  and  O_7
REMARK    2  A    between atoms: C_3  and  O_9
REMARK    3  A    between atoms: C_4  and  C_25
REMARK    4  A    between atoms: C_5  and  O_11
REMARK    5  A    between atoms: C_6  and  O_13
REMARK    6  A    between atoms: O_13  and  C_14
REMARK    7  A    between atoms: C_17  and  C_22
REMARK    8  A    between atoms: C_19  and  O_20
REMARK    9  A    between atoms: C_22  and  O_23
REMARK   10  A    between atoms: C_25  and  O_26
REMARK   11  A    between atoms: O_26  and  C_28
REMARK   12  A    between atoms: C_28  and  C_29
REMARK                            x       y       z     vdW  Elec       q    Type
REMARK                         _______ _______ _______ _____ _____    ______ ____
ROOT
ATOM      1  O   UNL     1     -32.249  28.345   3.869  0.00  0.00    -0.315 OA
ATOM      2  C   UNL     1     -31.318  30.086   5.274  0.00  0.00    +0.171 C 
ATOM      3  C   UNL     1     -31.778  29.336   6.523  0.00  0.00    +0.173 C 
ATOM      4  C   UNL     1     -32.217  29.757   4.080  0.00  0.00    +0.192 C 
ATOM      5  C   UNL     1     -31.983  27.849   6.232  0.00  0.00    +0.210 C 
ATOM      6  C   UNL     1     -32.820  27.640   4.970  0.00  0.00    +0.318 C 
ENDROOT
BRANCH   2   7
ATOM      7  O   UNL     1     -31.360  31.489   5.523  0.00  0.00    -0.379 OA
ATOM      8  H   UNL     1     -30.456  31.840   5.551  0.00  0.00    +0.211 HD
ENDBRANCH   2   7
BRANCH   3   9
ATOM      9  O   UNL     1     -30.772  29.489   7.527  0.00  0.00    -0.379 OA
ATOM     10  H   UNL     1     -31.168  29.362   8.402  0.00  0.00    +0.211 HD
ENDBRANCH   3   9
BRANCH   5  11
ATOM     11  O   UNL     1     -32.667  27.242   7.328  0.00  0.00    -0.377 OA
ATOM     12  H   UNL     1     -32.369  26.324   7.426  0.00  0.00    +0.211 HD
ENDBRANCH   5  11
BRANCH   6  13
ATOM     13  O   UNL     1     -32.847  26.242   4.687  0.00  0.00    -0.451 OA
BRANCH  13  14
ATOM     14  C   UNL     1     -34.081  25.676   4.512  0.00  0.00    +0.141 C 
ATOM     15  C   UNL     1     -34.239  24.303   4.673  0.00  0.00    +0.038 C 
ATOM     16  C   UNL     1     -35.166  26.477   4.176  0.00  0.00    +0.040 C 
ATOM     17  C   UNL     1     -35.497  23.726   4.496  0.00  0.00    +0.044 C 
ATOM     18  C   UNL     1     -36.424  25.901   4.000  0.00  0.00    +0.039 C 
ATOM     19  C   UNL     1     -36.589  24.525   4.160  0.00  0.00    +0.132 C 
BRANCH  19  20
ATOM     20  O   UNL     1     -37.824  23.977   3.982  0.00  0.00    -0.506 OA
ATOM     21  H   UNL     1     -37.908  23.068   3.776  0.00  0.00    +0.292 HD
ENDBRANCH  19  20
BRANCH  17  22
ATOM     22  C   UNL     1     -35.655  22.252   4.670  0.00  0.00    +0.167 C 
BRANCH  22  23
ATOM     23  O   UNL     1     -36.184  21.984   5.963  0.00  0.00    -0.377 OA
ATOM     24  H   UNL     1     -36.139  21.031   6.140  0.00  0.00    +0.211 HD
ENDBRANCH  22  23
ENDBRANCH  17  22
ENDBRANCH  13  14
ENDBRANCH   6  13
BRANCH   4  25
ATOM     25  C   UNL     1     -31.708  30.402   2.795  0.00  0.00    +0.241 C 
BRANCH  25  26
ATOM     26  O   UNL     1     -32.715  31.264   2.294  0.00  0.00    -0.443 OA
BRANCH  26  28
ATOM     27  O   UNL     1     -31.528  33.108   2.992  0.00  0.00    -0.245 OA
ATOM     28  C   UNL     1     -32.510  32.599   2.474  0.00  0.00    +0.341 C 
BRANCH  28  29
ATOM     29  C   UNL     1     -33.654  33.388   1.951  0.00  0.00    +0.076 C 
ATOM     30  C   UNL     1     -34.754  32.720   1.454  0.00  0.00    +0.006 C 
ATOM     31  C   UNL     1     -33.581  34.766   1.977  0.00  0.00    +0.006 C 
ATOM     32  C   UNL     1     -35.828  33.462   0.963  0.00  0.00    +0.000 C 
ATOM     33  C   UNL     1     -34.654  35.508   1.486  0.00  0.00    +0.000 C 
ATOM     34  C   UNL     1     -35.778  34.856   0.979  0.00  0.00    +0.000 C 
ENDBRANCH  28  29
ENDBRANCH  26  28
ENDBRANCH  25  26
ENDBRANCH   4  25
TORSDOF 12
ENDMDL
MODEL 9
REMARK VINA RESULT:      -6.4      2.445      5.203
REMARK  Name = 191742
REMARK  12 active torsions:
REMARK  status: ('A' for Active; 'I' for Inactive)
REMARK    1  A    between atoms: C_2  and  O_7
REMARK    2  A    between atoms: C_3  and  O_9
REMARK    3  A    between atoms: C_4  and  C_25
REMARK    4  A    between atoms: C_5  and  O_11
REMARK    5  A    between atoms: C_6  and  O_13
REMARK    6  A    between atoms: O_13  and  C_14
REMARK    7  A    between atoms: C_17  and  C_22
REMARK    8  A    between atoms: C_19  and  O_20
REMARK    9  A    between atoms: C_22  and  O_23
REMARK   10  A    between atoms: C_25  and  O_26
REMARK   11  A    between atoms: O_26  and  C_28
REMARK   12  A    between atoms: C_28  and  C_29
REMARK                            x       y       z     vdW  Elec       q    Type
REMARK                         _______ _______ _______ _____ _____    ______ ____
ROOT
ATOM      1  O   UNL     1     -34.803  25.141   1.490  0.00  0.00    -0.315 OA
ATOM      2  C   UNL     1     -32.489  25.846   1.340  0.00  0.00    +0.171 C 
ATOM      3  C   UNL     1     -32.691  26.789   2.526  0.00  0.00    +0.173 C 
ATOM      4  C   UNL     1     -33.805  25.626   0.591  0.00  0.00    +0.192 C 
ATOM      5  C   UNL     1     -33.882  26.356   3.381  0.00  0.00    +0.210 C 
ATOM      6  C   UNL     1     -35.114  26.079   2.519  0.00  0.00    +0.318 C 
ENDROOT
BRANCH   2   7
ATOM      7  O   UNL     1     -31.528  26.407   0.450  0.00  0.00    -0.379 OA
ATOM      8  H   UNL     1     -30.999  27.071   0.921  0.00  0.00    +0.211 HD
ENDBRANCH   2   7
BRANCH   3   9
ATOM      9  O   UNL     1     -31.502  26.763   3.318  0.00  0.00    -0.379 OA
ATOM     10  H   UNL     1     -31.577  27.413   4.034  0.00  0.00    +0.211 HD
ENDBRANCH   3   9
BRANCH   5  11
ATOM     11  O   UNL     1     -34.206  27.397   4.302  0.00  0.00    -0.377 OA
ATOM     12  H   UNL     1     -33.397  27.705   4.740  0.00  0.00    +0.211 HD
ENDBRANCH   5  11
BRANCH   6  13
ATOM     13  O   UNL     1     -36.132  25.547   3.366  0.00  0.00    -0.451 OA
BRANCH  13  14
ATOM     14  C   UNL     1     -35.891  24.315   3.912  0.00  0.00    +0.141 C 
ATOM     15  C   UNL     1     -35.809  23.198   3.086  0.00  0.00    +0.038 C 
ATOM     16  C   UNL     1     -35.730  24.189   5.287  0.00  0.00    +0.040 C 
ATOM     17  C   UNL     1     -35.563  21.942   3.642  0.00  0.00    +0.044 C 
ATOM     18  C   UNL     1     -35.483  22.934   5.844  0.00  0.00    +0.039 C 
ATOM     19  C   UNL     1     -35.400  21.810   5.021  0.00  0.00    +0.132 C 
BRANCH  19  20
ATOM     20  O   UNL     1     -35.161  20.592   5.580  0.00  0.00    -0.506 OA
ATOM     21  H   UNL     1     -35.588  20.351   6.378  0.00  0.00    +0.292 HD
ENDBRANCH  19  20
BRANCH  17  22
ATOM     22  C   UNL     1     -35.479  20.751   2.746  0.00  0.00    +0.167 C 
BRANCH  22  23
ATOM     23  O   UNL     1     -36.646  19.955   2.910  0.00  0.00    -0.377 OA
ATOM     24  H   UNL     1     -36.990  19.702   2.039  0.00  0.00    +0.211 HD
ENDBRANCH  22  23
ENDBRANCH  17  22
ENDBRANCH  13  14
ENDBRANCH   6  13
BRANCH   4  25
ATOM     25  C   UNL     1     -33.654  24.598  -0.525  0.00  0.00    +0.241 C 
BRANCH  25  26
ATOM     26  O   UNL     1     -32.923  23.493  -0.025  0.00  0.00    -0.443 OA
BRANCH  26  28
ATOM     27  O   UNL     1     -34.662  22.038  -0.420  0.00  0.00    -0.245 OA
ATOM     28  C   UNL     1     -33.478  22.263  -0.219  0.00  0.00    +0.341 C 
BRANCH  28  29
ATOM     29  C   UNL     1     -32.448  21.197  -0.154  0.00  0.00    +0.076 C 
ATOM     30  C   UNL     1     -32.741  20.024   0.511  0.00  0.00    +0.006 C 
ATOM     31  C   UNL     1     -31.227  21.412  -0.762  0.00  0.00    +0.006 C 
ATOM     32  C   UNL     1     -31.772  19.023   0.571  0.00  0.00    +0.000 C 
ATOM     33  C   UNL     1     -30.258  20.411  -0.701  0.00  0.00    +0.000 C 
ATOM     34  C   UNL     1     -30.530  19.216  -0.035  0.00  0.00    +0.000 C 
ENDBRANCH  28  29
ENDBRANCH  26  28
ENDBRANCH  25  26
ENDBRANCH   4  25
TORSDOF 12
ENDMDL
