MODEL 1
REMARK VINA RESULT:      -6.2      0.000      0.000
REMARK  Name = 5283905
REMARK  10 active torsions:
REMARK  status: ('A' for Active; 'I' for Inactive)
REMARK    1  A    between atoms: C_5  and  C_33
REMARK    2  A    between atoms: C_6  and  C_25
REMARK    3  A    between atoms: C_7  and  O_19
REMARK    4  A    between atoms: C_10  and  O_21
REMARK    5  A    between atoms: C_18  and  O_23
REMARK    6  A    between atoms: C_25  and  C_27
REMARK    7  A    between atoms: C_27  and  C_28
REMARK    8  A    between atoms: C_28  and  C_30
REMARK    9  A    between atoms: C_30  and  O_31
REMARK   10  A    between atoms: C_33  and  O_34
REMARK                            x       y       z     vdW  Elec       q    Type
REMARK                         _______ _______ _______ _____ _____    ______ ____
ROOT
ATOM      1  C   UNL     1     -39.681  25.074   1.690  0.00  0.00    +0.025 C 
ATOM      2  C   UNL     1     -39.319  23.586   1.477  0.00  0.00    +0.005 C 
ATOM      3  C   UNL     1     -37.803  23.334   1.429  0.00  0.00    +0.027 C 
ATOM      4  C   UNL     1     -37.168  23.811   2.780  0.00  0.00    +0.007 C 
ATOM      5  C   UNL     1     -35.607  23.583   2.801  0.00  0.00    +0.027 C 
ATOM      6  C   UNL     1     -41.226  24.959   1.604  0.00  0.00    +0.002 C 
ATOM      7  C   UNL     1     -39.111  25.536   3.047  0.00  0.00    +0.110 C 
ATOM      8  C   UNL     1     -35.299  22.074   2.519  0.00  0.00    +0.007 C 
ATOM      9  C   UNL     1     -37.596  25.263   3.147  0.00  0.00    +0.029 C 
ATOM     10  C   UNL     1     -37.465  21.863   1.120  0.00  0.00    +0.110 C 
ATOM     11  C   UNL     1     -40.161  23.179   0.268  0.00  0.00    +0.000 C 
ATOM     12  C   UNL     1     -41.458  23.996   0.418  0.00  0.00    +0.000 C 
ATOM     13  C   UNL     1     -35.965  21.573   1.222  0.00  0.00    +0.029 C 
ATOM     14  C   UNL     1     -34.962  23.978   4.163  0.00  0.00    +0.005 C 
ATOM     15  C   UNL     1     -39.136  26.009   0.577  0.00  0.00    +0.002 C 
ATOM     16  C   UNL     1     -35.644  21.159   3.713  0.00  0.00    +0.029 C 
ATOM     17  C   UNL     1     -35.347  23.066   5.320  0.00  0.00    +0.029 C 
ATOM     18  C   UNL     1     -34.987  21.620   5.011  0.00  0.00    +0.111 C 
ENDROOT
BRANCH   7  19
ATOM     19  O   UNL     1     -39.776  24.919   4.148  0.00  0.00    -0.384 OA
ATOM     20  H   UNL     1     -39.970  25.586   4.825  0.00  0.00    +0.210 HD
ENDBRANCH   7  19
BRANCH  10  21
ATOM     21  O   UNL     1     -38.193  20.995   1.983  0.00  0.00    -0.384 OA
ATOM     22  H   UNL     1     -38.302  21.417   2.850  0.00  0.00    +0.210 HD
ENDBRANCH  10  21
BRANCH  18  23
ATOM     23  O   UNL     1     -35.428  20.801   6.088  0.00  0.00    -0.384 OA
ATOM     24  H   UNL     1     -36.382  20.923   6.218  0.00  0.00    +0.210 HD
ENDBRANCH  18  23
BRANCH   6  25
ATOM     25  C   UNL     1     -41.995  26.265   1.465  0.00  0.00    +0.001 C 
ATOM     26  C   UNL     1     -42.414  26.778   2.847  0.00  0.00    +0.000 C 
BRANCH  25  27
ATOM     27  C   UNL     1     -43.206  26.071   0.529  0.00  0.00    +0.012 C 
BRANCH  27  28
ATOM     28  C   UNL     1     -44.555  26.103   1.252  0.00  0.00    +0.109 C 
BRANCH  28  30
ATOM     29  O   UNL     1     -44.898  23.724   0.860  0.00  0.00    -0.250 OA
ATOM     30  C   UNL     1     -45.061  24.712   1.562  0.00  0.00    +0.314 C 
BRANCH  30  31
ATOM     31  O   UNL     1     -45.745  24.682   2.736  0.00  0.00    -0.480 OA
ATOM     32  H   UNL     1     -45.584  23.996   3.353  0.00  0.00    +0.295 HD
ENDBRANCH  30  31
ENDBRANCH  28  30
ENDBRANCH  27  28
ENDBRANCH  25  27
ENDBRANCH   6  25
BRANCH   5  33
ATOM     33  C   UNL     1     -34.897  24.456   1.731  0.00  0.00    +0.137 C 
BRANCH  33  34
ATOM     34  O   UNL     1     -34.011  25.316   2.406  0.00  0.00    -0.382 OA
ATOM     35  H   UNL     1     -33.168  24.858   2.555  0.00  0.00    +0.210 HD
ENDBRANCH  33  34
ENDBRANCH   5  33
TORSDOF 10
ENDMDL
MODEL 2
REMARK VINA RESULT:      -6.2      3.311      7.277
REMARK  Name = 5283905
REMARK  10 active torsions:
REMARK  status: ('A' for Active; 'I' for Inactive)
REMARK    1  A    between atoms: C_5  and  C_33
REMARK    2  A    between atoms: C_6  and  C_25
REMARK    3  A    between atoms: C_7  and  O_19
REMARK    4  A    between atoms: C_10  and  O_21
REMARK    5  A    between atoms: C_18  and  O_23
REMARK    6  A    between atoms: C_25  and  C_27
REMARK    7  A    between atoms: C_27  and  C_28
REMARK    8  A    between atoms: C_28  and  C_30
REMARK    9  A    between atoms: C_30  and  O_31
REMARK   10  A    between atoms: C_33  and  O_34
REMARK                            x       y       z     vdW  Elec       q    Type
REMARK                         _______ _______ _______ _____ _____    ______ ____
ROOT
ATOM      1  C   UNL     1     -36.301  22.196   2.342  0.00  0.00    +0.025 C 
ATOM      2  C   UNL     1     -37.744  22.468   1.857  0.00  0.00    +0.005 C 
ATOM      3  C   UNL     1     -37.925  22.246   0.347  0.00  0.00    +0.027 C 
ATOM      4  C   UNL     1     -37.559  20.762   0.006  0.00  0.00    +0.007 C 
ATOM      5  C   UNL     1     -37.720  20.462  -1.536  0.00  0.00    +0.027 C 
ATOM      6  C   UNL     1     -36.472  22.586   3.834  0.00  0.00    +0.002 C 
ATOM      7  C   UNL     1     -35.952  20.719   2.064  0.00  0.00    +0.110 C 
ATOM      8  C   UNL     1     -39.180  20.813  -1.981  0.00  0.00    +0.007 C 
ATOM      9  C   UNL     1     -36.169  20.355   0.581  0.00  0.00    +0.029 C 
ATOM     10  C   UNL     1     -39.343  22.615  -0.132  0.00  0.00    +0.110 C 
ATOM     11  C   UNL     1     -38.065  23.847   2.433  0.00  0.00    +0.000 C 
ATOM     12  C   UNL     1     -37.323  23.876   3.782  0.00  0.00    +0.000 C 
ATOM     13  C   UNL     1     -39.578  22.253  -1.600  0.00  0.00    +0.029 C 
ATOM     14  C   UNL     1     -37.436  18.972  -1.890  0.00  0.00    +0.005 C 
ATOM     15  C   UNL     1     -35.238  23.095   1.656  0.00  0.00    +0.002 C 
ATOM     16  C   UNL     1     -40.223  19.795  -1.476  0.00  0.00    +0.029 C 
ATOM     17  C   UNL     1     -38.474  17.996  -1.351  0.00  0.00    +0.029 C 
ATOM     18  C   UNL     1     -39.865  18.359  -1.849  0.00  0.00    +0.111 C 
ENDROOT
BRANCH   7  19
ATOM     19  O   UNL     1     -36.703  19.826   2.885  0.00  0.00    -0.384 OA
ATOM     20  H   UNL     1     -37.587  20.194   3.041  0.00  0.00    +0.210 HD
ENDBRANCH   7  19
BRANCH  10  21
ATOM     21  O   UNL     1     -40.323  21.988   0.692  0.00  0.00    -0.384 OA
ATOM     22  H   UNL     1     -40.195  22.265   1.613  0.00  0.00    +0.210 HD
ENDBRANCH  10  21
BRANCH  18  23
ATOM     23  O   UNL     1     -40.804  17.464  -1.265  0.00  0.00    -0.384 OA
ATOM     24  H   UNL     1     -40.573  16.552  -1.501  0.00  0.00    +0.210 HD
ENDBRANCH  18  23
BRANCH   6  25
ATOM     25  C   UNL     1     -35.193  22.753   4.641  0.00  0.00    +0.001 C 
ATOM     26  C   UNL     1     -35.092  21.649   5.699  0.00  0.00    +0.000 C 
BRANCH  25  27
ATOM     27  C   UNL     1     -35.140  24.161   5.269  0.00  0.00    +0.012 C 
BRANCH  27  28
ATOM     28  C   UNL     1     -34.027  25.047   4.703  0.00  0.00    +0.109 C 
BRANCH  28  30
ATOM     29  O   UNL     1     -33.417  27.305   5.381  0.00  0.00    -0.250 OA
ATOM     30  C   UNL     1     -34.265  26.510   5.002  0.00  0.00    +0.314 C 
BRANCH  30  31
ATOM     31  O   UNL     1     -35.565  26.852   4.805  0.00  0.00    -0.480 OA
ATOM     32  H   UNL     1     -35.795  27.438   4.111  0.00  0.00    +0.295 HD
ENDBRANCH  30  31
ENDBRANCH  28  30
ENDBRANCH  27  28
ENDBRANCH  25  27
ENDBRANCH   6  25
BRANCH   5  33
ATOM     33  C   UNL     1     -36.716  21.294  -2.378  0.00  0.00    +0.137 C 
BRANCH  33  34
ATOM     34  O   UNL     1     -35.823  20.392  -2.985  0.00  0.00    -0.382 OA
ATOM     35  H   UNL     1     -35.201  20.881  -3.547  0.00  0.00    +0.210 HD
ENDBRANCH  33  34
ENDBRANCH   5  33
TORSDOF 10
ENDMDL
MODEL 3
REMARK VINA RESULT:      -6.1      3.662      7.001
REMARK  Name = 5283905
REMARK  10 active torsions:
REMARK  status: ('A' for Active; 'I' for Inactive)
REMARK    1  A    between atoms: C_5  and  C_33
REMARK    2  A    between atoms: C_6  and  C_25
REMARK    3  A    between atoms: C_7  and  O_19
REMARK    4  A    between atoms: C_10  and  O_21
REMARK    5  A    between atoms: C_18  and  O_23
REMARK    6  A    between atoms: C_25  and  C_27
REMARK    7  A    between atoms: C_27  and  C_28
REMARK    8  A    between atoms: C_28  and  C_30
REMARK    9  A    between atoms: C_30  and  O_31
REMARK   10  A    between atoms: C_33  and  O_34
REMARK                            x       y       z     vdW  Elec       q    Type
REMARK                         _______ _______ _______ _____ _____    ______ ____
ROOT
ATOM      1  C   UNL     1     -36.022  22.433   2.516  0.00  0.00    +0.025 C 
ATOM      2  C   UNL     1     -37.375  22.066   1.861  0.00  0.00    +0.005 C 
ATOM      3  C   UNL     1     -37.220  21.447   0.462  0.00  0.00    +0.027 C 
ATOM      4  C   UNL     1     -36.355  20.146   0.576  0.00  0.00    +0.007 C 
ATOM      5  C   UNL     1     -36.152  19.456  -0.829  0.00  0.00    +0.027 C 
ATOM      6  C   UNL     1     -36.556  23.078   3.821  0.00  0.00    +0.002 C 
ATOM      7  C   UNL     1     -35.186  21.148   2.687  0.00  0.00    +0.110 C 
ATOM      8  C   UNL     1     -37.551  19.165  -1.469  0.00  0.00    +0.007 C 
ATOM      9  C   UNL     1     -35.026  20.393   1.351  0.00  0.00    +0.029 C 
ATOM     10  C   UNL     1     -38.579  21.178  -0.211  0.00  0.00    +0.110 C 
ATOM     11  C   UNL     1     -38.203  23.342   2.003  0.00  0.00    +0.000 C 
ATOM     12  C   UNL     1     -37.746  23.942   3.345  0.00  0.00    +0.000 C 
ATOM     13  C   UNL     1     -38.439  20.424  -1.536  0.00  0.00    +0.029 C 
ATOM     14  C   UNL     1     -35.360  18.119  -0.732  0.00  0.00    +0.005 C 
ATOM     15  C   UNL     1     -35.195  23.457   1.693  0.00  0.00    +0.002 C 
ATOM     16  C   UNL     1     -38.292  17.997  -0.785  0.00  0.00    +0.029 C 
ATOM     17  C   UNL     1     -36.115  16.999  -0.027  0.00  0.00    +0.029 C 
ATOM     18  C   UNL     1     -37.445  16.729  -0.716  0.00  0.00    +0.111 C 
ENDROOT
BRANCH   7  19
ATOM     19  O   UNL     1     -35.747  20.268   3.661  0.00  0.00    -0.384 OA
ATOM     20  H   UNL     1     -35.044  19.940   4.244  0.00  0.00    +0.210 HD
ENDBRANCH   7  19
BRANCH  10  21
ATOM     21  O   UNL     1     -39.438  20.463   0.673  0.00  0.00    -0.384 OA
ATOM     22  H   UNL     1     -40.362  20.688   0.480  0.00  0.00    +0.210 HD
ENDBRANCH  10  21
BRANCH  18  23
ATOM     23  O   UNL     1     -38.141  15.727   0.017  0.00  0.00    -0.384 OA
ATOM     24  H   UNL     1     -38.983  16.087   0.338  0.00  0.00    +0.210 HD
ENDBRANCH  18  23
BRANCH   6  25
ATOM     25  C   UNL     1     -35.548  23.862   4.650  0.00  0.00    +0.001 C 
ATOM     26  C   UNL     1     -35.161  23.064   5.899  0.00  0.00    +0.000 C 
BRANCH  25  27
ATOM     27  C   UNL     1     -36.119  25.251   5.005  0.00  0.00    +0.012 C 
BRANCH  27  28
ATOM     28  C   UNL     1     -35.285  26.416   4.466  0.00  0.00    +0.109 C 
BRANCH  28  30
ATOM     29  O   UNL     1     -33.654  26.665   6.258  0.00  0.00    -0.250 OA
ATOM     30  C   UNL     1     -33.903  26.450   5.080  0.00  0.00    +0.314 C 
BRANCH  30  31
ATOM     31  O   UNL     1     -32.940  26.220   4.150  0.00  0.00    -0.480 OA
ATOM     32  H   UNL     1     -32.163  25.754   4.387  0.00  0.00    +0.295 HD
ENDBRANCH  30  31
ENDBRANCH  28  30
ENDBRANCH  27  28
ENDBRANCH  25  27
ENDBRANCH   6  25
BRANCH   5  33
ATOM     33  C   UNL     1     -35.333  20.363  -1.787  0.00  0.00    +0.137 C 
BRANCH  33  34
ATOM     34  O   UNL     1     -34.121  19.701  -2.062  0.00  0.00    -0.382 OA
ATOM     35  H   UNL     1     -34.009  19.619  -3.023  0.00  0.00    +0.210 HD
ENDBRANCH  33  34
ENDBRANCH   5  33
TORSDOF 10
ENDMDL
MODEL 4
REMARK VINA RESULT:      -5.9      5.292      8.955
REMARK  Name = 5283905
REMARK  10 active torsions:
REMARK  status: ('A' for Active; 'I' for Inactive)
REMARK    1  A    between atoms: C_5  and  C_33
REMARK    2  A    between atoms: C_6  and  C_25
REMARK    3  A    between atoms: C_7  and  O_19
REMARK    4  A    between atoms: C_10  and  O_21
REMARK    5  A    between atoms: C_18  and  O_23
REMARK    6  A    between atoms: C_25  and  C_27
REMARK    7  A    between atoms: C_27  and  C_28
REMARK    8  A    between atoms: C_28  and  C_30
REMARK    9  A    between atoms: C_30  and  O_31
REMARK   10  A    between atoms: C_33  and  O_34
REMARK                            x       y       z     vdW  Elec       q    Type
REMARK                         _______ _______ _______ _____ _____    ______ ____
ROOT
ATOM      1  C   UNL     1     -34.097  26.770   3.628  0.00  0.00    +0.025 C 
ATOM      2  C   UNL     1     -33.393  27.561   4.756  0.00  0.00    +0.005 C 
ATOM      3  C   UNL     1     -32.028  28.129   4.334  0.00  0.00    +0.027 C 
ATOM      4  C   UNL     1     -32.234  29.085   3.110  0.00  0.00    +0.007 C 
ATOM      5  C   UNL     1     -30.867  29.705   2.620  0.00  0.00    +0.027 C 
ATOM      6  C   UNL     1     -35.350  26.300   4.412  0.00  0.00    +0.002 C 
ATOM      7  C   UNL     1     -34.357  27.719   2.440  0.00  0.00    +0.110 C 
ATOM      8  C   UNL     1     -30.174  30.439   3.817  0.00  0.00    +0.007 C 
ATOM      9  C   UNL     1     -33.060  28.412   1.974  0.00  0.00    +0.029 C 
ATOM     10  C   UNL     1     -31.303  28.830   5.498  0.00  0.00    +0.110 C 
ATOM     11  C   UNL     1     -33.448  26.612   5.952  0.00  0.00    +0.000 C 
ATOM     12  C   UNL     1     -34.786  25.869   5.785  0.00  0.00    +0.000 C 
ATOM     13  C   UNL     1     -30.016  29.529   5.052  0.00  0.00    +0.029 C 
ATOM     14  C   UNL     1     -31.053  30.720   1.453  0.00  0.00    +0.005 C 
ATOM     15  C   UNL     1     -33.276  25.554   3.121  0.00  0.00    +0.002 C 
ATOM     16  C   UNL     1     -30.866  31.767   4.189  0.00  0.00    +0.029 C 
ATOM     17  C   UNL     1     -31.763  32.005   1.855  0.00  0.00    +0.029 C 
ATOM     18  C   UNL     1     -31.024  32.698   2.990  0.00  0.00    +0.111 C 
ENDROOT
BRANCH   7  19
ATOM     19  O   UNL     1     -35.336  28.710   2.749  0.00  0.00    -0.384 OA
ATOM     20  H   UNL     1     -35.454  28.762   3.711  0.00  0.00    +0.210 HD
ENDBRANCH   7  19
BRANCH  10  21
ATOM     21  O   UNL     1     -32.172  29.761   6.136  0.00  0.00    -0.384 OA
ATOM     22  H   UNL     1     -32.431  30.448   5.501  0.00  0.00    +0.210 HD
ENDBRANCH  10  21
BRANCH  18  23
ATOM     23  O   UNL     1     -31.761  33.853   3.375  0.00  0.00    -0.384 OA
ATOM     24  H   UNL     1     -32.225  33.678   4.208  0.00  0.00    +0.210 HD
ENDBRANCH  18  23
BRANCH   6  25
ATOM     25  C   UNL     1     -36.195  25.218   3.752  0.00  0.00    +0.001 C 
ATOM     26  C   UNL     1     -37.517  25.814   3.258  0.00  0.00    +0.000 C 
BRANCH  25  27
ATOM     27  C   UNL     1     -36.418  24.048   4.732  0.00  0.00    +0.012 C 
BRANCH  27  28
ATOM     28  C   UNL     1     -35.620  22.790   4.380  0.00  0.00    +0.109 C 
BRANCH  28  30
ATOM     29  O   UNL     1     -35.258  22.363   6.751  0.00  0.00    -0.250 OA
ATOM     30  C   UNL     1     -35.327  21.949   5.602  0.00  0.00    +0.314 C 
BRANCH  30  31
ATOM     31  O   UNL     1     -35.134  20.645   5.273  0.00  0.00    -0.480 OA
ATOM     32  H   UNL     1     -34.542  20.420   4.582  0.00  0.00    +0.295 HD
ENDBRANCH  30  31
ENDBRANCH  28  30
ENDBRANCH  27  28
ENDBRANCH  25  27
ENDBRANCH   6  25
BRANCH   5  33
ATOM     33  C   UNL     1     -29.915  28.606   2.076  0.00  0.00    +0.137 C 
BRANCH  33  34
ATOM     34  O   UNL     1     -29.708  28.866   0.708  0.00  0.00    -0.382 OA
ATOM     35  H   UNL     1     -29.014  29.538   0.608  0.00  0.00    +0.210 HD
ENDBRANCH  33  34
ENDBRANCH   5  33
TORSDOF 10
ENDMDL
MODEL 5
REMARK VINA RESULT:      -5.9      1.732      2.134
REMARK  Name = 5283905
REMARK  10 active torsions:
REMARK  status: ('A' for Active; 'I' for Inactive)
REMARK    1  A    between atoms: C_5  and  C_33
REMARK    2  A    between atoms: C_6  and  C_25
REMARK    3  A    between atoms: C_7  and  O_19
REMARK    4  A    between atoms: C_10  and  O_21
REMARK    5  A    between atoms: C_18  and  O_23
REMARK    6  A    between atoms: C_25  and  C_27
REMARK    7  A    between atoms: C_27  and  C_28
REMARK    8  A    between atoms: C_28  and  C_30
REMARK    9  A    between atoms: C_30  and  O_31
REMARK   10  A    between atoms: C_33  and  O_34
REMARK                            x       y       z     vdW  Elec       q    Type
REMARK                         _______ _______ _______ _____ _____    ______ ____
ROOT
ATOM      1  C   UNL     1     -39.631  25.199   1.718  0.00  0.00    +0.025 C 
ATOM      2  C   UNL     1     -39.263  23.724   1.429  0.00  0.00    +0.005 C 
ATOM      3  C   UNL     1     -37.747  23.473   1.407  0.00  0.00    +0.027 C 
ATOM      4  C   UNL     1     -37.147  23.870   2.799  0.00  0.00    +0.007 C 
ATOM      5  C   UNL     1     -35.587  23.639   2.848  0.00  0.00    +0.027 C 
ATOM      6  C   UNL     1     -41.172  25.092   1.586  0.00  0.00    +0.002 C 
ATOM      7  C   UNL     1     -39.095  25.582   3.113  0.00  0.00    +0.110 C 
ATOM      8  C   UNL     1     -35.273  22.148   2.488  0.00  0.00    +0.007 C 
ATOM      9  C   UNL     1     -37.583  25.300   3.237  0.00  0.00    +0.029 C 
ATOM     10  C   UNL     1     -37.402  22.021   1.023  0.00  0.00    +0.110 C 
ATOM     11  C   UNL     1     -40.074  23.389   0.178  0.00  0.00    +0.000 C 
ATOM     12  C   UNL     1     -41.374  24.198   0.341  0.00  0.00    +0.000 C 
ATOM     13  C   UNL     1     -35.906  21.722   1.147  0.00  0.00    +0.029 C 
ATOM     14  C   UNL     1     -34.977  23.953   4.246  0.00  0.00    +0.005 C 
ATOM     15  C   UNL     1     -39.056  26.195   0.675  0.00  0.00    +0.002 C 
ATOM     16  C   UNL     1     -35.649  21.166   3.617  0.00  0.00    +0.029 C 
ATOM     17  C   UNL     1     -35.393  22.977   5.338  0.00  0.00    +0.029 C 
ATOM     18  C   UNL     1     -35.026  21.551   4.956  0.00  0.00    +0.111 C 
ENDROOT
BRANCH   7  19
ATOM     19  O   UNL     1     -39.789  24.904   4.160  0.00  0.00    -0.384 OA
ATOM     20  H   UNL     1     -39.175  24.713   4.886  0.00  0.00    +0.210 HD
ENDBRANCH   7  19
BRANCH  10  21
ATOM     21  O   UNL     1     -38.153  21.106   1.816  0.00  0.00    -0.384 OA
ATOM     22  H   UNL     1     -38.073  20.214   1.443  0.00  0.00    +0.210 HD
ENDBRANCH  10  21
BRANCH  18  23
ATOM     23  O   UNL     1     -35.495  20.673   5.973  0.00  0.00    -0.384 OA
ATOM     24  H   UNL     1     -35.046  20.876   6.809  0.00  0.00    +0.210 HD
ENDBRANCH  18  23
BRANCH   6  25
ATOM     25  C   UNL     1     -41.937  26.406   1.502  0.00  0.00    +0.001 C 
ATOM     26  C   UNL     1     -42.959  26.492   2.640  0.00  0.00    +0.000 C 
BRANCH  25  27
ATOM     27  C   UNL     1     -42.602  26.546   0.117  0.00  0.00    +0.012 C 
BRANCH  27  28
ATOM     28  C   UNL     1     -42.055  27.709  -0.715  0.00  0.00    +0.109 C 
BRANCH  28  30
ATOM     29  O   UNL     1     -42.968  29.582   0.547  0.00  0.00    -0.250 OA
ATOM     30  C   UNL     1     -42.002  28.994   0.081  0.00  0.00    +0.314 C 
BRANCH  30  31
ATOM     31  O   UNL     1     -40.727  29.441   0.218  0.00  0.00    -0.480 OA
ATOM     32  H   UNL     1     -40.475  30.260  -0.163  0.00  0.00    +0.295 HD
ENDBRANCH  30  31
ENDBRANCH  28  30
ENDBRANCH  27  28
ENDBRANCH  25  27
ENDBRANCH   6  25
BRANCH   5  33
ATOM     33  C   UNL     1     -34.849  24.570   1.847  0.00  0.00    +0.137 C 
BRANCH  33  34
ATOM     34  O   UNL     1     -33.906  25.314   2.580  0.00  0.00    -0.382 OA
ATOM     35  H   UNL     1     -33.011  25.014   2.352  0.00  0.00    +0.210 HD
ENDBRANCH  33  34
ENDBRANCH   5  33
TORSDOF 10
ENDMDL
MODEL 6
REMARK VINA RESULT:      -5.8      4.057      8.766
REMARK  Name = 5283905
REMARK  10 active torsions:
REMARK  status: ('A' for Active; 'I' for Inactive)
REMARK    1  A    between atoms: C_5  and  C_33
REMARK    2  A    between atoms: C_6  and  C_25
REMARK    3  A    between atoms: C_7  and  O_19
REMARK    4  A    between atoms: C_10  and  O_21
REMARK    5  A    between atoms: C_18  and  O_23
REMARK    6  A    between atoms: C_25  and  C_27
REMARK    7  A    between atoms: C_27  and  C_28
REMARK    8  A    between atoms: C_28  and  C_30
REMARK    9  A    between atoms: C_30  and  O_31
REMARK   10  A    between atoms: C_33  and  O_34
REMARK                            x       y       z     vdW  Elec       q    Type
REMARK                         _______ _______ _______ _____ _____    ______ ____
ROOT
ATOM      1  C   UNL     1     -33.392  26.802   3.629  0.00  0.00    +0.025 C 
ATOM      2  C   UNL     1     -33.853  25.620   4.513  0.00  0.00    +0.005 C 
ATOM      3  C   UNL     1     -35.027  24.835   3.907  0.00  0.00    +0.027 C 
ATOM      4  C   UNL     1     -34.594  24.272   2.511  0.00  0.00    +0.007 C 
ATOM      5  C   UNL     1     -35.757  23.453   1.827  0.00  0.00    +0.027 C 
ATOM      6  C   UNL     1     -32.296  27.384   4.560  0.00  0.00    +0.002 C 
ATOM      7  C   UNL     1     -32.907  26.251   2.272  0.00  0.00    +0.110 C 
ATOM      8  C   UNL     1     -36.223  22.311   2.791  0.00  0.00    +0.007 C 
ATOM      9  C   UNL     1     -33.984  25.377   1.598  0.00  0.00    +0.029 C 
ATOM     10  C   UNL     1     -35.533  23.723   4.846  0.00  0.00    +0.110 C 
ATOM     11  C   UNL     1     -34.034  26.250   5.894  0.00  0.00    +0.000 C 
ATOM     12  C   UNL     1     -32.938  27.328   5.965  0.00  0.00    +0.000 C 
ATOM     13  C   UNL     1     -36.598  22.841   4.190  0.00  0.00    +0.029 C 
ATOM     14  C   UNL     1     -35.327  22.817   0.472  0.00  0.00    +0.005 C 
ATOM     15  C   UNL     1     -34.507  27.851   3.370  0.00  0.00    +0.002 C 
ATOM     16  C   UNL     1     -35.204  21.155   2.888  0.00  0.00    +0.029 C 
ATOM     17  C   UNL     1     -34.302  21.699   0.608  0.00  0.00    +0.029 C 
ATOM     18  C   UNL     1     -34.823  20.598   1.520  0.00  0.00    +0.111 C 
ENDROOT
BRANCH   7  19
ATOM     19  O   UNL     1     -31.700  25.501   2.398  0.00  0.00    -0.384 OA
ATOM     20  H   UNL     1     -31.057  26.006   2.920  0.00  0.00    +0.210 HD
ENDBRANCH   7  19
BRANCH  10  21
ATOM     21  O   UNL     1     -34.444  22.924   5.299  0.00  0.00    -0.384 OA
ATOM     22  H   UNL     1     -34.151  22.339   4.582  0.00  0.00    +0.210 HD
ENDBRANCH  10  21
BRANCH  18  23
ATOM     23  O   UNL     1     -33.806  19.614   1.670  0.00  0.00    -0.384 OA
ATOM     24  H   UNL     1     -34.098  18.940   2.304  0.00  0.00    +0.210 HD
ENDBRANCH  18  23
BRANCH   6  25
ATOM     25  C   UNL     1     -31.769  28.767   4.204  0.00  0.00    +0.001 C 
ATOM     26  C   UNL     1     -30.536  28.644   3.303  0.00  0.00    +0.000 C 
BRANCH  25  27
ATOM     27  C   UNL     1     -31.469  29.568   5.488  0.00  0.00    +0.012 C 
BRANCH  27  28
ATOM     28  C   UNL     1     -29.975  29.755   5.762  0.00  0.00    +0.109 C 
BRANCH  28  30
ATOM     29  O   UNL     1     -29.268  27.532   6.464  0.00  0.00    -0.250 OA
ATOM     30  C   UNL     1     -29.444  28.714   6.723  0.00  0.00    +0.314 C 
BRANCH  30  31
ATOM     31  O   UNL     1     -29.186  29.252   7.944  0.00  0.00    -0.480 OA
ATOM     32  H   UNL     1     -29.650  30.016   8.226  0.00  0.00    +0.295 HD
ENDBRANCH  30  31
ENDBRANCH  28  30
ENDBRANCH  27  28
ENDBRANCH  25  27
ENDBRANCH   6  25
BRANCH   5  33
ATOM     33  C   UNL     1     -36.969  24.367   1.498  0.00  0.00    +0.137 C 
BRANCH  33  34
ATOM     34  O   UNL     1     -37.981  23.549   0.961  0.00  0.00    -0.382 OA
ATOM     35  H   UNL     1     -38.671  23.408   1.630  0.00  0.00    +0.210 HD
ENDBRANCH  33  34
ENDBRANCH   5  33
TORSDOF 10
ENDMDL
MODEL 7
REMARK VINA RESULT:      -5.7      4.147      7.104
REMARK  Name = 5283905
REMARK  10 active torsions:
REMARK  status: ('A' for Active; 'I' for Inactive)
REMARK    1  A    between atoms: C_5  and  C_33
REMARK    2  A    between atoms: C_6  and  C_25
REMARK    3  A    between atoms: C_7  and  O_19
REMARK    4  A    between atoms: C_10  and  O_21
REMARK    5  A    between atoms: C_18  and  O_23
REMARK    6  A    between atoms: C_25  and  C_27
REMARK    7  A    between atoms: C_27  and  C_28
REMARK    8  A    between atoms: C_28  and  C_30
REMARK    9  A    between atoms: C_30  and  O_31
REMARK   10  A    between atoms: C_33  and  O_34
REMARK                            x       y       z     vdW  Elec       q    Type
REMARK                         _______ _______ _______ _____ _____    ______ ____
ROOT
ATOM      1  C   UNL     1     -35.773  21.834   1.817  0.00  0.00    +0.025 C 
ATOM      2  C   UNL     1     -36.988  21.143   1.154  0.00  0.00    +0.005 C 
ATOM      3  C   UNL     1     -36.672  20.570  -0.236  0.00  0.00    +0.027 C 
ATOM      4  C   UNL     1     -35.517  19.519  -0.101  0.00  0.00    +0.007 C 
ATOM      5  C   UNL     1     -35.137  18.888  -1.497  0.00  0.00    +0.027 C 
ATOM      6  C   UNL     1     -36.461  22.340   3.111  0.00  0.00    +0.002 C 
ATOM      7  C   UNL     1     -34.651  20.793   2.009  0.00  0.00    +0.110 C 
ATOM      8  C   UNL     1     -36.416  18.260  -2.146  0.00  0.00    +0.007 C 
ATOM      9  C   UNL     1     -34.297  20.090   0.682  0.00  0.00    +0.029 C 
ATOM     10  C   UNL     1     -37.917  19.972  -0.918  0.00  0.00    +0.110 C 
ATOM     11  C   UNL     1     -38.104  22.180   1.277  0.00  0.00    +0.000 C 
ATOM     12  C   UNL     1     -37.821  22.884   2.616  0.00  0.00    +0.000 C 
ATOM     13  C   UNL     1     -37.583  19.264  -2.234  0.00  0.00    +0.029 C 
ATOM     14  C   UNL     1     -34.044  17.785  -1.379  0.00  0.00    +0.005 C 
ATOM     15  C   UNL     1     -35.211  23.022   0.991  0.00  0.00    +0.002 C 
ATOM     16  C   UNL     1     -36.857  16.952  -1.456  0.00  0.00    +0.029 C 
ATOM     17  C   UNL     1     -34.511  16.521  -0.670  0.00  0.00    +0.029 C 
ATOM     18  C   UNL     1     -35.728  15.929  -1.366  0.00  0.00    +0.111 C 
ENDROOT
BRANCH   7  19
ATOM     19  O   UNL     1     -34.990  19.811   2.987  0.00  0.00    -0.384 OA
ATOM     20  H   UNL     1     -35.437  20.239   3.734  0.00  0.00    +0.210 HD
ENDBRANCH   7  19
BRANCH  10  21
ATOM     21  O   UNL     1     -38.585  19.076  -0.034  0.00  0.00    -0.384 OA
ATOM     22  H   UNL     1     -39.315  18.641  -0.504  0.00  0.00    +0.210 HD
ENDBRANCH  10  21
BRANCH  18  23
ATOM     23  O   UNL     1     -36.166  14.794  -0.629  0.00  0.00    -0.384 OA
ATOM     24  H   UNL     1     -35.695  14.757   0.218  0.00  0.00    +0.210 HD
ENDBRANCH  18  23
BRANCH   6  25
ATOM     25  C   UNL     1     -35.684  23.353   3.940  0.00  0.00    +0.001 C 
ATOM     26  C   UNL     1     -35.203  22.707   5.243  0.00  0.00    +0.000 C 
BRANCH  25  27
ATOM     27  C   UNL     1     -36.550  24.603   4.199  0.00  0.00    +0.012 C 
BRANCH  27  28
ATOM     28  C   UNL     1     -36.153  25.378   5.458  0.00  0.00    +0.109 C 
BRANCH  28  30
ATOM     29  O   UNL     1     -34.040  26.564   5.709  0.00  0.00    -0.250 OA
ATOM     30  C   UNL     1     -35.127  26.448   5.160  0.00  0.00    +0.314 C 
BRANCH  30  31
ATOM     31  O   UNL     1     -35.563  27.298   4.194  0.00  0.00    -0.480 OA
ATOM     32  H   UNL     1     -35.965  28.111   4.432  0.00  0.00    +0.295 HD
ENDBRANCH  30  31
ENDBRANCH  28  30
ENDBRANCH  27  28
ENDBRANCH  25  27
ENDBRANCH   6  25
BRANCH   5  33
ATOM     33  C   UNL     1     -34.553  19.960  -2.458  0.00  0.00    +0.137 C 
BRANCH  33  34
ATOM     34  O   UNL     1     -33.214  19.611  -2.716  0.00  0.00    -0.382 OA
ATOM     35  H   UNL     1     -33.132  19.300  -3.632  0.00  0.00    +0.210 HD
ENDBRANCH  33  34
ENDBRANCH   5  33
TORSDOF 10
ENDMDL
MODEL 8
REMARK VINA RESULT:      -5.6      2.118      3.797
REMARK  Name = 5283905
REMARK  10 active torsions:
REMARK  status: ('A' for Active; 'I' for Inactive)
REMARK    1  A    between atoms: C_5  and  C_33
REMARK    2  A    between atoms: C_6  and  C_25
REMARK    3  A    between atoms: C_7  and  O_19
REMARK    4  A    between atoms: C_10  and  O_21
REMARK    5  A    between atoms: C_18  and  O_23
REMARK    6  A    between atoms: C_25  and  C_27
REMARK    7  A    between atoms: C_27  and  C_28
REMARK    8  A    between atoms: C_28  and  C_30
REMARK    9  A    between atoms: C_30  and  O_31
REMARK   10  A    between atoms: C_33  and  O_34
REMARK                            x       y       z     vdW  Elec       q    Type
REMARK                         _______ _______ _______ _____ _____    ______ ____
ROOT
ATOM      1  C   UNL     1     -39.656  24.368   1.869  0.00  0.00    +0.025 C 
ATOM      2  C   UNL     1     -38.365  24.777   1.122  0.00  0.00    +0.005 C 
ATOM      3  C   UNL     1     -37.097  24.140   1.714  0.00  0.00    +0.027 C 
ATOM      4  C   UNL     1     -37.235  22.581   1.649  0.00  0.00    +0.007 C 
ATOM      5  C   UNL     1     -35.964  21.859   2.244  0.00  0.00    +0.027 C 
ATOM      6  C   UNL     1     -40.674  25.229   1.078  0.00  0.00    +0.002 C 
ATOM      7  C   UNL     1     -39.832  22.839   1.759  0.00  0.00    +0.110 C 
ATOM      8  C   UNL     1     -34.685  22.357   1.491  0.00  0.00    +0.007 C 
ATOM      9  C   UNL     1     -38.580  22.087   2.259  0.00  0.00    +0.029 C 
ATOM     10  C   UNL     1     -35.815  24.635   1.017  0.00  0.00    +0.110 C 
ATOM     11  C   UNL     1     -38.452  26.301   1.059  0.00  0.00    +0.000 C 
ATOM     12  C   UNL     1     -39.957  26.589   0.915  0.00  0.00    +0.000 C 
ATOM     13  C   UNL     1     -34.564  23.895   1.496  0.00  0.00    +0.029 C 
ATOM     14  C   UNL     1     -36.043  20.308   2.121  0.00  0.00    +0.005 C 
ATOM     15  C   UNL     1     -39.652  24.760   3.371  0.00  0.00    +0.002 C 
ATOM     16  C   UNL     1     -34.574  21.794   0.059  0.00  0.00    +0.029 C 
ATOM     17  C   UNL     1     -35.956  19.794   0.690  0.00  0.00    +0.029 C 
ATOM     18  C   UNL     1     -34.675  20.271   0.022  0.00  0.00    +0.111 C 
ENDROOT
BRANCH   7  19
ATOM     19  O   UNL     1     -40.130  22.427   0.426  0.00  0.00    -0.384 OA
ATOM     20  H   UNL     1     -39.602  21.644   0.203  0.00  0.00    +0.210 HD
ENDBRANCH   7  19
BRANCH  10  21
ATOM     21  O   UNL     1     -35.943  24.521  -0.397  0.00  0.00    -0.384 OA
ATOM     22  H   UNL     1     -36.824  24.826  -0.668  0.00  0.00    +0.210 HD
ENDBRANCH  10  21
BRANCH  18  23
ATOM     23  O   UNL     1     -34.674  19.824  -1.329  0.00  0.00    -0.384 OA
ATOM     24  H   UNL     1     -35.044  20.516  -1.900  0.00  0.00    +0.210 HD
ENDBRANCH  18  23
BRANCH   6  25
ATOM     25  C   UNL     1     -42.064  25.361   1.684  0.00  0.00    +0.001 C 
ATOM     26  C   UNL     1     -43.120  24.871   0.687  0.00  0.00    +0.000 C 
BRANCH  25  27
ATOM     27  C   UNL     1     -42.316  26.819   2.123  0.00  0.00    +0.012 C 
BRANCH  27  28
ATOM     28  C   UNL     1     -42.884  26.947   3.538  0.00  0.00    +0.109 C 
BRANCH  28  30
ATOM     29  O   UNL     1     -41.950  28.861   4.719  0.00  0.00    -0.250 OA
ATOM     30  C   UNL     1     -42.840  28.374   4.036  0.00  0.00    +0.314 C 
BRANCH  30  31
ATOM     31  O   UNL     1     -43.935  29.073   3.638  0.00  0.00    -0.480 OA
ATOM     32  H   UNL     1     -43.994  29.991   3.816  0.00  0.00    +0.295 HD
ENDBRANCH  30  31
ENDBRANCH  28  30
ENDBRANCH  27  28
ENDBRANCH  25  27
ENDBRANCH   6  25
BRANCH   5  33
ATOM     33  C   UNL     1     -35.810  22.153   3.761  0.00  0.00    +0.137 C 
BRANCH  33  34
ATOM     34  O   UNL     1     -35.489  20.940   4.397  0.00  0.00    -0.382 OA
ATOM     35  H   UNL     1     -36.301  20.431   4.550  0.00  0.00    +0.210 HD
ENDBRANCH  33  34
ENDBRANCH   5  33
TORSDOF 10
ENDMDL
MODEL 9
REMARK VINA RESULT:      -5.6      3.660      6.977
REMARK  Name = 5283905
REMARK  10 active torsions:
REMARK  status: ('A' for Active; 'I' for Inactive)
REMARK    1  A    between atoms: C_5  and  C_33
REMARK    2  A    between atoms: C_6  and  C_25
REMARK    3  A    between atoms: C_7  and  O_19
REMARK    4  A    between atoms: C_10  and  O_21
REMARK    5  A    between atoms: C_18  and  O_23
REMARK    6  A    between atoms: C_25  and  C_27
REMARK    7  A    between atoms: C_27  and  C_28
REMARK    8  A    between atoms: C_28  and  C_30
REMARK    9  A    between atoms: C_30  and  O_31
REMARK   10  A    between atoms: C_33  and  O_34
REMARK                            x       y       z     vdW  Elec       q    Type
REMARK                         _______ _______ _______ _____ _____    ______ ____
ROOT
ATOM      1  C   UNL     1     -35.947  22.323   2.058  0.00  0.00    +0.025 C 
ATOM      2  C   UNL     1     -34.924  22.563   0.923  0.00  0.00    +0.005 C 
ATOM      3  C   UNL     1     -33.931  21.404   0.750  0.00  0.00    +0.027 C 
ATOM      4  C   UNL     1     -34.730  20.095   0.429  0.00  0.00    +0.007 C 
ATOM      5  C   UNL     1     -33.769  18.857   0.240  0.00  0.00    +0.027 C 
ATOM      6  C   UNL     1     -36.699  23.679   1.994  0.00  0.00    +0.002 C 
ATOM      7  C   UNL     1     -36.780  21.069   1.722  0.00  0.00    +0.110 C 
ATOM      8  C   UNL     1     -32.720  19.182  -0.876  0.00  0.00    +0.007 C 
ATOM      9  C   UNL     1     -35.880  19.846   1.451  0.00  0.00    +0.029 C 
ATOM     10  C   UNL     1     -32.863  21.704  -0.319  0.00  0.00    +0.110 C 
ATOM     11  C   UNL     1     -34.371  23.956   1.224  0.00  0.00    +0.000 C 
ATOM     12  C   UNL     1     -35.569  24.718   1.820  0.00  0.00    +0.000 C 
ATOM     13  C   UNL     1     -31.964  20.498  -0.605  0.00  0.00    +0.029 C 
ATOM     14  C   UNL     1     -34.534  17.559  -0.156  0.00  0.00    +0.005 C 
ATOM     15  C   UNL     1     -35.290  22.123   3.451  0.00  0.00    +0.002 C 
ATOM     16  C   UNL     1     -33.330  19.171  -2.293  0.00  0.00    +0.029 C 
ATOM     17  C   UNL     1     -35.143  17.598  -1.551  0.00  0.00    +0.029 C 
ATOM     18  C   UNL     1     -34.074  17.874  -2.599  0.00  0.00    +0.111 C 
ENDROOT
BRANCH   7  19
ATOM     19  O   UNL     1     -37.639  21.280   0.602  0.00  0.00    -0.384 OA
ATOM     20  H   UNL     1     -37.426  20.641  -0.096  0.00  0.00    +0.210 HD
ENDBRANCH   7  19
BRANCH  10  21
ATOM     21  O   UNL     1     -33.479  22.154  -1.522  0.00  0.00    -0.384 OA
ATOM     22  H   UNL     1     -34.373  21.783  -1.586  0.00  0.00    +0.210 HD
ENDBRANCH  10  21
BRANCH  18  23
ATOM     23  O   UNL     1     -34.700  17.969  -3.873  0.00  0.00    -0.384 OA
ATOM     24  H   UNL     1     -34.587  18.867  -4.223  0.00  0.00    +0.210 HD
ENDBRANCH  18  23
BRANCH   6  25
ATOM     25  C   UNL     1     -37.622  23.997   3.162  0.00  0.00    +0.001 C 
ATOM     26  C   UNL     1     -39.080  24.006   2.692  0.00  0.00    +0.000 C 
BRANCH  25  27
ATOM     27  C   UNL     1     -37.214  25.336   3.811  0.00  0.00    +0.012 C 
BRANCH  27  28
ATOM     28  C   UNL     1     -36.400  25.176   5.097  0.00  0.00    +0.109 C 
BRANCH  28  30
ATOM     29  O   UNL     1     -34.438  26.257   6.052  0.00  0.00    -0.250 OA
ATOM     30  C   UNL     1     -35.349  26.254   5.236  0.00  0.00    +0.314 C 
BRANCH  30  31
ATOM     31  O   UNL     1     -35.539  27.252   4.334  0.00  0.00    -0.480 OA
ATOM     32  H   UNL     1     -36.055  27.097   3.567  0.00  0.00    +0.295 HD
ENDBRANCH  30  31
ENDBRANCH  28  30
ENDBRANCH  27  28
ENDBRANCH  25  27
ENDBRANCH   6  25
BRANCH   5  33
ATOM     33  C   UNL     1     -33.021  18.520   1.559  0.00  0.00    +0.137 C 
BRANCH  33  34
ATOM     34  O   UNL     1     -32.134  17.462   1.283  0.00  0.00    -0.382 OA
ATOM     35  H   UNL     1     -32.556  16.619   1.513  0.00  0.00    +0.210 HD
ENDBRANCH  33  34
ENDBRANCH   5  33
TORSDOF 10
ENDMDL
