MODEL 1
REMARK VINA RESULT:      -5.4      0.000      0.000
REMARK  Name = 191723
REMARK  5 active torsions:
REMARK  status: ('A' for Active; 'I' for Inactive)
REMARK    1  A    between atoms: P_1  and  O_15
REMARK    2  A    between atoms: C_7  and  O_11
REMARK    3  A    between atoms: C_8  and  O_13
REMARK    4  A    between atoms: C_10  and  C_17
REMARK    5  A    between atoms: C_17  and  O_18
REMARK                            x       y       z     vdW  Elec       q    Type
REMARK                         _______ _______ _______ _____ _____    ______ ____
ROOT
ATOM      1  P   UNL     1     -38.752  24.966   2.810  0.00  0.00    +0.478 P 
ATOM      2  O   UNL     1     -35.672  23.910   4.721  0.00  0.00    -0.326 OA
ATOM      3  O   UNL     1     -37.573  24.684   1.722  0.00  0.00    -0.268 OA
ATOM      4  O   UNL     1     -37.909  24.572   4.147  0.00  0.00    -0.245 OA
ATOM      5  O   UNL     1     -40.047  24.244   2.604  0.00  0.00    -0.227 OA
ATOM      6  C   UNL     1     -36.423  24.121   2.380  0.00  0.00    +0.212 C 
ATOM      7  C   UNL     1     -36.499  22.600   2.274  0.00  0.00    +0.172 C 
ATOM      8  C   UNL     1     -35.593  21.932   3.305  0.00  0.00    +0.169 C 
ATOM      9  C   UNL     1     -36.511  24.624   3.824  0.00  0.00    +0.275 C 
ATOM     10  C   UNL     1     -35.871  22.496   4.702  0.00  0.00    +0.176 C 
ENDROOT
BRANCH   7  11
ATOM     11  O   UNL     1     -36.084  22.233   0.957  0.00  0.00    -0.379 OA
ATOM     12  H   UNL     1     -36.193  22.990   0.360  0.00  0.00    +0.211 HD
ENDBRANCH   7  11
BRANCH   8  13
ATOM     13  O   UNL     1     -35.841  20.528   3.315  0.00  0.00    -0.379 OA
ATOM     14  H   UNL     1     -35.846  20.195   2.405  0.00  0.00    +0.211 HD
ENDBRANCH   8  13
BRANCH   1  15
ATOM     15  O   UNL     1     -38.831  26.579   2.870  0.00  0.00    -0.302 OA
ATOM     16  H   UNL     1     -38.183  26.912   3.510  0.00  0.00    +0.222 HD
ENDBRANCH   1  15
BRANCH  10  17
ATOM     17  C   UNL     1     -34.941  21.894   5.751  0.00  0.00    +0.169 C 
BRANCH  17  18
ATOM     18  O   UNL     1     -35.334  20.559   5.972  0.00  0.00    -0.379 OA
ATOM     19  H   UNL     1     -35.927  20.520   6.739  0.00  0.00    +0.211 HD
ENDBRANCH  17  18
ENDBRANCH  10  17
TORSDOF 5
ENDMDL
MODEL 2
REMARK VINA RESULT:      -5.4      2.227      3.731
REMARK  Name = 191723
REMARK  5 active torsions:
REMARK  status: ('A' for Active; 'I' for Inactive)
REMARK    1  A    between atoms: P_1  and  O_15
REMARK    2  A    between atoms: C_7  and  O_11
REMARK    3  A    between atoms: C_8  and  O_13
REMARK    4  A    between atoms: C_10  and  C_17
REMARK    5  A    between atoms: C_17  and  O_18
REMARK                            x       y       z     vdW  Elec       q    Type
REMARK                         _______ _______ _______ _____ _____    ______ ____
ROOT
ATOM      1  P   UNL     1     -34.697  25.886   4.515  0.00  0.00    +0.478 P 
ATOM      2  O   UNL     1     -36.400  23.077   2.653  0.00  0.00    -0.326 OA
ATOM      3  O   UNL     1     -35.740  25.176   5.545  0.00  0.00    -0.268 OA
ATOM      4  O   UNL     1     -34.962  24.911   3.236  0.00  0.00    -0.245 OA
ATOM      5  O   UNL     1     -33.276  26.010   4.972  0.00  0.00    -0.227 OA
ATOM      6  C   UNL     1     -36.300  23.995   4.941  0.00  0.00    +0.212 C 
ATOM      7  C   UNL     1     -35.478  22.788   5.383  0.00  0.00    +0.172 C 
ATOM      8  C   UNL     1     -35.710  21.596   4.457  0.00  0.00    +0.169 C 
ATOM      9  C   UNL     1     -36.221  24.250   3.432  0.00  0.00    +0.275 C 
ATOM     10  C   UNL     1     -35.513  22.011   2.996  0.00  0.00    +0.176 C 
ENDROOT
BRANCH   7  11
ATOM     11  O   UNL     1     -35.877  22.451   6.713  0.00  0.00    -0.379 OA
ATOM     12  H   UNL     1     -35.090  22.323   7.265  0.00  0.00    +0.211 HD
ENDBRANCH   7  11
BRANCH   8  13
ATOM     13  O   UNL     1     -34.783  20.561   4.774  0.00  0.00    -0.379 OA
ATOM     14  H   UNL     1     -35.116  20.048   5.527  0.00  0.00    +0.211 HD
ENDBRANCH   8  13
BRANCH   1  15
ATOM     15  O   UNL     1     -35.444  27.260   4.109  0.00  0.00    -0.302 OA
ATOM     16  H   UNL     1     -36.197  27.061   3.531  0.00  0.00    +0.222 HD
ENDBRANCH   1  15
BRANCH  10  17
ATOM     17  C   UNL     1     -35.797  20.859   2.037  0.00  0.00    +0.169 C 
BRANCH  17  18
ATOM     18  O   UNL     1     -36.609  19.922   2.705  0.00  0.00    -0.379 OA
ATOM     19  H   UNL     1     -37.491  20.301   2.846  0.00  0.00    +0.211 HD
ENDBRANCH  17  18
ENDBRANCH  10  17
TORSDOF 5
ENDMDL
MODEL 3
REMARK VINA RESULT:      -5.2      2.412      4.451
REMARK  Name = 191723
REMARK  5 active torsions:
REMARK  status: ('A' for Active; 'I' for Inactive)
REMARK    1  A    between atoms: P_1  and  O_15
REMARK    2  A    between atoms: C_7  and  O_11
REMARK    3  A    between atoms: C_8  and  O_13
REMARK    4  A    between atoms: C_10  and  C_17
REMARK    5  A    between atoms: C_17  and  O_18
REMARK                            x       y       z     vdW  Elec       q    Type
REMARK                         _______ _______ _______ _____ _____    ______ ____
ROOT
ATOM      1  P   UNL     1     -36.046  22.341   2.867  0.00  0.00    +0.478 P 
ATOM      2  O   UNL     1     -34.764  24.371   5.780  0.00  0.00    -0.326 OA
ATOM      3  O   UNL     1     -37.315  23.139   3.504  0.00  0.00    -0.268 OA
ATOM      4  O   UNL     1     -34.898  22.934   3.860  0.00  0.00    -0.245 OA
ATOM      5  O   UNL     1     -35.807  22.515   1.398  0.00  0.00    -0.227 OA
ATOM      6  C   UNL     1     -36.859  24.055   4.516  0.00  0.00    +0.212 C 
ATOM      7  C   UNL     1     -36.675  25.430   3.879  0.00  0.00    +0.172 C 
ATOM      8  C   UNL     1     -35.786  26.321   4.743  0.00  0.00    +0.169 C 
ATOM      9  C   UNL     1     -35.547  23.455   5.030  0.00  0.00    +0.275 C 
ATOM     10  C   UNL     1     -34.486  25.593   5.096  0.00  0.00    +0.176 C 
ENDROOT
BRANCH   7  11
ATOM     11  O   UNL     1     -37.967  26.024   3.741  0.00  0.00    -0.379 OA
ATOM     12  H   UNL     1     -38.073  26.361   2.838  0.00  0.00    +0.211 HD
ENDBRANCH   7  11
BRANCH   8  13
ATOM     13  O   UNL     1     -35.470  27.512   4.027  0.00  0.00    -0.379 OA
ATOM     14  H   UNL     1     -36.066  27.600   3.267  0.00  0.00    +0.211 HD
ENDBRANCH   8  13
BRANCH   1  15
ATOM     15  O   UNL     1     -36.254  20.825   3.385  0.00  0.00    -0.302 OA
ATOM     16  H   UNL     1     -36.049  20.776   4.332  0.00  0.00    +0.222 HD
ENDBRANCH   1  15
BRANCH  10  17
ATOM     17  C   UNL     1     -33.598  26.432   6.011  0.00  0.00    +0.169 C 
BRANCH  17  18
ATOM     18  O   UNL     1     -32.704  27.164   5.204  0.00  0.00    -0.379 OA
ATOM     19  H   UNL     1     -32.248  26.559   4.596  0.00  0.00    +0.211 HD
ENDBRANCH  17  18
ENDBRANCH  10  17
TORSDOF 5
ENDMDL
MODEL 4
REMARK VINA RESULT:      -5.2      3.064      5.043
REMARK  Name = 191723
REMARK  5 active torsions:
REMARK  status: ('A' for Active; 'I' for Inactive)
REMARK    1  A    between atoms: P_1  and  O_15
REMARK    2  A    between atoms: C_7  and  O_11
REMARK    3  A    between atoms: C_8  and  O_13
REMARK    4  A    between atoms: C_10  and  C_17
REMARK    5  A    between atoms: C_17  and  O_18
REMARK                            x       y       z     vdW  Elec       q    Type
REMARK                         _______ _______ _______ _____ _____    ______ ____
ROOT
ATOM      1  P   UNL     1     -35.764  22.959   4.666  0.00  0.00    +0.478 P 
ATOM      2  O   UNL     1     -34.016  26.183   5.565  0.00  0.00    -0.326 OA
ATOM      3  O   UNL     1     -36.885  24.141   4.667  0.00  0.00    -0.268 OA
ATOM      4  O   UNL     1     -34.473  23.887   5.022  0.00  0.00    -0.245 OA
ATOM      5  O   UNL     1     -35.661  22.127   3.425  0.00  0.00    -0.227 OA
ATOM      6  C   UNL     1     -36.249  25.420   4.843  0.00  0.00    +0.212 C 
ATOM      7  C   UNL     1     -36.008  26.035   3.467  0.00  0.00    +0.172 C 
ATOM      8  C   UNL     1     -34.960  27.144   3.537  0.00  0.00    +0.169 C 
ATOM      9  C   UNL     1     -34.950  25.114   5.596  0.00  0.00    +0.275 C 
ATOM     10  C   UNL     1     -33.700  26.640   4.250  0.00  0.00    +0.176 C 
ENDROOT
BRANCH   7  11
ATOM     11  O   UNL     1     -37.249  26.573   3.006  0.00  0.00    -0.379 OA
ATOM     12  H   UNL     1     -37.767  25.872   2.581  0.00  0.00    +0.211 HD
ENDBRANCH   7  11
BRANCH   8  13
ATOM     13  O   UNL     1     -34.613  27.553   2.217  0.00  0.00    -0.379 OA
ATOM     14  H   UNL     1     -33.762  28.017   2.236  0.00  0.00    +0.211 HD
ENDBRANCH   8  13
BRANCH   1  15
ATOM     15  O   UNL     1     -36.053  22.163   6.042  0.00  0.00    -0.302 OA
ATOM     16  H   UNL     1     -36.570  21.366   5.852  0.00  0.00    +0.222 HD
ENDBRANCH   1  15
BRANCH  10  17
ATOM     17  C   UNL     1     -32.653  27.740   4.392  0.00  0.00    +0.169 C 
BRANCH  17  18
ATOM     18  O   UNL     1     -33.312  28.984   4.328  0.00  0.00    -0.379 OA
ATOM     19  H   UNL     1     -33.008  29.549   5.056  0.00  0.00    +0.211 HD
ENDBRANCH  17  18
ENDBRANCH  10  17
TORSDOF 5
ENDMDL
MODEL 5
REMARK VINA RESULT:      -5.0      1.762      3.134
REMARK  Name = 191723
REMARK  5 active torsions:
REMARK  status: ('A' for Active; 'I' for Inactive)
REMARK    1  A    between atoms: P_1  and  O_15
REMARK    2  A    between atoms: C_7  and  O_11
REMARK    3  A    between atoms: C_8  and  O_13
REMARK    4  A    between atoms: C_10  and  C_17
REMARK    5  A    between atoms: C_17  and  O_18
REMARK                            x       y       z     vdW  Elec       q    Type
REMARK                         _______ _______ _______ _____ _____    ______ ____
ROOT
ATOM      1  P   UNL     1     -37.349  25.705   1.258  0.00  0.00    +0.478 P 
ATOM      2  O   UNL     1     -37.126  22.863   3.733  0.00  0.00    -0.326 OA
ATOM      3  O   UNL     1     -37.920  26.250   2.683  0.00  0.00    -0.268 OA
ATOM      4  O   UNL     1     -36.951  24.203   1.746  0.00  0.00    -0.245 OA
ATOM      5  O   UNL     1     -36.258  26.506   0.616  0.00  0.00    -0.227 OA
ATOM      6  C   UNL     1     -37.708  25.261   3.707  0.00  0.00    +0.212 C 
ATOM      7  C   UNL     1     -36.401  25.580   4.427  0.00  0.00    +0.172 C 
ATOM      8  C   UNL     1     -35.885  24.363   5.193  0.00  0.00    +0.169 C 
ATOM      9  C   UNL     1     -37.667  23.924   2.959  0.00  0.00    +0.275 C 
ATOM     10  C   UNL     1     -35.834  23.139   4.274  0.00  0.00    +0.176 C 
ENDROOT
BRANCH   7  11
ATOM     11  O   UNL     1     -36.654  26.652   5.337  0.00  0.00    -0.379 OA
ATOM     12  H   UNL     1     -37.020  27.408   4.853  0.00  0.00    +0.211 HD
ENDBRANCH   7  11
BRANCH   8  13
ATOM     13  O   UNL     1     -34.573  24.632   5.680  0.00  0.00    -0.379 OA
ATOM     14  H   UNL     1     -33.918  24.312   5.040  0.00  0.00    +0.211 HD
ENDBRANCH   8  13
BRANCH   1  15
ATOM     15  O   UNL     1     -38.686  25.479   0.378  0.00  0.00    -0.302 OA
ATOM     16  H   UNL     1     -38.642  24.616  -0.062  0.00  0.00    +0.222 HD
ENDBRANCH   1  15
BRANCH  10  17
ATOM     17  C   UNL     1     -35.380  21.889   5.022  0.00  0.00    +0.169 C 
BRANCH  17  18
ATOM     18  O   UNL     1     -36.018  21.873   6.278  0.00  0.00    -0.379 OA
ATOM     19  H   UNL     1     -36.968  22.033   6.160  0.00  0.00    +0.211 HD
ENDBRANCH  17  18
ENDBRANCH  10  17
TORSDOF 5
ENDMDL
MODEL 6
REMARK VINA RESULT:      -4.9      1.936      2.151
REMARK  Name = 191723
REMARK  5 active torsions:
REMARK  status: ('A' for Active; 'I' for Inactive)
REMARK    1  A    between atoms: P_1  and  O_15
REMARK    2  A    between atoms: C_7  and  O_11
REMARK    3  A    between atoms: C_8  and  O_13
REMARK    4  A    between atoms: C_10  and  C_17
REMARK    5  A    between atoms: C_17  and  O_18
REMARK                            x       y       z     vdW  Elec       q    Type
REMARK                         _______ _______ _______ _____ _____    ______ ____
ROOT
ATOM      1  P   UNL     1     -36.072  26.677   3.076  0.00  0.00    +0.478 P 
ATOM      2  O   UNL     1     -34.760  24.079   5.480  0.00  0.00    -0.326 OA
ATOM      3  O   UNL     1     -34.965  25.787   2.279  0.00  0.00    -0.268 OA
ATOM      4  O   UNL     1     -36.011  25.878   4.494  0.00  0.00    -0.245 OA
ATOM      5  O   UNL     1     -37.422  26.801   2.441  0.00  0.00    -0.227 OA
ATOM      6  C   UNL     1     -34.549  24.676   3.096  0.00  0.00    +0.212 C 
ATOM      7  C   UNL     1     -35.387  23.458   2.722  0.00  0.00    +0.172 C 
ATOM      8  C   UNL     1     -35.332  22.395   3.818  0.00  0.00    +0.169 C 
ATOM      9  C   UNL     1     -34.780  25.140   4.537  0.00  0.00    +0.275 C 
ATOM     10  C   UNL     1     -35.665  23.017   5.177  0.00  0.00    +0.176 C 
ENDROOT
BRANCH   7  11
ATOM     11  O   UNL     1     -34.863  22.923   1.505  0.00  0.00    -0.379 OA
ATOM     12  H   UNL     1     -33.996  22.524   1.674  0.00  0.00    +0.211 HD
ENDBRANCH   7  11
BRANCH   8  13
ATOM     13  O   UNL     1     -36.279  21.370   3.532  0.00  0.00    -0.379 OA
ATOM     14  H   UNL     1     -36.895  21.679   2.850  0.00  0.00    +0.211 HD
ENDBRANCH   8  13
BRANCH   1  15
ATOM     15  O   UNL     1     -35.293  28.060   3.383  0.00  0.00    -0.302 OA
ATOM     16  H   UNL     1     -34.462  28.081   2.885  0.00  0.00    +0.222 HD
ENDBRANCH   1  15
BRANCH  10  17
ATOM     17  C   UNL     1     -35.560  21.996   6.307  0.00  0.00    +0.169 C 
BRANCH  17  18
ATOM     18  O   UNL     1     -34.894  20.858   5.809  0.00  0.00    -0.379 OA
ATOM     19  H   UNL     1     -34.802  20.933   4.846  0.00  0.00    +0.211 HD
ENDBRANCH  17  18
ENDBRANCH  10  17
TORSDOF 5
ENDMDL
MODEL 7
REMARK VINA RESULT:      -4.9      3.369      4.756
REMARK  Name = 191723
REMARK  5 active torsions:
REMARK  status: ('A' for Active; 'I' for Inactive)
REMARK    1  A    between atoms: P_1  and  O_15
REMARK    2  A    between atoms: C_7  and  O_11
REMARK    3  A    between atoms: C_8  and  O_13
REMARK    4  A    between atoms: C_10  and  C_17
REMARK    5  A    between atoms: C_17  and  O_18
REMARK                            x       y       z     vdW  Elec       q    Type
REMARK                         _______ _______ _______ _____ _____    ______ ____
ROOT
ATOM      1  P   UNL     1     -32.949  27.410   3.655  0.00  0.00    +0.478 P 
ATOM      2  O   UNL     1     -35.034  24.527   2.391  0.00  0.00    -0.326 OA
ATOM      3  O   UNL     1     -34.513  27.782   3.922  0.00  0.00    -0.268 OA
ATOM      4  O   UNL     1     -33.186  25.932   3.013  0.00  0.00    -0.245 OA
ATOM      5  O   UNL     1     -32.027  27.483   4.833  0.00  0.00    -0.227 OA
ATOM      6  C   UNL     1     -35.346  26.650   3.610  0.00  0.00    +0.212 C 
ATOM      7  C   UNL     1     -35.603  25.868   4.895  0.00  0.00    +0.172 C 
ATOM      8  C   UNL     1     -36.079  24.449   4.589  0.00  0.00    +0.169 C 
ATOM      9  C   UNL     1     -34.551  25.850   2.573  0.00  0.00    +0.275 C 
ATOM     10  C   UNL     1     -35.125  23.771   3.600  0.00  0.00    +0.176 C 
ENDROOT
BRANCH   7  11
ATOM     11  O   UNL     1     -36.607  26.564   5.636  0.00  0.00    -0.379 OA
ATOM     12  H   UNL     1     -36.913  26.007   6.369  0.00  0.00    +0.211 HD
ENDBRANCH   7  11
BRANCH   8  13
ATOM     13  O   UNL     1     -36.113  23.690   5.794  0.00  0.00    -0.379 OA
ATOM     14  H   UNL     1     -36.481  24.233   6.508  0.00  0.00    +0.211 HD
ENDBRANCH   8  13
BRANCH   1  15
ATOM     15  O   UNL     1     -32.558  28.322   2.379  0.00  0.00    -0.302 OA
ATOM     16  H   UNL     1     -32.757  29.251   2.572  0.00  0.00    +0.222 HD
ENDBRANCH   1  15
BRANCH  10  17
ATOM     17  C   UNL     1     -35.603  22.372   3.223  0.00  0.00    +0.169 C 
BRANCH  17  18
ATOM     18  O   UNL     1     -36.947  22.244   3.625  0.00  0.00    -0.379 OA
ATOM     19  H   UNL     1     -37.486  21.969   2.866  0.00  0.00    +0.211 HD
ENDBRANCH  17  18
ENDBRANCH  10  17
TORSDOF 5
ENDMDL
MODEL 8
REMARK VINA RESULT:      -4.9      2.342      4.192
REMARK  Name = 191723
REMARK  5 active torsions:
REMARK  status: ('A' for Active; 'I' for Inactive)
REMARK    1  A    between atoms: P_1  and  O_15
REMARK    2  A    between atoms: C_7  and  O_11
REMARK    3  A    between atoms: C_8  and  O_13
REMARK    4  A    between atoms: C_10  and  C_17
REMARK    5  A    between atoms: C_17  and  O_18
REMARK                            x       y       z     vdW  Elec       q    Type
REMARK                         _______ _______ _______ _____ _____    ______ ____
ROOT
ATOM      1  P   UNL     1     -35.747  21.041   2.226  0.00  0.00    +0.478 P 
ATOM      2  O   UNL     1     -36.613  23.792   4.663  0.00  0.00    -0.326 OA
ATOM      3  O   UNL     1     -36.727  22.089   1.454  0.00  0.00    -0.268 OA
ATOM      4  O   UNL     1     -35.660  21.834   3.646  0.00  0.00    -0.245 OA
ATOM      5  O   UNL     1     -34.442  20.724   1.562  0.00  0.00    -0.227 OA
ATOM      6  C   UNL     1     -36.959  23.244   2.282  0.00  0.00    +0.212 C 
ATOM      7  C   UNL     1     -35.959  24.328   1.893  0.00  0.00    +0.172 C 
ATOM      8  C   UNL     1     -35.835  25.382   2.991  0.00  0.00    +0.169 C 
ATOM      9  C   UNL     1     -36.769  22.744   3.718  0.00  0.00    +0.275 C 
ATOM     10  C   UNL     1     -35.568  24.711   4.343  0.00  0.00    +0.176 C 
ENDROOT
BRANCH   7  11
ATOM     11  O   UNL     1     -36.424  24.940   0.688  0.00  0.00    -0.379 OA
ATOM     12  H   UNL     1     -36.915  25.748   0.904  0.00  0.00    +0.211 HD
ENDBRANCH   7  11
BRANCH   8  13
ATOM     13  O   UNL     1     -34.754  26.259   2.688  0.00  0.00    -0.379 OA
ATOM     14  H   UNL     1     -34.473  26.717   3.495  0.00  0.00    +0.211 HD
ENDBRANCH   8  13
BRANCH   1  15
ATOM     15  O   UNL     1     -36.713  19.786   2.547  0.00  0.00    -0.302 OA
ATOM     16  H   UNL     1     -36.193  18.968   2.538  0.00  0.00    +0.222 HD
ENDBRANCH   1  15
BRANCH  10  17
ATOM     17  C   UNL     1     -35.499  25.731   5.476  0.00  0.00    +0.169 C 
BRANCH  17  18
ATOM     18  O   UNL     1     -36.494  26.703   5.253  0.00  0.00    -0.379 OA
ATOM     19  H   UNL     1     -37.370  26.299   5.357  0.00  0.00    +0.211 HD
ENDBRANCH  17  18
ENDBRANCH  10  17
TORSDOF 5
ENDMDL
MODEL 9
REMARK VINA RESULT:      -4.8      1.769      3.099
REMARK  Name = 191723
REMARK  5 active torsions:
REMARK  status: ('A' for Active; 'I' for Inactive)
REMARK    1  A    between atoms: P_1  and  O_15
REMARK    2  A    between atoms: C_7  and  O_11
REMARK    3  A    between atoms: C_8  and  O_13
REMARK    4  A    between atoms: C_10  and  C_17
REMARK    5  A    between atoms: C_17  and  O_18
REMARK                            x       y       z     vdW  Elec       q    Type
REMARK                         _______ _______ _______ _____ _____    ______ ____
ROOT
ATOM      1  P   UNL     1     -38.782  22.464   1.649  0.00  0.00    +0.478 P 
ATOM      2  O   UNL     1     -36.300  24.859   3.185  0.00  0.00    -0.326 OA
ATOM      3  O   UNL     1     -37.332  21.723   1.666  0.00  0.00    -0.268 OA
ATOM      4  O   UNL     1     -38.324  23.849   2.374  0.00  0.00    -0.245 OA
ATOM      5  O   UNL     1     -39.923  21.729   2.283  0.00  0.00    -0.227 OA
ATOM      6  C   UNL     1     -36.380  22.525   2.389  0.00  0.00    +0.212 C 
ATOM      7  C   UNL     1     -36.332  22.037   3.834  0.00  0.00    +0.172 C 
ATOM      8  C   UNL     1     -35.712  23.091   4.750  0.00  0.00    +0.169 C 
ATOM      9  C   UNL     1     -36.897  23.961   2.261  0.00  0.00    +0.275 C 
ATOM     10  C   UNL     1     -36.401  24.443   4.547  0.00  0.00    +0.176 C 
ENDROOT
BRANCH   7  11
ATOM     11  O   UNL     1     -35.544  20.845   3.867  0.00  0.00    -0.379 OA
ATOM     12  H   UNL     1     -34.618  21.064   3.683  0.00  0.00    +0.211 HD
ENDBRANCH   7  11
BRANCH   8  13
ATOM     13  O   UNL     1     -35.868  22.690   6.108  0.00  0.00    -0.379 OA
ATOM     14  H   UNL     1     -36.779  22.863   6.393  0.00  0.00    +0.211 HD
ENDBRANCH   8  13
BRANCH   1  15
ATOM     15  O   UNL     1     -38.972  22.887   0.101  0.00  0.00    -0.302 OA
ATOM     16  H   UNL     1     -38.230  22.546  -0.421  0.00  0.00    +0.222 HD
ENDBRANCH   1  15
BRANCH  10  17
ATOM     17  C   UNL     1     -35.766  25.536   5.402  0.00  0.00    +0.169 C 
BRANCH  17  18
ATOM     18  O   UNL     1     -36.610  26.664   5.370  0.00  0.00    -0.379 OA
ATOM     19  H   UNL     1     -36.237  27.329   4.770  0.00  0.00    +0.211 HD
ENDBRANCH  17  18
ENDBRANCH  10  17
TORSDOF 5
ENDMDL
