MODEL 1
REMARK VINA RESULT:      -6.1      0.000      0.000
REMARK  Name = 191115
REMARK  6 active torsions:
REMARK  status: ('A' for Active; 'I' for Inactive)
REMARK    1  A    between atoms: C_1  and  C_8
REMARK    2  A    between atoms: C_1  and  N_15
REMARK    3  A    between atoms: C_1  and  C_25
REMARK    4  A    between atoms: C_4  and  C_11
REMARK    5  A    between atoms: C_16  and  C_20
REMARK    6  A    between atoms: C_25  and  C_26
REMARK                            x       y       z     vdW  Elec       q    Type
REMARK                         _______ _______ _______ _____ _____    ______ ____
ROOT
ATOM      1  C   UNL     1     -35.842  23.038   3.439  0.00  0.00    +0.149 C 
ENDROOT
BRANCH   1   8
ATOM      2  O   UNL     1     -35.500  20.684   3.545  0.00  0.00    -0.273 OA
ATOM      3  N   UNL     1     -35.257  21.695   1.477  0.00  0.00    -0.272 N 
ATOM      4  C   UNL     1     -35.089  20.468   0.710  0.00  0.00    +0.152 C 
ATOM      5  C   UNL     1     -35.282  20.889  -0.742  0.00  0.00    +0.031 C 
ATOM      6  C   UNL     1     -35.271  22.865   0.602  0.00  0.00    +0.094 C 
ATOM      7  C   UNL     1     -34.820  22.345  -0.753  0.00  0.00    +0.024 C 
ATOM      8  C   UNL     1     -35.523  21.693   2.838  0.00  0.00    +0.244 C 
BRANCH   4  11
ATOM      9  O   UNL     1     -32.709  20.522   0.483  0.00  0.00    -0.274 OA
ATOM     10  N   UNL     1     -33.644  18.856   1.764  0.00  0.00    -0.327 N 
ATOM     11  C   UNL     1     -33.697  19.974   0.966  0.00  0.00    +0.237 C 
ATOM     12  H   UNL     1     -32.775  18.453   1.992  0.00  0.00    +0.145 HD
ATOM     13  H   UNL     1     -34.476  18.458   2.110  0.00  0.00    +0.145 HD
ENDBRANCH   4  11
ENDBRANCH   1   8
BRANCH   1  15
ATOM     14  O   UNL     1     -37.510  25.171   2.392  0.00  0.00    -0.273 OA
ATOM     15  N   UNL     1     -37.275  23.088   3.407  0.00  0.00    -0.297 N 
ATOM     16  C   UNL     1     -37.996  24.155   2.882  0.00  0.00    +0.241 C 
ATOM     17  H   UNL     1     -37.775  22.324   3.775  0.00  0.00    +0.150 HD
BRANCH  16  20
ATOM     18  O   UNL     1     -41.085  27.021   3.588  0.00  0.00    -0.275 OA
ATOM     19  N   UNL     1     -40.000  24.959   3.814  0.00  0.00    -0.298 N 
ATOM     20  C   UNL     1     -39.474  23.940   2.950  0.00  0.00    +0.149 C 
ATOM     21  C   UNL     1     -40.166  24.197   1.625  0.00  0.00    +0.039 C 
ATOM     22  C   UNL     1     -40.481  25.693   1.646  0.00  0.00    +0.087 C 
ATOM     23  C   UNL     1     -40.593  26.007   3.119  0.00  0.00    +0.223 C 
ATOM     24  H   UNL     1     -39.948  24.919   4.796  0.00  0.00    +0.150 HD
ENDBRANCH  16  20
ENDBRANCH   1  15
BRANCH   1  25
ATOM     25  C   UNL     1     -35.267  23.137   4.847  0.00  0.00    +0.029 C 
BRANCH  25  26
ATOM     26  C   UNL     1     -34.687  24.522   5.196  0.00  0.00    +0.002 C 
ATOM     27  C   UNL     1     -33.905  25.072   4.000  0.00  0.00    +0.000 C 
ATOM     28  C   UNL     1     -35.769  25.521   5.608  0.00  0.00    +0.000 C 
ENDBRANCH  25  26
ENDBRANCH   1  25
TORSDOF 6
ENDMDL
MODEL 2
REMARK VINA RESULT:      -5.9      4.102      7.125
REMARK  Name = 191115
REMARK  6 active torsions:
REMARK  status: ('A' for Active; 'I' for Inactive)
REMARK    1  A    between atoms: C_1  and  C_8
REMARK    2  A    between atoms: C_1  and  N_15
REMARK    3  A    between atoms: C_1  and  C_25
REMARK    4  A    between atoms: C_4  and  C_11
REMARK    5  A    between atoms: C_16  and  C_20
REMARK    6  A    between atoms: C_25  and  C_26
REMARK                            x       y       z     vdW  Elec       q    Type
REMARK                         _______ _______ _______ _____ _____    ______ ____
ROOT
ATOM      1  C   UNL     1     -34.344  25.429   4.684  0.00  0.00    +0.149 C 
ENDROOT
BRANCH   1   8
ATOM      2  O   UNL     1     -36.460  26.084   5.556  0.00  0.00    -0.273 OA
ATOM      3  N   UNL     1     -36.311  25.769   3.268  0.00  0.00    -0.272 N 
ATOM      4  C   UNL     1     -37.650  26.249   2.946  0.00  0.00    +0.152 C 
ATOM      5  C   UNL     1     -37.629  26.474   1.439  0.00  0.00    +0.031 C 
ATOM      6  C   UNL     1     -35.568  25.433   2.056  0.00  0.00    +0.094 C 
ATOM      7  C   UNL     1     -36.603  25.457   0.944  0.00  0.00    +0.024 C 
ATOM      8  C   UNL     1     -35.800  25.796   4.557  0.00  0.00    +0.244 C 
BRANCH   4  11
ATOM      9  O   UNL     1     -38.265  23.993   3.448  0.00  0.00    -0.274 OA
ATOM     10  N   UNL     1     -39.898  25.612   3.528  0.00  0.00    -0.327 N 
ATOM     11  C   UNL     1     -38.612  25.167   3.335  0.00  0.00    +0.237 C 
ATOM     12  H   UNL     1     -40.606  24.978   3.786  0.00  0.00    +0.145 HD
ATOM     13  H   UNL     1     -40.112  26.565   3.409  0.00  0.00    +0.145 HD
ENDBRANCH   4  11
ENDBRANCH   1   8
BRANCH   1  15
ATOM     14  O   UNL     1     -32.194  27.155   3.775  0.00  0.00    -0.273 OA
ATOM     15  N   UNL     1     -33.775  26.549   5.375  0.00  0.00    -0.297 N 
ATOM     16  C   UNL     1     -32.742  27.326   4.861  0.00  0.00    +0.241 C 
ATOM     17  H   UNL     1     -34.137  26.783   6.260  0.00  0.00    +0.150 HD
BRANCH  16  20
ATOM     18  O   UNL     1     -28.979  28.063   6.745  0.00  0.00    -0.275 OA
ATOM     19  N   UNL     1     -31.314  27.946   6.624  0.00  0.00    -0.298 N 
ATOM     20  C   UNL     1     -32.355  28.447   5.772  0.00  0.00    +0.149 C 
ATOM     21  C   UNL     1     -31.699  29.600   5.039  0.00  0.00    +0.039 C 
ATOM     22  C   UNL     1     -30.215  29.238   5.015  0.00  0.00    +0.087 C 
ATOM     23  C   UNL     1     -30.046  28.364   6.235  0.00  0.00    +0.223 C 
ATOM     24  H   UNL     1     -31.480  27.367   7.403  0.00  0.00    +0.150 HD
ENDBRANCH  16  20
ENDBRANCH   1  15
BRANCH   1  25
ATOM     25  C   UNL     1     -34.195  24.115   5.442  0.00  0.00    +0.029 C 
BRANCH  25  26
ATOM     26  C   UNL     1     -35.372  23.138   5.250  0.00  0.00    +0.002 C 
ATOM     27  C   UNL     1     -35.187  22.356   3.946  0.00  0.00    +0.000 C 
ATOM     28  C   UNL     1     -35.518  22.163   6.418  0.00  0.00    +0.000 C 
ENDBRANCH  25  26
ENDBRANCH   1  25
TORSDOF 6
ENDMDL
MODEL 3
REMARK VINA RESULT:      -5.8      5.731      7.939
REMARK  Name = 191115
REMARK  6 active torsions:
REMARK  status: ('A' for Active; 'I' for Inactive)
REMARK    1  A    between atoms: C_1  and  C_8
REMARK    2  A    between atoms: C_1  and  N_15
REMARK    3  A    between atoms: C_1  and  C_25
REMARK    4  A    between atoms: C_4  and  C_11
REMARK    5  A    between atoms: C_16  and  C_20
REMARK    6  A    between atoms: C_25  and  C_26
REMARK                            x       y       z     vdW  Elec       q    Type
REMARK                         _______ _______ _______ _____ _____    ______ ____
ROOT
ATOM      1  C   UNL     1     -32.686  28.201   4.159  0.00  0.00    +0.149 C 
ENDROOT
BRANCH   1   8
ATOM      2  O   UNL     1     -32.131  28.738   6.411  0.00  0.00    -0.273 OA
ATOM      3  N   UNL     1     -30.378  28.290   4.969  0.00  0.00    -0.272 N 
ATOM      4  C   UNL     1     -29.322  28.320   5.974  0.00  0.00    +0.152 C 
ATOM      5  C   UNL     1     -28.119  27.680   5.292  0.00  0.00    +0.031 C 
ATOM      6  C   UNL     1     -29.844  27.931   3.657  0.00  0.00    +0.094 C 
ATOM      7  C   UNL     1     -28.334  28.005   3.816  0.00  0.00    +0.024 C 
ATOM      8  C   UNL     1     -31.718  28.433   5.292  0.00  0.00    +0.244 C 
BRANCH   4  11
ATOM      9  O   UNL     1     -29.514  30.676   5.620  0.00  0.00    -0.274 OA
ATOM     10  N   UNL     1     -28.299  29.941   7.431  0.00  0.00    -0.327 N 
ATOM     11  C   UNL     1     -29.073  29.759   6.309  0.00  0.00    +0.237 C 
ATOM     12  H   UNL     1     -28.078  30.852   7.735  0.00  0.00    +0.145 HD
ATOM     13  H   UNL     1     -27.967  29.162   7.931  0.00  0.00    +0.145 HD
ENDBRANCH   4  11
ENDBRANCH   1   8
BRANCH   1  15
ATOM     14  O   UNL     1     -33.210  25.348   4.281  0.00  0.00    -0.273 OA
ATOM     15  N   UNL     1     -33.792  27.545   4.793  0.00  0.00    -0.297 N 
ATOM     16  C   UNL     1     -33.964  26.164   4.804  0.00  0.00    +0.241 C 
ATOM     17  H   UNL     1     -34.465  28.101   5.248  0.00  0.00    +0.150 HD
BRANCH  16  20
ATOM     18  O   UNL     1     -37.989  25.847   3.406  0.00  0.00    -0.275 OA
ATOM     19  N   UNL     1     -36.301  26.396   4.933  0.00  0.00    -0.298 N 
ATOM     20  C   UNL     1     -35.185  25.742   5.556  0.00  0.00    +0.149 C 
ATOM     21  C   UNL     1     -35.494  24.266   5.393  0.00  0.00    +0.039 C 
ATOM     22  C   UNL     1     -36.363  24.197   4.138  0.00  0.00    +0.087 C 
ATOM     23  C   UNL     1     -37.022  25.555   4.092  0.00  0.00    +0.223 C 
ATOM     24  H   UNL     1     -36.532  27.340   5.084  0.00  0.00    +0.150 HD
ENDBRANCH  16  20
ENDBRANCH   1  15
BRANCH   1  25
ATOM     25  C   UNL     1     -33.064  29.526   3.508  0.00  0.00    +0.029 C 
BRANCH  25  26
ATOM     26  C   UNL     1     -34.433  29.513   2.799  0.00  0.00    +0.002 C 
ATOM     27  C   UNL     1     -35.187  30.810   3.105  0.00  0.00    +0.000 C 
ATOM     28  C   UNL     1     -34.303  29.339   1.285  0.00  0.00    +0.000 C 
ENDBRANCH  25  26
ENDBRANCH   1  25
TORSDOF 6
ENDMDL
MODEL 4
REMARK VINA RESULT:      -5.7      1.637      5.933
REMARK  Name = 191115
REMARK  6 active torsions:
REMARK  status: ('A' for Active; 'I' for Inactive)
REMARK    1  A    between atoms: C_1  and  C_8
REMARK    2  A    between atoms: C_1  and  N_15
REMARK    3  A    between atoms: C_1  and  C_25
REMARK    4  A    between atoms: C_4  and  C_11
REMARK    5  A    between atoms: C_16  and  C_20
REMARK    6  A    between atoms: C_25  and  C_26
REMARK                            x       y       z     vdW  Elec       q    Type
REMARK                         _______ _______ _______ _____ _____    ______ ____
ROOT
ATOM      1  C   UNL     1     -35.638  23.429   3.094  0.00  0.00    +0.149 C 
ENDROOT
BRANCH   1   8
ATOM      2  O   UNL     1     -35.891  25.477   1.906  0.00  0.00    -0.273 OA
ATOM      3  N   UNL     1     -37.759  24.124   2.089  0.00  0.00    -0.272 N 
ATOM      4  C   UNL     1     -38.620  24.909   1.214  0.00  0.00    +0.152 C 
ATOM      5  C   UNL     1     -39.795  23.991   0.899  0.00  0.00    +0.031 C 
ATOM      6  C   UNL     1     -38.436  22.912   2.544  0.00  0.00    +0.094 C 
ATOM      7  C   UNL     1     -39.889  23.100   2.136  0.00  0.00    +0.024 C 
ATOM      8  C   UNL     1     -36.427  24.443   2.305  0.00  0.00    +0.244 C 
BRANCH   4  11
ATOM      9  O   UNL     1     -39.770  26.986   1.497  0.00  0.00    -0.274 OA
ATOM     10  N   UNL     1     -38.552  26.165   3.267  0.00  0.00    -0.327 N 
ATOM     11  C   UNL     1     -39.051  26.119   1.987  0.00  0.00    +0.237 C 
ATOM     12  H   UNL     1     -38.776  26.921   3.857  0.00  0.00    +0.145 HD
ATOM     13  H   UNL     1     -37.969  25.442   3.595  0.00  0.00    +0.145 HD
ENDBRANCH   4  11
ENDBRANCH   1   8
BRANCH   1  15
ATOM     14  O   UNL     1     -35.466  20.539   3.287  0.00  0.00    -0.273 OA
ATOM     15  N   UNL     1     -35.170  22.516   2.093  0.00  0.00    -0.297 N 
ATOM     16  C   UNL     1     -35.123  21.137   2.271  0.00  0.00    +0.241 C 
ATOM     17  H   UNL     1     -34.867  22.885   1.231  0.00  0.00    +0.150 HD
BRANCH  16  20
ATOM     18  O   UNL     1     -37.031  18.059   0.006  0.00  0.00    -0.275 OA
ATOM     19  N   UNL     1     -35.234  19.120   1.068  0.00  0.00    -0.298 N 
ATOM     20  C   UNL     1     -34.619  20.417   1.062  0.00  0.00    +0.149 C 
ATOM     21  C   UNL     1     -35.099  21.039  -0.235  0.00  0.00    +0.039 C 
ATOM     22  C   UNL     1     -36.439  20.358  -0.508  0.00  0.00    +0.087 C 
ATOM     23  C   UNL     1     -36.302  19.022   0.182  0.00  0.00    +0.223 C 
ATOM     24  H   UNL     1     -34.933  18.377   1.639  0.00  0.00    +0.150 HD
ENDBRANCH  16  20
ENDBRANCH   1  15
BRANCH   1  25
ATOM     25  C   UNL     1     -34.511  24.117   3.857  0.00  0.00    +0.029 C 
BRANCH  25  26
ATOM     26  C   UNL     1     -34.746  24.216   5.377  0.00  0.00    +0.002 C 
ATOM     27  C   UNL     1     -35.631  25.428   5.685  0.00  0.00    +0.000 C 
ATOM     28  C   UNL     1     -35.385  22.952   5.953  0.00  0.00    +0.000 C 
ENDBRANCH  25  26
ENDBRANCH   1  25
TORSDOF 6
ENDMDL
MODEL 5
REMARK VINA RESULT:      -5.7      2.617      7.332
REMARK  Name = 191115
REMARK  6 active torsions:
REMARK  status: ('A' for Active; 'I' for Inactive)
REMARK    1  A    between atoms: C_1  and  C_8
REMARK    2  A    between atoms: C_1  and  N_15
REMARK    3  A    between atoms: C_1  and  C_25
REMARK    4  A    between atoms: C_4  and  C_11
REMARK    5  A    between atoms: C_16  and  C_20
REMARK    6  A    between atoms: C_25  and  C_26
REMARK                            x       y       z     vdW  Elec       q    Type
REMARK                         _______ _______ _______ _____ _____    ______ ____
ROOT
ATOM      1  C   UNL     1     -35.847  20.602   1.518  0.00  0.00    +0.149 C 
ENDROOT
BRANCH   1   8
ATOM      2  O   UNL     1     -35.290  20.636   3.833  0.00  0.00    -0.273 OA
ATOM      3  N   UNL     1     -35.395  22.674   2.741  0.00  0.00    -0.272 N 
ATOM      4  C   UNL     1     -34.898  23.482   3.847  0.00  0.00    +0.152 C 
ATOM      5  C   UNL     1     -34.538  24.822   3.217  0.00  0.00    +0.031 C 
ATOM      6  C   UNL     1     -35.614  23.491   1.549  0.00  0.00    +0.094 C 
ATOM      7  C   UNL     1     -35.497  24.927   2.034  0.00  0.00    +0.024 C 
ATOM      8  C   UNL     1     -35.481  21.292   2.808  0.00  0.00    +0.244 C 
BRANCH   4  11
ATOM      9  O   UNL     1     -36.964  24.378   4.652  0.00  0.00    -0.274 OA
ATOM     10  N   UNL     1     -35.870  22.825   5.950  0.00  0.00    -0.327 N 
ATOM     11  C   UNL     1     -36.019  23.615   4.835  0.00  0.00    +0.237 C 
ATOM     12  H   UNL     1     -36.554  22.840   6.659  0.00  0.00    +0.145 HD
ATOM     13  H   UNL     1     -35.081  22.244   6.040  0.00  0.00    +0.145 HD
ENDBRANCH   4  11
ENDBRANCH   1   8
BRANCH   1  15
ATOM     14  O   UNL     1     -35.117  19.064  -0.833  0.00  0.00    -0.273 OA
ATOM     15  N   UNL     1     -34.914  19.516   1.443  0.00  0.00    -0.297 N 
ATOM     16  C   UNL     1     -34.622  18.832   0.267  0.00  0.00    +0.241 C 
ATOM     17  H   UNL     1     -34.453  19.240   2.268  0.00  0.00    +0.150 HD
BRANCH  16  20
ATOM     18  O   UNL     1     -30.896  18.302  -1.754  0.00  0.00    -0.275 OA
ATOM     19  N   UNL     1     -32.916  17.610  -0.793  0.00  0.00    -0.298 N 
ATOM     20  C   UNL     1     -33.597  17.762   0.462  0.00  0.00    +0.149 C 
ATOM     21  C   UNL     1     -32.497  18.170   1.423  0.00  0.00    +0.039 C 
ATOM     22  C   UNL     1     -31.461  18.866   0.540  0.00  0.00    +0.087 C 
ATOM     23  C   UNL     1     -31.672  18.233  -0.814  0.00  0.00    +0.223 C 
ATOM     24  H   UNL     1     -33.288  17.116  -1.558  0.00  0.00    +0.150 HD
ENDBRANCH  16  20
ENDBRANCH   1  15
BRANCH   1  25
ATOM     25  C   UNL     1     -37.301  20.145   1.558  0.00  0.00    +0.029 C 
BRANCH  25  26
ATOM     26  C   UNL     1     -38.289  21.128   0.898  0.00  0.00    +0.002 C 
ATOM     27  C   UNL     1     -39.027  20.428  -0.248  0.00  0.00    +0.000 C 
ATOM     28  C   UNL     1     -39.302  21.693   1.894  0.00  0.00    +0.000 C 
ENDBRANCH  25  26
ENDBRANCH   1  25
TORSDOF 6
ENDMDL
MODEL 6
REMARK VINA RESULT:      -5.6      3.169      4.846
REMARK  Name = 191115
REMARK  6 active torsions:
REMARK  status: ('A' for Active; 'I' for Inactive)
REMARK    1  A    between atoms: C_1  and  C_8
REMARK    2  A    between atoms: C_1  and  N_15
REMARK    3  A    between atoms: C_1  and  C_25
REMARK    4  A    between atoms: C_4  and  C_11
REMARK    5  A    between atoms: C_16  and  C_20
REMARK    6  A    between atoms: C_25  and  C_26
REMARK                            x       y       z     vdW  Elec       q    Type
REMARK                         _______ _______ _______ _____ _____    ______ ____
ROOT
ATOM      1  C   UNL     1     -36.348  24.198   3.211  0.00  0.00    +0.149 C 
ENDROOT
BRANCH   1   8
ATOM      2  O   UNL     1     -38.718  24.007   3.338  0.00  0.00    -0.273 OA
ATOM      3  N   UNL     1     -37.686  23.133   1.460  0.00  0.00    -0.272 N 
ATOM      4  C   UNL     1     -38.908  22.807   0.735  0.00  0.00    +0.152 C 
ATOM      5  C   UNL     1     -38.454  22.554  -0.697  0.00  0.00    +0.031 C 
ATOM      6  C   UNL     1     -36.503  22.843   0.653  0.00  0.00    +0.094 C 
ATOM      7  C   UNL     1     -37.024  22.044  -0.531  0.00  0.00    +0.024 C 
ATOM      8  C   UNL     1     -37.698  23.780   2.686  0.00  0.00    +0.244 C 
BRANCH   4  11
ATOM      9  O   UNL     1     -40.579  21.127   1.051  0.00  0.00    -0.274 OA
ATOM     10  N   UNL     1     -38.665  21.011   2.321  0.00  0.00    -0.327 N 
ATOM     11  C   UNL     1     -39.478  21.571   1.365  0.00  0.00    +0.237 C 
ATOM     12  H   UNL     1     -38.949  20.196   2.794  0.00  0.00    +0.145 HD
ATOM     13  H   UNL     1     -37.797  21.426   2.534  0.00  0.00    +0.145 HD
ENDBRANCH   4  11
ENDBRANCH   1   8
BRANCH   1  15
ATOM     14  O   UNL     1     -34.664  25.696   1.382  0.00  0.00    -0.273 OA
ATOM     15  N   UNL     1     -36.333  25.617   3.004  0.00  0.00    -0.297 N 
ATOM     16  C   UNL     1     -35.489  26.254   2.101  0.00  0.00    +0.241 C 
ATOM     17  H   UNL     1     -36.956  26.170   3.529  0.00  0.00    +0.150 HD
BRANCH  16  20
ATOM     18  O   UNL     1     -33.273  29.315   4.094  0.00  0.00    -0.275 OA
ATOM     19  N   UNL     1     -35.205  28.251   3.309  0.00  0.00    -0.298 N 
ATOM     20  C   UNL     1     -35.696  27.734   2.063  0.00  0.00    +0.149 C 
ATOM     21  C   UNL     1     -34.834  28.422   1.022  0.00  0.00    +0.039 C 
ATOM     22  C   UNL     1     -33.526  28.722   1.752  0.00  0.00    +0.087 C 
ATOM     23  C   UNL     1     -33.947  28.833   3.197  0.00  0.00    +0.223 C 
ATOM     24  H   UNL     1     -35.707  28.200   4.154  0.00  0.00    +0.150 HD
ENDBRANCH  16  20
ENDBRANCH   1  15
BRANCH   1  25
ATOM     25  C   UNL     1     -36.205  23.801   4.676  0.00  0.00    +0.029 C 
BRANCH  25  26
ATOM     26  C   UNL     1     -35.202  22.658   4.925  0.00  0.00    +0.002 C 
ATOM     27  C   UNL     1     -35.342  22.152   6.364  0.00  0.00    +0.000 C 
ATOM     28  C   UNL     1     -35.389  21.494   3.950  0.00  0.00    +0.000 C 
ENDBRANCH  25  26
ENDBRANCH   1  25
TORSDOF 6
ENDMDL
MODEL 7
REMARK VINA RESULT:      -5.6      3.084      4.955
REMARK  Name = 191115
REMARK  6 active torsions:
REMARK  status: ('A' for Active; 'I' for Inactive)
REMARK    1  A    between atoms: C_1  and  C_8
REMARK    2  A    between atoms: C_1  and  N_15
REMARK    3  A    between atoms: C_1  and  C_25
REMARK    4  A    between atoms: C_4  and  C_11
REMARK    5  A    between atoms: C_16  and  C_20
REMARK    6  A    between atoms: C_25  and  C_26
REMARK                            x       y       z     vdW  Elec       q    Type
REMARK                         _______ _______ _______ _____ _____    ______ ____
ROOT
ATOM      1  C   UNL     1     -34.937  20.816   1.283  0.00  0.00    +0.149 C 
ENDROOT
BRANCH   1   8
ATOM      2  O   UNL     1     -36.802  19.436   0.748  0.00  0.00    -0.273 OA
ATOM      3  N   UNL     1     -36.076  20.909  -0.882  0.00  0.00    -0.272 N 
ATOM      4  C   UNL     1     -37.160  20.663  -1.825  0.00  0.00    +0.152 C 
ATOM      5  C   UNL     1     -37.075  21.812  -2.822  0.00  0.00    +0.031 C 
ATOM      6  C   UNL     1     -35.181  21.955  -1.371  0.00  0.00    +0.094 C 
ATOM      7  C   UNL     1     -35.592  22.176  -2.818  0.00  0.00    +0.024 C 
ATOM      8  C   UNL     1     -36.030  20.317   0.371  0.00  0.00    +0.244 C 
BRANCH   4  11
ATOM      9  O   UNL     1     -36.019  19.200  -3.333  0.00  0.00    -0.274 OA
ATOM     10  N   UNL     1     -37.707  18.328  -2.036  0.00  0.00    -0.327 N 
ATOM     11  C   UNL     1     -36.888  19.340  -2.475  0.00  0.00    +0.237 C 
ATOM     12  H   UNL     1     -37.608  17.419  -2.402  0.00  0.00    +0.145 HD
ATOM     13  H   UNL     1     -38.393  18.510  -1.354  0.00  0.00    +0.145 HD
ENDBRANCH   4  11
ENDBRANCH   1   8
BRANCH   1  15
ATOM     14  O   UNL     1     -34.833  23.647   1.912  0.00  0.00    -0.273 OA
ATOM     15  N   UNL     1     -35.653  21.505   2.317  0.00  0.00    -0.297 N 
ATOM     16  C   UNL     1     -35.543  22.872   2.548  0.00  0.00    +0.241 C 
ATOM     17  H   UNL     1     -36.256  20.982   2.893  0.00  0.00    +0.150 HD
BRANCH  16  20
ATOM     18  O   UNL     1     -35.192  22.059   6.727  0.00  0.00    -0.275 OA
ATOM     19  N   UNL     1     -36.329  22.346   4.700  0.00  0.00    -0.298 N 
ATOM     20  C   UNL     1     -36.415  23.339   3.668  0.00  0.00    +0.149 C 
ATOM     21  C   UNL     1     -35.894  24.598   4.333  0.00  0.00    +0.039 C 
ATOM     22  C   UNL     1     -34.944  24.089   5.416  0.00  0.00    +0.087 C 
ATOM     23  C   UNL     1     -35.485  22.718   5.742  0.00  0.00    +0.223 C 
ATOM     24  H   UNL     1     -36.816  21.491   4.675  0.00  0.00    +0.150 HD
ENDBRANCH  16  20
ENDBRANCH   1  15
BRANCH   1  25
ATOM     25  C   UNL     1     -34.108  19.646   1.801  0.00  0.00    +0.029 C 
BRANCH  25  26
ATOM     26  C   UNL     1     -33.090  19.094   0.784  0.00  0.00    +0.002 C 
ATOM     27  C   UNL     1     -32.233  20.240   0.236  0.00  0.00    +0.000 C 
ATOM     28  C   UNL     1     -32.186  18.018   1.387  0.00  0.00    +0.000 C 
ENDBRANCH  25  26
ENDBRANCH   1  25
TORSDOF 6
ENDMDL
MODEL 8
REMARK VINA RESULT:      -5.5      2.504      4.848
REMARK  Name = 191115
REMARK  6 active torsions:
REMARK  status: ('A' for Active; 'I' for Inactive)
REMARK    1  A    between atoms: C_1  and  C_8
REMARK    2  A    between atoms: C_1  and  N_15
REMARK    3  A    between atoms: C_1  and  C_25
REMARK    4  A    between atoms: C_4  and  C_11
REMARK    5  A    between atoms: C_16  and  C_20
REMARK    6  A    between atoms: C_25  and  C_26
REMARK                            x       y       z     vdW  Elec       q    Type
REMARK                         _______ _______ _______ _____ _____    ______ ____
ROOT
ATOM      1  C   UNL     1     -35.754  22.294   1.367  0.00  0.00    +0.149 C 
ENDROOT
BRANCH   1   8
ATOM      2  O   UNL     1     -35.711  24.670   1.221  0.00  0.00    -0.273 OA
ATOM      3  N   UNL     1     -35.535  23.737   3.332  0.00  0.00    -0.272 N 
ATOM      4  C   UNL     1     -35.601  24.989   4.074  0.00  0.00    +0.152 C 
ATOM      5  C   UNL     1     -35.875  24.572   5.514  0.00  0.00    +0.031 C 
ATOM      6  C   UNL     1     -35.481  22.591   4.237  0.00  0.00    +0.094 C 
ATOM      7  C   UNL     1     -35.232  23.191   5.611  0.00  0.00    +0.024 C 
ATOM      8  C   UNL     1     -35.670  23.680   1.953  0.00  0.00    +0.244 C 
BRANCH   4  11
ATOM      9  O   UNL     1     -33.256  25.221   4.476  0.00  0.00    -0.274 OA
ATOM     10  N   UNL     1     -34.297  26.795   3.161  0.00  0.00    -0.327 N 
ATOM     11  C   UNL     1     -34.267  25.658   3.932  0.00  0.00    +0.237 C 
ATOM     12  H   UNL     1     -33.470  27.308   3.006  0.00  0.00    +0.145 HD
ATOM     13  H   UNL     1     -35.145  27.098   2.762  0.00  0.00    +0.145 HD
ENDBRANCH   4  11
ENDBRANCH   1   8
BRANCH   1  15
ATOM     14  O   UNL     1     -38.461  21.628   2.174  0.00  0.00    -0.273 OA
ATOM     15  N   UNL     1     -36.940  22.342   0.562  0.00  0.00    -0.297 N 
ATOM     16  C   UNL     1     -38.204  22.005   1.034  0.00  0.00    +0.241 C 
ATOM     17  H   UNL     1     -36.854  22.632  -0.375  0.00  0.00    +0.150 HD
BRANCH  16  20
ATOM     18  O   UNL     1     -41.797  24.307   1.232  0.00  0.00    -0.275 OA
ATOM     19  N   UNL     1     -40.491  22.438   0.700  0.00  0.00    -0.298 N 
ATOM     20  C   UNL     1     -39.268  22.168  -0.003  0.00  0.00    +0.149 C 
ATOM     21  C   UNL     1     -39.066  23.400  -0.864  0.00  0.00    +0.039 C 
ATOM     22  C   UNL     1     -39.776  24.517  -0.099  0.00  0.00    +0.087 C 
ATOM     23  C   UNL     1     -40.838  23.785   0.686  0.00  0.00    +0.223 C 
ATOM     24  H   UNL     1     -41.028  21.744   1.144  0.00  0.00    +0.150 HD
ENDBRANCH  16  20
ENDBRANCH   1  15
BRANCH   1  25
ATOM     25  C   UNL     1     -34.495  21.982   0.566  0.00  0.00    +0.029 C 
BRANCH  25  26
ATOM     26  C   UNL     1     -34.103  20.491   0.560  0.00  0.00    +0.002 C 
ATOM     27  C   UNL     1     -32.603  20.351   0.286  0.00  0.00    +0.000 C 
ATOM     28  C   UNL     1     -34.454  19.790   1.873  0.00  0.00    +0.000 C 
ENDBRANCH  25  26
ENDBRANCH   1  25
TORSDOF 6
ENDMDL
MODEL 9
REMARK VINA RESULT:      -5.5      3.380      6.316
REMARK  Name = 191115
REMARK  6 active torsions:
REMARK  status: ('A' for Active; 'I' for Inactive)
REMARK    1  A    between atoms: C_1  and  C_8
REMARK    2  A    between atoms: C_1  and  N_15
REMARK    3  A    between atoms: C_1  and  C_25
REMARK    4  A    between atoms: C_4  and  C_11
REMARK    5  A    between atoms: C_16  and  C_20
REMARK    6  A    between atoms: C_25  and  C_26
REMARK                            x       y       z     vdW  Elec       q    Type
REMARK                         _______ _______ _______ _____ _____    ______ ____
ROOT
ATOM      1  C   UNL     1     -34.565  24.835   3.877  0.00  0.00    +0.149 C 
ENDROOT
BRANCH   1   8
ATOM      2  O   UNL     1     -36.298  26.116   4.887  0.00  0.00    -0.273 OA
ATOM      3  N   UNL     1     -36.635  25.416   2.708  0.00  0.00    -0.272 N 
ATOM      4  C   UNL     1     -37.875  26.150   2.486  0.00  0.00    +0.152 C 
ATOM      5  C   UNL     1     -38.078  26.121   0.976  0.00  0.00    +0.031 C 
ATOM      6  C   UNL     1     -36.212  24.721   1.494  0.00  0.00    +0.094 C 
ATOM      7  C   UNL     1     -37.401  24.820   0.552  0.00  0.00    +0.024 C 
ATOM      8  C   UNL     1     -35.907  25.521   3.882  0.00  0.00    +0.244 C 
BRANCH   4  11
ATOM      9  O   UNL     1     -38.824  24.249   3.581  0.00  0.00    -0.274 OA
ATOM     10  N   UNL     1     -40.108  26.148   3.387  0.00  0.00    -0.327 N 
ATOM     11  C   UNL     1     -38.961  25.411   3.208  0.00  0.00    +0.237 C 
ATOM     12  H   UNL     1     -40.881  25.752   3.852  0.00  0.00    +0.145 HD
ATOM     13  H   UNL     1     -40.156  27.072   3.052  0.00  0.00    +0.145 HD
ENDBRANCH   4  11
ENDBRANCH   1   8
BRANCH   1  15
ATOM     14  O   UNL     1     -32.846  25.786   1.739  0.00  0.00    -0.273 OA
ATOM     15  N   UNL     1     -33.632  25.923   3.927  0.00  0.00    -0.297 N 
ATOM     16  C   UNL     1     -32.845  26.313   2.848  0.00  0.00    +0.241 C 
ATOM     17  H   UNL     1     -33.546  26.423   4.771  0.00  0.00    +0.150 HD
BRANCH  16  20
ATOM     18  O   UNL     1     -32.734  30.132   0.937  0.00  0.00    -0.275 OA
ATOM     19  N   UNL     1     -31.820  28.223   1.937  0.00  0.00    -0.298 N 
ATOM     20  C   UNL     1     -31.980  27.491   3.161  0.00  0.00    +0.149 C 
ATOM     21  C   UNL     1     -32.652  28.483   4.090  0.00  0.00    +0.039 C 
ATOM     22  C   UNL     1     -33.418  29.418   3.155  0.00  0.00    +0.087 C 
ATOM     23  C   UNL     1     -32.632  29.350   1.869  0.00  0.00    +0.223 C 
ATOM     24  H   UNL     1     -31.200  27.955   1.221  0.00  0.00    +0.150 HD
ENDBRANCH  16  20
ENDBRANCH   1  15
BRANCH   1  25
ATOM     25  C   UNL     1     -34.451  23.889   5.066  0.00  0.00    +0.029 C 
BRANCH  25  26
ATOM     26  C   UNL     1     -35.564  22.824   5.135  0.00  0.00    +0.002 C 
ATOM     27  C   UNL     1     -35.502  21.931   3.892  0.00  0.00    +0.000 C 
ATOM     28  C   UNL     1     -35.471  21.962   6.394  0.00  0.00    +0.000 C 
ENDBRANCH  25  26
ENDBRANCH   1  25
TORSDOF 6
ENDMDL
