MODEL 1
REMARK VINA RESULT:      -5.6      0.000      0.000
REMARK  Name = 192501
REMARK  4 active torsions:
REMARK  status: ('A' for Active; 'I' for Inactive)
REMARK    1  A    between atoms: C_4  and  N_10
REMARK    2  A    between atoms: C_7  and  S_18
REMARK    3  A    between atoms: C_11  and  C_17
REMARK    4  A    between atoms: S_18  and  N_21
REMARK                            x       y       z     vdW  Elec       q    Type
REMARK                         _______ _______ _______ _____ _____    ______ ____
ROOT
ATOM      1  O   UNL     1     -36.268  24.218   5.542  0.00  0.00    -0.241 OA
ATOM      2  N   UNL     1     -36.429  23.387   4.446  0.00  0.00    -0.047 NA
ATOM      3  N   UNL     1     -35.410  25.270   5.270  0.00  0.00    -0.047 NA
ATOM      4  C   UNL     1     -35.488  23.433   2.141  0.00  0.00    +0.071 C 
ATOM      5  C   UNL     1     -35.672  23.912   3.475  0.00  0.00    +0.158 A 
ATOM      6  C   UNL     1     -34.601  24.265   1.396  0.00  0.00    +0.018 C 
ATOM      7  C   UNL     1     -34.157  25.897   3.220  0.00  0.00    +0.145 C 
ATOM      8  C   UNL     1     -35.025  25.109   3.998  0.00  0.00    +0.163 A 
ATOM      9  C   UNL     1     -33.971  25.431   1.906  0.00  0.00    +0.023 C 
ENDROOT
BRANCH   4  10
ATOM     10  N   UNL     1     -36.080  22.305   1.607  0.00  0.00    -0.301 N 
ATOM     11  C   UNL     1     -35.351  21.164   1.050  0.00  0.00    +0.147 C 
ATOM     12  C   UNL     1     -36.396  20.434   0.204  0.00  0.00    +0.030 C 
ATOM     13  C   UNL     1     -37.521  22.185   1.380  0.00  0.00    +0.091 C 
ATOM     14  C   UNL     1     -37.709  20.747   0.907  0.00  0.00    +0.024 C 
BRANCH  11  17
ATOM     15 CL   UNL     1     -33.677  19.141   1.618  0.00  0.00    -0.041 Cl
ATOM     16  O   UNL     1     -35.303  20.389   3.304  0.00  0.00    -0.277 OA
ATOM     17  C   UNL     1     -34.871  20.281   2.160  0.00  0.00    +0.248 C 
ENDBRANCH  11  17
ENDBRANCH   4  10
BRANCH   7  18
ATOM     18  S   UNL     1     -33.353  27.335   3.781  0.00  0.00    +0.065 S 
ATOM     19  O   UNL     1     -34.345  28.399   3.906  0.00  0.00    -0.153 OA
ATOM     20  O   UNL     1     -32.559  26.990   4.958  0.00  0.00    -0.153 OA
BRANCH  18  21
ATOM     21  N   UNL     1     -32.276  27.732   2.483  0.00  0.00    -0.153 NA
ATOM     22  C   UNL     1     -32.459  29.047   1.819  0.00  0.00    +0.115 C 
ATOM     23  C   UNL     1     -30.842  27.389   2.656  0.00  0.00    +0.115 C 
ENDBRANCH  18  21
ENDBRANCH   7  18
TORSDOF 4
ENDMDL
MODEL 2
REMARK VINA RESULT:      -5.5      4.162      7.631
REMARK  Name = 192501
REMARK  4 active torsions:
REMARK  status: ('A' for Active; 'I' for Inactive)
REMARK    1  A    between atoms: C_4  and  N_10
REMARK    2  A    between atoms: C_7  and  S_18
REMARK    3  A    between atoms: C_11  and  C_17
REMARK    4  A    between atoms: S_18  and  N_21
REMARK                            x       y       z     vdW  Elec       q    Type
REMARK                         _______ _______ _______ _____ _____    ______ ____
ROOT
ATOM      1  O   UNL     1     -39.171  21.558   1.368  0.00  0.00    -0.241 OA
ATOM      2  N   UNL     1     -38.237  21.959   2.308  0.00  0.00    -0.047 NA
ATOM      3  N   UNL     1     -38.651  20.619   0.493  0.00  0.00    -0.047 NA
ATOM      4  C   UNL     1     -35.863  21.323   2.707  0.00  0.00    +0.071 C 
ATOM      5  C   UNL     1     -37.121  21.274   2.031  0.00  0.00    +0.158 A 
ATOM      6  C   UNL     1     -34.909  20.442   2.116  0.00  0.00    +0.018 C 
ATOM      7  C   UNL     1     -36.406  19.570   0.332  0.00  0.00    +0.145 C 
ATOM      8  C   UNL     1     -37.384  20.422   0.878  0.00  0.00    +0.163 A 
ATOM      9  C   UNL     1     -35.165  19.612   0.993  0.00  0.00    +0.023 C 
ENDROOT
BRANCH   4  10
ATOM     10  N   UNL     1     -35.571  22.115   3.800  0.00  0.00    -0.301 N 
ATOM     11  C   UNL     1     -35.197  23.527   3.732  0.00  0.00    +0.147 C 
ATOM     12  C   UNL     1     -34.549  23.806   5.090  0.00  0.00    +0.030 C 
ATOM     13  C   UNL     1     -35.441  21.589   5.161  0.00  0.00    +0.091 C 
ATOM     14  C   UNL     1     -35.246  22.830   6.026  0.00  0.00    +0.024 C 
BRANCH  11  17
ATOM     15 CL   UNL     1     -36.518  25.069   1.971  0.00  0.00    -0.041 Cl
ATOM     16  O   UNL     1     -37.239  24.515   4.464  0.00  0.00    -0.277 OA
ATOM     17  C   UNL     1     -36.424  24.368   3.558  0.00  0.00    +0.248 C 
ENDBRANCH  11  17
ENDBRANCH   4  10
BRANCH   7  18
ATOM     18  S   UNL     1     -36.653  18.528  -1.041  0.00  0.00    +0.065 S 
ATOM     19  O   UNL     1     -37.066  19.350  -2.175  0.00  0.00    -0.153 OA
ATOM     20  O   UNL     1     -35.472  17.682  -1.195  0.00  0.00    -0.153 OA
BRANCH  18  21
ATOM     21  N   UNL     1     -37.988  17.534  -0.562  0.00  0.00    -0.153 NA
ATOM     22  C   UNL     1     -39.190  17.533  -1.434  0.00  0.00    +0.115 C 
ATOM     23  C   UNL     1     -37.679  16.180  -0.038  0.00  0.00    +0.115 C 
ENDBRANCH  18  21
ENDBRANCH   7  18
TORSDOF 4
ENDMDL
MODEL 3
REMARK VINA RESULT:      -5.5      3.532      7.322
REMARK  Name = 192501
REMARK  4 active torsions:
REMARK  status: ('A' for Active; 'I' for Inactive)
REMARK    1  A    between atoms: C_4  and  N_10
REMARK    2  A    between atoms: C_7  and  S_18
REMARK    3  A    between atoms: C_11  and  C_17
REMARK    4  A    between atoms: S_18  and  N_21
REMARK                            x       y       z     vdW  Elec       q    Type
REMARK                         _______ _______ _______ _____ _____    ______ ____
ROOT
ATOM      1  O   UNL     1     -33.549  25.315   1.304  0.00  0.00    -0.241 OA
ATOM      2  N   UNL     1     -33.074  26.356   2.083  0.00  0.00    -0.047 NA
ATOM      3  N   UNL     1     -34.303  24.420   2.044  0.00  0.00    -0.047 NA
ATOM      4  C   UNL     1     -33.318  26.903   4.500  0.00  0.00    +0.071 C 
ATOM      5  C   UNL     1     -33.527  26.123   3.321  0.00  0.00    +0.158 A 
ATOM      6  C   UNL     1     -33.963  26.330   5.636  0.00  0.00    +0.018 C 
ATOM      7  C   UNL     1     -34.926  24.369   4.447  0.00  0.00    +0.145 C 
ATOM      8  C   UNL     1     -34.309  24.893   3.296  0.00  0.00    +0.163 A 
ATOM      9  C   UNL     1     -34.725  25.132   5.611  0.00  0.00    +0.023 C 
ENDROOT
BRANCH   4  10
ATOM     10  N   UNL     1     -32.585  28.071   4.568  0.00  0.00    -0.301 N 
ATOM     11  C   UNL     1     -32.405  29.010   3.460  0.00  0.00    +0.147 C 
ATOM     12  C   UNL     1     -31.193  29.846   3.874  0.00  0.00    +0.030 C 
ATOM     13  C   UNL     1     -31.755  28.433   5.719  0.00  0.00    +0.091 C 
ATOM     14  C   UNL     1     -31.254  29.837   5.394  0.00  0.00    +0.024 C 
BRANCH  11  17
ATOM     15 CL   UNL     1     -33.203  31.549   3.089  0.00  0.00    -0.041 Cl
ATOM     16  O   UNL     1     -34.753  29.417   3.401  0.00  0.00    -0.277 OA
ATOM     17  C   UNL     1     -33.618  29.879   3.333  0.00  0.00    +0.248 C 
ENDBRANCH  11  17
ENDBRANCH   4  10
BRANCH   7  18
ATOM     18  S   UNL     1     -35.872  22.908   4.487  0.00  0.00    +0.065 S 
ATOM     19  O   UNL     1     -35.180  21.889   3.703  0.00  0.00    -0.153 OA
ATOM     20  O   UNL     1     -36.195  22.607   5.880  0.00  0.00    -0.153 OA
BRANCH  18  21
ATOM     21  N   UNL     1     -37.331  23.346   3.663  0.00  0.00    -0.153 NA
ATOM     22  C   UNL     1     -37.715  24.781   3.664  0.00  0.00    +0.115 C 
ATOM     23  C   UNL     1     -37.597  22.700   2.354  0.00  0.00    +0.115 C 
ENDBRANCH  18  21
ENDBRANCH   7  18
TORSDOF 4
ENDMDL
MODEL 4
REMARK VINA RESULT:      -5.5      2.469      3.255
REMARK  Name = 192501
REMARK  4 active torsions:
REMARK  status: ('A' for Active; 'I' for Inactive)
REMARK    1  A    between atoms: C_4  and  N_10
REMARK    2  A    between atoms: C_7  and  S_18
REMARK    3  A    between atoms: C_11  and  C_17
REMARK    4  A    between atoms: S_18  and  N_21
REMARK                            x       y       z     vdW  Elec       q    Type
REMARK                         _______ _______ _______ _____ _____    ______ ____
ROOT
ATOM      1  O   UNL     1     -33.935  26.616   6.454  0.00  0.00    -0.241 OA
ATOM      2  N   UNL     1     -34.914  26.044   5.659  0.00  0.00    -0.047 NA
ATOM      3  N   UNL     1     -32.927  27.190   5.698  0.00  0.00    -0.047 NA
ATOM      4  C   UNL     1     -35.192  25.863   3.191  0.00  0.00    +0.071 C 
ATOM      5  C   UNL     1     -34.529  26.256   4.394  0.00  0.00    +0.158 A 
ATOM      6  C   UNL     1     -34.469  26.271   2.030  0.00  0.00    +0.018 C 
ATOM      7  C   UNL     1     -32.593  27.363   3.243  0.00  0.00    +0.145 C 
ATOM      8  C   UNL     1     -33.266  26.985   4.418  0.00  0.00    +0.163 A 
ATOM      9  C   UNL     1     -33.240  26.981   2.054  0.00  0.00    +0.023 C 
ENDROOT
BRANCH   4  10
ATOM     10  N   UNL     1     -36.386  25.172   3.123  0.00  0.00    -0.301 N 
ATOM     11  C   UNL     1     -36.517  23.768   2.736  0.00  0.00    +0.147 C 
ATOM     12  C   UNL     1     -37.996  23.618   2.375  0.00  0.00    +0.030 C 
ATOM     13  C   UNL     1     -37.694  25.813   3.273  0.00  0.00    +0.091 C 
ATOM     14  C   UNL     1     -38.685  24.653   3.252  0.00  0.00    +0.024 C 
BRANCH  11  17
ATOM     15 CL   UNL     1     -35.469  21.382   3.392  0.00  0.00    -0.041 Cl
ATOM     16  O   UNL     1     -36.385  23.236   5.056  0.00  0.00    -0.277 OA
ATOM     17  C   UNL     1     -36.173  22.888   3.898  0.00  0.00    +0.248 C 
ENDBRANCH  11  17
ENDBRANCH   4  10
BRANCH   7  18
ATOM     18  S   UNL     1     -31.086  28.233   3.200  0.00  0.00    +0.065 S 
ATOM     19  O   UNL     1     -30.175  27.626   4.168  0.00  0.00    -0.153 OA
ATOM     20  O   UNL     1     -30.650  28.332   1.809  0.00  0.00    -0.153 OA
BRANCH  18  21
ATOM     21  N   UNL     1     -31.514  29.815   3.760  0.00  0.00    -0.153 NA
ATOM     22  C   UNL     1     -32.840  30.349   3.357  0.00  0.00    +0.115 C 
ATOM     23  C   UNL     1     -31.179  30.158   5.165  0.00  0.00    +0.115 C 
ENDBRANCH  18  21
ENDBRANCH   7  18
TORSDOF 4
ENDMDL
MODEL 5
REMARK VINA RESULT:      -5.5      3.385      7.248
REMARK  Name = 192501
REMARK  4 active torsions:
REMARK  status: ('A' for Active; 'I' for Inactive)
REMARK    1  A    between atoms: C_4  and  N_10
REMARK    2  A    between atoms: C_7  and  S_18
REMARK    3  A    between atoms: C_11  and  C_17
REMARK    4  A    between atoms: S_18  and  N_21
REMARK                            x       y       z     vdW  Elec       q    Type
REMARK                         _______ _______ _______ _____ _____    ______ ____
ROOT
ATOM      1  O   UNL     1     -33.542  25.589   1.329  0.00  0.00    -0.241 OA
ATOM      2  N   UNL     1     -33.076  26.640   2.102  0.00  0.00    -0.047 NA
ATOM      3  N   UNL     1     -34.249  24.668   2.084  0.00  0.00    -0.047 NA
ATOM      4  C   UNL     1     -33.272  27.167   4.527  0.00  0.00    +0.071 C 
ATOM      5  C   UNL     1     -33.489  26.387   3.350  0.00  0.00    +0.158 A 
ATOM      6  C   UNL     1     -33.870  26.570   5.677  0.00  0.00    +0.018 C 
ATOM      7  C   UNL     1     -34.807  24.588   4.502  0.00  0.00    +0.145 C 
ATOM      8  C   UNL     1     -34.236  25.135   3.339  0.00  0.00    +0.163 A 
ATOM      9  C   UNL     1     -34.597  25.350   5.665  0.00  0.00    +0.023 C 
ENDROOT
BRANCH   4  10
ATOM     10  N   UNL     1     -32.572  28.356   4.582  0.00  0.00    -0.301 N 
ATOM     11  C   UNL     1     -31.546  28.676   5.576  0.00  0.00    +0.147 C 
ATOM     12  C   UNL     1     -31.423  30.200   5.505  0.00  0.00    +0.030 C 
ATOM     13  C   UNL     1     -32.890  29.515   3.746  0.00  0.00    +0.091 C 
ATOM     14  C   UNL     1     -31.788  30.522   4.064  0.00  0.00    +0.024 C 
BRANCH  11  17
ATOM     15 CL   UNL     1     -29.136  27.957   6.522  0.00  0.00    -0.041 Cl
ATOM     16  O   UNL     1     -30.048  27.619   4.053  0.00  0.00    -0.277 OA
ATOM     17  C   UNL     1     -30.251  28.031   5.191  0.00  0.00    +0.248 C 
ENDBRANCH  11  17
ENDBRANCH   4  10
BRANCH   7  18
ATOM     18  S   UNL     1     -35.708  23.100   4.559  0.00  0.00    +0.065 S 
ATOM     19  O   UNL     1     -35.008  22.105   3.750  0.00  0.00    -0.153 OA
ATOM     20  O   UNL     1     -35.984  22.782   5.959  0.00  0.00    -0.153 OA
BRANCH  18  21
ATOM     21  N   UNL     1     -37.201  23.499   3.778  0.00  0.00    -0.153 NA
ATOM     22  C   UNL     1     -37.615  24.925   3.777  0.00  0.00    +0.115 C 
ATOM     23  C   UNL     1     -37.494  22.834   2.483  0.00  0.00    +0.115 C 
ENDBRANCH  18  21
ENDBRANCH   7  18
TORSDOF 4
ENDMDL
MODEL 6
REMARK VINA RESULT:      -5.4      4.711      6.589
REMARK  Name = 192501
REMARK  4 active torsions:
REMARK  status: ('A' for Active; 'I' for Inactive)
REMARK    1  A    between atoms: C_4  and  N_10
REMARK    2  A    between atoms: C_7  and  S_18
REMARK    3  A    between atoms: C_11  and  C_17
REMARK    4  A    between atoms: S_18  and  N_21
REMARK                            x       y       z     vdW  Elec       q    Type
REMARK                         _______ _______ _______ _____ _____    ______ ____
ROOT
ATOM      1  O   UNL     1     -36.831  27.775   1.457  0.00  0.00    -0.241 OA
ATOM      2  N   UNL     1     -36.443  26.774   2.332  0.00  0.00    -0.047 NA
ATOM      3  N   UNL     1     -38.172  27.678   1.125  0.00  0.00    -0.047 NA
ATOM      4  C   UNL     1     -37.675  24.886   3.390  0.00  0.00    +0.071 C 
ATOM      5  C   UNL     1     -37.539  26.039   2.557  0.00  0.00    +0.158 A 
ATOM      6  C   UNL     1     -39.007  24.375   3.375  0.00  0.00    +0.018 C 
ATOM      7  C   UNL     1     -39.936  26.070   1.811  0.00  0.00    +0.145 C 
ATOM      8  C   UNL     1     -38.638  26.614   1.790  0.00  0.00    +0.163 A 
ATOM      9  C   UNL     1     -40.077  24.935   2.629  0.00  0.00    +0.023 C 
ENDROOT
BRANCH   4  10
ATOM     10  N   UNL     1     -36.661  24.310   4.131  0.00  0.00    -0.301 N 
ATOM     11  C   UNL     1     -36.312  22.889   4.104  0.00  0.00    +0.147 C 
ATOM     12  C   UNL     1     -35.491  22.684   5.379  0.00  0.00    +0.030 C 
ATOM     13  C   UNL     1     -35.914  25.028   5.165  0.00  0.00    +0.091 C 
ATOM     14  C   UNL     1     -34.838  24.040   5.605  0.00  0.00    +0.024 C 
BRANCH  11  17
ATOM     15 CL   UNL     1     -35.312  20.889   2.615  0.00  0.00    -0.041 Cl
ATOM     16  O   UNL     1     -34.991  23.493   2.215  0.00  0.00    -0.277 OA
ATOM     17  C   UNL     1     -35.479  22.596   2.895  0.00  0.00    +0.248 C 
ENDBRANCH  11  17
ENDBRANCH   4  10
BRANCH   7  18
ATOM     18  S   UNL     1     -41.291  26.705   0.921  0.00  0.00    +0.065 S 
ATOM     19  O   UNL     1     -41.561  28.060   1.396  0.00  0.00    -0.153 OA
ATOM     20  O   UNL     1     -41.037  26.511  -0.505  0.00  0.00    -0.153 OA
BRANCH  18  21
ATOM     21  N   UNL     1     -42.604  25.680   1.395  0.00  0.00    -0.153 NA
ATOM     22  C   UNL     1     -43.677  26.281   2.228  0.00  0.00    +0.115 C 
ATOM     23  C   UNL     1     -43.147  24.750   0.374  0.00  0.00    +0.115 C 
ENDBRANCH  18  21
ENDBRANCH   7  18
TORSDOF 4
ENDMDL
MODEL 7
REMARK VINA RESULT:      -5.3      3.510      7.341
REMARK  Name = 192501
REMARK  4 active torsions:
REMARK  status: ('A' for Active; 'I' for Inactive)
REMARK    1  A    between atoms: C_4  and  N_10
REMARK    2  A    between atoms: C_7  and  S_18
REMARK    3  A    between atoms: C_11  and  C_17
REMARK    4  A    between atoms: S_18  and  N_21
REMARK                            x       y       z     vdW  Elec       q    Type
REMARK                         _______ _______ _______ _____ _____    ______ ____
ROOT
ATOM      1  O   UNL     1     -33.671  26.552   6.564  0.00  0.00    -0.241 OA
ATOM      2  N   UNL     1     -32.957  27.349   5.685  0.00  0.00    -0.047 NA
ATOM      3  N   UNL     1     -34.564  25.726   5.902  0.00  0.00    -0.047 NA
ATOM      4  C   UNL     1     -32.980  27.566   3.205  0.00  0.00    +0.071 C 
ATOM      5  C   UNL     1     -33.397  27.029   4.462  0.00  0.00    +0.158 A 
ATOM      6  C   UNL     1     -33.682  26.970   2.115  0.00  0.00    +0.018 C 
ATOM      7  C   UNL     1     -35.080  25.441   3.490  0.00  0.00    +0.145 C 
ATOM      8  C   UNL     1     -34.417  25.997   4.599  0.00  0.00    +0.163 A 
ATOM      9  C   UNL     1     -34.675  25.965   2.249  0.00  0.00    +0.023 C 
ENDROOT
BRANCH   4  10
ATOM     10  N   UNL     1     -32.019  28.543   3.030  0.00  0.00    -0.301 N 
ATOM     11  C   UNL     1     -32.255  29.841   2.398  0.00  0.00    +0.147 C 
ATOM     12  C   UNL     1     -30.853  30.338   2.036  0.00  0.00    +0.030 C 
ATOM     13  C   UNL     1     -30.598  28.331   3.311  0.00  0.00    +0.091 C 
ATOM     14  C   UNL     1     -29.964  29.702   3.095  0.00  0.00    +0.024 C 
BRANCH  11  17
ATOM     15 CL   UNL     1     -33.457  32.234   2.623  0.00  0.00    -0.041 Cl
ATOM     16  O   UNL     1     -32.998  30.488   4.569  0.00  0.00    -0.277 OA
ATOM     17  C   UNL     1     -32.900  30.771   3.378  0.00  0.00    +0.248 C 
ENDBRANCH  11  17
ENDBRANCH   4  10
BRANCH   7  18
ATOM     18  S   UNL     1     -36.306  24.209   3.583  0.00  0.00    +0.065 S 
ATOM     19  O   UNL     1     -37.237  24.563   4.650  0.00  0.00    -0.153 OA
ATOM     20  O   UNL     1     -36.843  23.991   2.241  0.00  0.00    -0.153 OA
BRANCH  18  21
ATOM     21  N   UNL     1     -35.426  22.796   4.062  0.00  0.00    -0.153 NA
ATOM     22  C   UNL     1     -35.447  22.431   5.502  0.00  0.00    +0.115 C 
ATOM     23  C   UNL     1     -35.516  21.603   3.184  0.00  0.00    +0.115 C 
ENDBRANCH  18  21
ENDBRANCH   7  18
TORSDOF 4
ENDMDL
MODEL 8
REMARK VINA RESULT:      -5.3      4.964      6.457
REMARK  Name = 192501
REMARK  4 active torsions:
REMARK  status: ('A' for Active; 'I' for Inactive)
REMARK    1  A    between atoms: C_4  and  N_10
REMARK    2  A    between atoms: C_7  and  S_18
REMARK    3  A    between atoms: C_11  and  C_17
REMARK    4  A    between atoms: S_18  and  N_21
REMARK                            x       y       z     vdW  Elec       q    Type
REMARK                         _______ _______ _______ _____ _____    ______ ____
ROOT
ATOM      1  O   UNL     1     -37.025  27.826   1.346  0.00  0.00    -0.241 OA
ATOM      2  N   UNL     1     -36.586  26.878   2.255  0.00  0.00    -0.047 NA
ATOM      3  N   UNL     1     -38.355  27.640   1.008  0.00  0.00    -0.047 NA
ATOM      4  C   UNL     1     -37.713  24.954   3.363  0.00  0.00    +0.071 C 
ATOM      5  C   UNL     1     -37.639  26.087   2.495  0.00  0.00    +0.158 A 
ATOM      6  C   UNL     1     -39.012  24.364   3.355  0.00  0.00    +0.018 C 
ATOM      7  C   UNL     1     -40.027  25.952   1.732  0.00  0.00    +0.145 C 
ATOM      8  C   UNL     1     -38.764  26.571   1.703  0.00  0.00    +0.163 A 
ATOM      9  C   UNL     1     -40.107  24.836   2.584  0.00  0.00    +0.023 C 
ENDROOT
BRANCH   4  10
ATOM     10  N   UNL     1     -36.674  24.462   4.128  0.00  0.00    -0.301 N 
ATOM     11  C   UNL     1     -36.248  23.063   4.157  0.00  0.00    +0.147 C 
ATOM     12  C   UNL     1     -35.424  22.951   5.441  0.00  0.00    +0.030 C 
ATOM     13  C   UNL     1     -35.973  25.259   5.138  0.00  0.00    +0.091 C 
ATOM     14  C   UNL     1     -34.847  24.348   5.618  0.00  0.00    +0.024 C 
BRANCH  11  17
ATOM     15 CL   UNL     1     -35.286  21.067   2.636  0.00  0.00    -0.041 Cl
ATOM     16  O   UNL     1     -34.850  23.666   2.323  0.00  0.00    -0.277 OA
ATOM     17  C   UNL     1     -35.393  22.770   2.963  0.00  0.00    +0.248 C 
ENDBRANCH  11  17
ENDBRANCH   4  10
BRANCH   7  18
ATOM     18  S   UNL     1     -41.409  26.477   0.813  0.00  0.00    +0.065 S 
ATOM     19  O   UNL     1     -40.995  26.671  -0.574  0.00  0.00    -0.153 OA
ATOM     20  O   UNL     1     -42.516  25.562   1.083  0.00  0.00    -0.153 OA
BRANCH  18  21
ATOM     21  N   UNL     1     -41.789  28.022   1.499  0.00  0.00    -0.153 NA
ATOM     22  C   UNL     1     -41.948  29.166   0.565  0.00  0.00    +0.115 C 
ATOM     23  C   UNL     1     -42.788  28.056   2.597  0.00  0.00    +0.115 C 
ENDBRANCH  18  21
ENDBRANCH   7  18
TORSDOF 4
ENDMDL
MODEL 9
REMARK VINA RESULT:      -5.2      2.839      3.991
REMARK  Name = 192501
REMARK  4 active torsions:
REMARK  status: ('A' for Active; 'I' for Inactive)
REMARK    1  A    between atoms: C_4  and  N_10
REMARK    2  A    between atoms: C_7  and  S_18
REMARK    3  A    between atoms: C_11  and  C_17
REMARK    4  A    between atoms: S_18  and  N_21
REMARK                            x       y       z     vdW  Elec       q    Type
REMARK                         _______ _______ _______ _____ _____    ______ ____
ROOT
ATOM      1  O   UNL     1     -36.110  23.897  -0.182  0.00  0.00    -0.241 OA
ATOM      2  N   UNL     1     -35.733  22.574  -0.335  0.00  0.00    -0.047 NA
ATOM      3  N   UNL     1     -36.238  24.247   1.152  0.00  0.00    -0.047 NA
ATOM      4  C   UNL     1     -35.253  20.757   1.299  0.00  0.00    +0.071 C 
ATOM      5  C   UNL     1     -35.619  22.081   0.905  0.00  0.00    +0.158 A 
ATOM      6  C   UNL     1     -35.241  20.610   2.718  0.00  0.00    +0.018 C 
ATOM      7  C   UNL     1     -35.914  22.946   3.243  0.00  0.00    +0.145 C 
ATOM      8  C   UNL     1     -35.940  23.143   1.850  0.00  0.00    +0.163 A 
ATOM      9  C   UNL     1     -35.553  21.645   3.638  0.00  0.00    +0.023 C 
ENDROOT
BRANCH   4  10
ATOM     10  N   UNL     1     -34.943  19.722   0.438  0.00  0.00    -0.301 N 
ATOM     11  C   UNL     1     -33.675  19.583  -0.278  0.00  0.00    +0.147 C 
ATOM     12  C   UNL     1     -33.989  18.593  -1.402  0.00  0.00    +0.030 C 
ATOM     13  C   UNL     1     -35.916  18.716   0.008  0.00  0.00    +0.091 C 
ATOM     14  C   UNL     1     -35.097  17.729  -0.817  0.00  0.00    +0.024 C 
BRANCH  11  17
ATOM     15 CL   UNL     1     -31.031  19.517   0.195  0.00  0.00    -0.041 Cl
ATOM     16  O   UNL     1     -32.932  18.289   1.580  0.00  0.00    -0.277 OA
ATOM     17  C   UNL     1     -32.635  19.018   0.639  0.00  0.00    +0.248 C 
ENDBRANCH  11  17
ENDBRANCH   4  10
BRANCH   7  18
ATOM     18  S   UNL     1     -36.285  24.169   4.424  0.00  0.00    +0.065 S 
ATOM     19  O   UNL     1     -37.599  24.726   4.115  0.00  0.00    -0.153 OA
ATOM     20  O   UNL     1     -36.069  23.604   5.755  0.00  0.00    -0.153 OA
BRANCH  18  21
ATOM     21  N   UNL     1     -35.086  25.386   4.139  0.00  0.00    -0.153 NA
ATOM     22  C   UNL     1     -35.535  26.658   3.517  0.00  0.00    +0.115 C 
ATOM     23  C   UNL     1     -34.075  25.613   5.202  0.00  0.00    +0.115 C 
ENDBRANCH  18  21
ENDBRANCH   7  18
TORSDOF 4
ENDMDL
