MODEL 1
REMARK VINA RESULT:      -7.0      0.000      0.000
REMARK  Name = 57346175
REMARK  4 active torsions:
REMARK  status: ('A' for Active; 'I' for Inactive)
REMARK    1  A    between atoms: C_5  and  C_16
REMARK    2  A    between atoms: C_7  and  C_29
REMARK    3  A    between atoms: C_16  and  C_20
REMARK    4  A    between atoms: C_29  and  S_30
REMARK                            x       y       z     vdW  Elec       q    Type
REMARK                         _______ _______ _______ _____ _____    ______ ____
ROOT
ATOM      1  O   UNL     1     -32.280  20.624   0.173  0.00  0.00    -0.273 OA
ATOM      2  O   UNL     1     -36.394  15.990  -0.044  0.00  0.00    -0.287 OA
ATOM      3  N   UNL     1     -34.553  20.855  -0.024  0.00  0.00    -0.300 N 
ATOM      4  N   UNL     1     -34.849  18.249   0.638  0.00  0.00    -0.328 N 
ATOM      5  C   UNL     1     -35.914  20.426   0.294  0.00  0.00    +0.108 C 
ATOM      6  C   UNL     1     -35.981  18.916   0.219  0.00  0.00    +0.039 C 
ATOM      7  C   UNL     1     -33.665  18.902   1.164  0.00  0.00    +0.157 C 
ATOM      8  C   UNL     1     -37.074  18.302  -0.261  0.00  0.00    +0.032 C 
ATOM      9  C   UNL     1     -33.411  20.190   0.386  0.00  0.00    +0.241 C 
ATOM     10  C   UNL     1     -38.337  18.904  -0.776  0.00  0.00    +0.057 C 
ATOM     11  C   UNL     1     -37.215  16.828  -0.366  0.00  0.00    +0.193 C 
ATOM     12  C   UNL     1     -39.154  17.711  -1.157  0.00  0.00    -0.018 C 
ATOM     13  C   UNL     1     -38.545  16.541  -0.936  0.00  0.00    +0.038 C 
ATOM     14  H   UNL     1     -34.442  21.669  -0.565  0.00  0.00    +0.150 HD
ATOM     15  H   UNL     1     -34.845  17.266   0.578  0.00  0.00    +0.147 HD
ENDROOT
BRANCH   5  16
ATOM     16  C   UNL     1     -36.357  20.964   1.652  0.00  0.00    +0.036 C 
ATOM     17  C   UNL     1     -37.788  21.499   1.566  0.00  0.00    +0.003 C 
BRANCH  16  20
ATOM     18  O   UNL     1     -36.040  23.765   0.521  0.00  0.00    -0.274 OA
ATOM     19  N   UNL     1     -36.034  24.215   2.838  0.00  0.00    -0.257 N 
ATOM     20  C   UNL     1     -35.405  22.041   2.146  0.00  0.00    +0.102 C 
ATOM     21  C   UNL     1     -35.384  22.181   3.640  0.00  0.00    -0.000 C 
ATOM     22  C   UNL     1     -35.865  23.436   1.685  0.00  0.00    +0.233 C 
ATOM     23  C   UNL     1     -35.752  23.480   3.997  0.00  0.00    +0.050 C 
ATOM     24  C   UNL     1     -35.051  21.249   4.607  0.00  0.00    -0.003 C 
ATOM     25  C   UNL     1     -35.807  23.886   5.319  0.00  0.00    +0.015 C 
ATOM     26  C   UNL     1     -36.455  25.596   2.859  0.00  0.00    +0.120 C 
ATOM     27  C   UNL     1     -35.100  21.641   5.948  0.00  0.00    -0.000 C 
ATOM     28  C   UNL     1     -35.476  22.948   6.300  0.00  0.00    +0.001 C 
ENDBRANCH  16  20
ENDBRANCH   5  16
BRANCH   7  29
ATOM     29  C   UNL     1     -32.475  17.955   1.080  0.00  0.00    +0.086 C 
BRANCH  29  30
ATOM     30  S   UNL     1     -32.834  16.594  -0.060  0.00  0.00    -0.137 S 
ATOM     31  C   UNL     1     -32.043  17.269  -1.539  0.00  0.00    +0.069 C 
ENDBRANCH  29  30
ENDBRANCH   7  29
TORSDOF 4
ENDMDL
MODEL 2
REMARK VINA RESULT:      -6.9      3.486      6.919
REMARK  Name = 57346175
REMARK  4 active torsions:
REMARK  status: ('A' for Active; 'I' for Inactive)
REMARK    1  A    between atoms: C_5  and  C_16
REMARK    2  A    between atoms: C_7  and  C_29
REMARK    3  A    between atoms: C_16  and  C_20
REMARK    4  A    between atoms: C_29  and  S_30
REMARK                            x       y       z     vdW  Elec       q    Type
REMARK                         _______ _______ _______ _____ _____    ______ ____
ROOT
ATOM      1  O   UNL     1     -35.490  22.978   5.727  0.00  0.00    -0.273 OA
ATOM      2  O   UNL     1     -39.679  26.685   3.052  0.00  0.00    -0.287 OA
ATOM      3  N   UNL     1     -36.810  22.437   3.931  0.00  0.00    -0.300 N 
ATOM      4  N   UNL     1     -37.465  25.047   3.659  0.00  0.00    -0.328 N 
ATOM      5  C   UNL     1     -37.489  22.800   2.689  0.00  0.00    +0.108 C 
ATOM      6  C   UNL     1     -38.151  24.149   2.870  0.00  0.00    +0.039 C 
ATOM      7  C   UNL     1     -36.172  24.782   4.262  0.00  0.00    +0.157 C 
ATOM      8  C   UNL     1     -39.345  24.406   2.312  0.00  0.00    +0.032 C 
ATOM      9  C   UNL     1     -36.123  23.332   4.733  0.00  0.00    +0.241 C 
ATOM     10  C   UNL     1     -40.200  23.515   1.476  0.00  0.00    +0.057 C 
ATOM     11  C   UNL     1     -40.057  25.702   2.444  0.00  0.00    +0.193 C 
ATOM     12  C   UNL     1     -41.386  24.372   1.166  0.00  0.00    -0.018 C 
ATOM     13  C   UNL     1     -41.325  25.598   1.698  0.00  0.00    +0.038 C 
ATOM     14  H   UNL     1     -36.842  21.496   4.215  0.00  0.00    +0.150 HD
ATOM     15  H   UNL     1     -37.878  25.926   3.822  0.00  0.00    +0.147 HD
ENDROOT
BRANCH   5  16
ATOM     16  C   UNL     1     -36.524  22.776   1.507  0.00  0.00    +0.036 C 
ATOM     17  C   UNL     1     -37.149  22.024   0.330  0.00  0.00    +0.003 C 
BRANCH  16  20
ATOM     18  O   UNL     1     -36.072  19.948   2.517  0.00  0.00    -0.274 OA
ATOM     19  N   UNL     1     -34.285  20.169   0.992  0.00  0.00    -0.257 N 
ATOM     20  C   UNL     1     -35.196  22.155   1.903  0.00  0.00    +0.102 C 
ATOM     21  C   UNL     1     -34.088  22.440   0.931  0.00  0.00    -0.000 C 
ATOM     22  C   UNL     1     -35.277  20.617   1.875  0.00  0.00    +0.233 C 
ATOM     23  C   UNL     1     -33.579  21.240   0.430  0.00  0.00    +0.050 C 
ATOM     24  C   UNL     1     -33.558  23.655   0.532  0.00  0.00    -0.003 C 
ATOM     25  C   UNL     1     -32.538  21.213  -0.482  0.00  0.00    +0.015 C 
ATOM     26  C   UNL     1     -34.012  18.787   0.675  0.00  0.00    +0.120 C 
ATOM     27  C   UNL     1     -32.506  23.647  -0.389  0.00  0.00    -0.000 C 
ATOM     28  C   UNL     1     -32.002  22.436  -0.892  0.00  0.00    +0.001 C 
ENDBRANCH  16  20
ENDBRANCH   5  16
BRANCH   7  29
ATOM     29  C   UNL     1     -35.932  25.751   5.412  0.00  0.00    +0.086 C 
BRANCH  29  30
ATOM     30  S   UNL     1     -34.176  26.182   5.516  0.00  0.00    -0.137 S 
ATOM     31  C   UNL     1     -33.726  25.880   3.791  0.00  0.00    +0.069 C 
ENDBRANCH  29  30
ENDBRANCH   7  29
TORSDOF 4
ENDMDL
MODEL 3
REMARK VINA RESULT:      -6.8      2.231      4.037
REMARK  Name = 57346175
REMARK  4 active torsions:
REMARK  status: ('A' for Active; 'I' for Inactive)
REMARK    1  A    between atoms: C_5  and  C_16
REMARK    2  A    between atoms: C_7  and  C_29
REMARK    3  A    between atoms: C_16  and  C_20
REMARK    4  A    between atoms: C_29  and  S_30
REMARK                            x       y       z     vdW  Elec       q    Type
REMARK                         _______ _______ _______ _____ _____    ______ ____
ROOT
ATOM      1  O   UNL     1     -40.394  21.117   1.676  0.00  0.00    -0.273 OA
ATOM      2  O   UNL     1     -35.808  18.067  -1.174  0.00  0.00    -0.287 OA
ATOM      3  N   UNL     1     -38.165  21.246   2.202  0.00  0.00    -0.300 N 
ATOM      4  N   UNL     1     -37.571  20.005  -0.127  0.00  0.00    -0.328 N 
ATOM      5  C   UNL     1     -36.758  21.267   1.807  0.00  0.00    +0.108 C 
ATOM      6  C   UNL     1     -36.529  20.202   0.756  0.00  0.00    +0.039 C 
ATOM      7  C   UNL     1     -38.804  20.769  -0.117  0.00  0.00    +0.157 C 
ATOM      8  C   UNL     1     -35.390  19.493   0.735  0.00  0.00    +0.032 C 
ATOM      9  C   UNL     1     -39.217  21.043   1.325  0.00  0.00    +0.241 C 
ATOM     10  C   UNL     1     -34.214  19.583   1.648  0.00  0.00    +0.057 C 
ATOM     11  C   UNL     1     -35.092  18.434  -0.262  0.00  0.00    +0.193 C 
ATOM     12  C   UNL     1     -33.283  18.545   1.109  0.00  0.00    -0.018 C 
ATOM     13  C   UNL     1     -33.755  17.891   0.042  0.00  0.00    +0.038 C 
ATOM     14  H   UNL     1     -38.379  21.386   3.152  0.00  0.00    +0.150 HD
ATOM     15  H   UNL     1     -37.469  19.300  -0.808  0.00  0.00    +0.147 HD
ENDROOT
BRANCH   5  16
ATOM     16  C   UNL     1     -36.340  22.656   1.333  0.00  0.00    +0.036 C 
ATOM     17  C   UNL     1     -35.986  22.621  -0.155  0.00  0.00    +0.003 C 
BRANCH  16  20
ATOM     18  O   UNL     1     -35.168  25.456   1.238  0.00  0.00    -0.274 OA
ATOM     19  N   UNL     1     -35.239  25.079   3.567  0.00  0.00    -0.257 N 
ATOM     20  C   UNL     1     -35.174  23.181   2.155  0.00  0.00    +0.102 C 
ATOM     21  C   UNL     1     -35.244  22.799   3.605  0.00  0.00    -0.000 C 
ATOM     22  C   UNL     1     -35.192  24.720   2.213  0.00  0.00    +0.233 C 
ATOM     23  C   UNL     1     -35.271  23.950   4.395  0.00  0.00    +0.050 C 
ATOM     24  C   UNL     1     -35.265  21.542   4.184  0.00  0.00    -0.003 C 
ATOM     25  C   UNL     1     -35.325  23.886   5.777  0.00  0.00    +0.015 C 
ATOM     26  C   UNL     1     -35.263  26.432   4.072  0.00  0.00    +0.120 C 
ATOM     27  C   UNL     1     -35.320  21.457   5.578  0.00  0.00    -0.000 C 
ATOM     28  C   UNL     1     -35.350  22.619   6.367  0.00  0.00    +0.001 C 
ENDBRANCH  16  20
ENDBRANCH   5  16
BRANCH   7  29
ATOM     29  C   UNL     1     -39.886  20.008  -0.873  0.00  0.00    +0.086 C 
BRANCH  29  30
ATOM     30  S   UNL     1     -39.151  19.027  -2.206  0.00  0.00    -0.137 S 
ATOM     31  C   UNL     1     -39.481  17.380  -1.538  0.00  0.00    +0.069 C 
ENDBRANCH  29  30
ENDBRANCH   7  29
TORSDOF 4
ENDMDL
MODEL 4
REMARK VINA RESULT:      -6.4      2.538      4.894
REMARK  Name = 57346175
REMARK  4 active torsions:
REMARK  status: ('A' for Active; 'I' for Inactive)
REMARK    1  A    between atoms: C_5  and  C_16
REMARK    2  A    between atoms: C_7  and  C_29
REMARK    3  A    between atoms: C_16  and  C_20
REMARK    4  A    between atoms: C_29  and  S_30
REMARK                            x       y       z     vdW  Elec       q    Type
REMARK                         _______ _______ _______ _____ _____    ______ ____
ROOT
ATOM      1  O   UNL     1     -40.411  21.286   1.791  0.00  0.00    -0.273 OA
ATOM      2  O   UNL     1     -35.773  18.292  -1.032  0.00  0.00    -0.287 OA
ATOM      3  N   UNL     1     -38.198  21.377   2.383  0.00  0.00    -0.300 N 
ATOM      4  N   UNL     1     -37.548  20.209   0.031  0.00  0.00    -0.328 N 
ATOM      5  C   UNL     1     -36.780  21.397   2.028  0.00  0.00    +0.108 C 
ATOM      6  C   UNL     1     -36.530  20.367   0.948  0.00  0.00    +0.039 C 
ATOM      7  C   UNL     1     -38.774  20.984   0.032  0.00  0.00    +0.157 C 
ATOM      8  C   UNL     1     -35.396  19.648   0.936  0.00  0.00    +0.032 C 
ATOM      9  C   UNL     1     -39.226  21.213   1.471  0.00  0.00    +0.241 C 
ATOM     10  C   UNL     1     -34.246  19.696   1.884  0.00  0.00    +0.057 C 
ATOM     11  C   UNL     1     -35.080  18.621  -0.088  0.00  0.00    +0.193 C 
ATOM     12  C   UNL     1     -33.309  18.668   1.335  0.00  0.00    -0.018 C 
ATOM     13  C   UNL     1     -33.756  18.056   0.234  0.00  0.00    +0.038 C 
ATOM     14  H   UNL     1     -38.437  21.486   3.331  0.00  0.00    +0.150 HD
ATOM     15  H   UNL     1     -37.433  19.527  -0.671  0.00  0.00    +0.147 HD
ENDROOT
BRANCH   5  16
ATOM     16  C   UNL     1     -36.336  22.797   1.614  0.00  0.00    +0.036 C 
ATOM     17  C   UNL     1     -34.811  22.902   1.657  0.00  0.00    +0.003 C 
BRANCH  16  20
ATOM     18  O   UNL     1     -36.417  22.816   4.650  0.00  0.00    -0.274 OA
ATOM     19  N   UNL     1     -35.871  25.068   4.204  0.00  0.00    -0.257 N 
ATOM     20  C   UNL     1     -36.977  23.854   2.499  0.00  0.00    +0.102 C 
ATOM     21  C   UNL     1     -36.665  25.260   2.075  0.00  0.00    -0.000 C 
ATOM     22  C   UNL     1     -36.399  23.800   3.926  0.00  0.00    +0.233 C 
ATOM     23  C   UNL     1     -36.024  25.935   3.115  0.00  0.00    +0.050 C 
ATOM     24  C   UNL     1     -36.940  25.899   0.879  0.00  0.00    -0.003 C 
ATOM     25  C   UNL     1     -35.632  27.257   2.995  0.00  0.00    +0.015 C 
ATOM     26  C   UNL     1     -35.235  25.454   5.442  0.00  0.00    +0.120 C 
ATOM     27  C   UNL     1     -36.551  27.234   0.738  0.00  0.00    -0.000 C 
ATOM     28  C   UNL     1     -35.902  27.906   1.787  0.00  0.00    +0.001 C 
ENDBRANCH  16  20
ENDBRANCH   5  16
BRANCH   7  29
ATOM     29  C   UNL     1     -39.841  20.259  -0.779  0.00  0.00    +0.086 C 
BRANCH  29  30
ATOM     30  S   UNL     1     -39.082  19.361  -2.156  0.00  0.00    -0.137 S 
ATOM     31  C   UNL     1     -39.490  17.679  -1.634  0.00  0.00    +0.069 C 
ENDBRANCH  29  30
ENDBRANCH   7  29
TORSDOF 4
ENDMDL
MODEL 5
REMARK VINA RESULT:      -6.3      3.217      6.802
REMARK  Name = 57346175
REMARK  4 active torsions:
REMARK  status: ('A' for Active; 'I' for Inactive)
REMARK    1  A    between atoms: C_5  and  C_16
REMARK    2  A    between atoms: C_7  and  C_29
REMARK    3  A    between atoms: C_16  and  C_20
REMARK    4  A    between atoms: C_29  and  S_30
REMARK                            x       y       z     vdW  Elec       q    Type
REMARK                         _______ _______ _______ _____ _____    ______ ____
ROOT
ATOM      1  O   UNL     1     -34.788  22.963   5.947  0.00  0.00    -0.273 OA
ATOM      2  O   UNL     1     -38.530  26.623   2.624  0.00  0.00    -0.287 OA
ATOM      3  N   UNL     1     -36.346  22.257   4.419  0.00  0.00    -0.300 N 
ATOM      4  N   UNL     1     -36.575  24.798   3.519  0.00  0.00    -0.328 N 
ATOM      5  C   UNL     1     -37.070  22.427   3.162  0.00  0.00    +0.108 C 
ATOM      6  C   UNL     1     -37.476  23.879   3.023  0.00  0.00    +0.039 C 
ATOM      7  C   UNL     1     -35.294  24.450   4.104  0.00  0.00    +0.157 C 
ATOM      8  C   UNL     1     -38.657  24.211   2.478  0.00  0.00    +0.032 C 
ATOM      9  C   UNL     1     -35.444  23.176   4.929  0.00  0.00    +0.241 C 
ATOM     10  C   UNL     1     -39.726  23.320   1.944  0.00  0.00    +0.057 C 
ATOM     11  C   UNL     1     -39.125  25.610   2.309  0.00  0.00    +0.193 C 
ATOM     12  C   UNL     1     -40.775  24.282   1.483  0.00  0.00    -0.018 C 
ATOM     13  C   UNL     1     -40.458  25.566   1.679  0.00  0.00    +0.038 C 
ATOM     14  H   UNL     1     -36.509  21.437   4.937  0.00  0.00    +0.150 HD
ATOM     15  H   UNL     1     -36.817  25.751   3.472  0.00  0.00    +0.147 HD
ENDROOT
BRANCH   5  16
ATOM     16  C   UNL     1     -36.241  21.936   1.978  0.00  0.00    +0.036 C 
ATOM     17  C   UNL     1     -36.584  22.742   0.723  0.00  0.00    +0.003 C 
BRANCH  16  20
ATOM     18  O   UNL     1     -38.633  20.640   0.629  0.00  0.00    -0.274 OA
ATOM     19  N   UNL     1     -36.858  19.438  -0.358  0.00  0.00    -0.257 N 
ATOM     20  C   UNL     1     -36.457  20.451   1.744  0.00  0.00    +0.102 C 
ATOM     21  C   UNL     1     -35.240  19.744   1.220  0.00  0.00    -0.000 C 
ATOM     22  C   UNL     1     -37.488  20.214   0.625  0.00  0.00    +0.233 C 
ATOM     23  C   UNL     1     -35.530  19.158  -0.014  0.00  0.00    +0.050 C 
ATOM     24  C   UNL     1     -33.985  19.613   1.789  0.00  0.00    -0.003 C 
ATOM     25  C   UNL     1     -34.583  18.432  -0.717  0.00  0.00    +0.015 C 
ATOM     26  C   UNL     1     -37.472  18.982  -1.583  0.00  0.00    +0.120 C 
ATOM     27  C   UNL     1     -33.017  18.884   1.093  0.00  0.00    -0.000 C 
ATOM     28  C   UNL     1     -33.313  18.300  -0.149  0.00  0.00    +0.001 C 
ENDBRANCH  16  20
ENDBRANCH   5  16
BRANCH   7  29
ATOM     29  C   UNL     1     -34.785  25.608   4.953  0.00  0.00    +0.086 C 
BRANCH  29  30
ATOM     30  S   UNL     1     -34.072  26.896   3.899  0.00  0.00    -0.137 S 
ATOM     31  C   UNL     1     -33.119  25.834   2.789  0.00  0.00    +0.069 C 
ENDBRANCH  29  30
ENDBRANCH   7  29
TORSDOF 4
ENDMDL
MODEL 6
REMARK VINA RESULT:      -6.2      3.910      6.951
REMARK  Name = 57346175
REMARK  4 active torsions:
REMARK  status: ('A' for Active; 'I' for Inactive)
REMARK    1  A    between atoms: C_5  and  C_16
REMARK    2  A    between atoms: C_7  and  C_29
REMARK    3  A    between atoms: C_16  and  C_20
REMARK    4  A    between atoms: C_29  and  S_30
REMARK                            x       y       z     vdW  Elec       q    Type
REMARK                         _______ _______ _______ _____ _____    ______ ____
ROOT
ATOM      1  O   UNL     1     -38.586  25.208   0.172  0.00  0.00    -0.273 OA
ATOM      2  O   UNL     1     -35.564  20.853   3.388  0.00  0.00    -0.287 OA
ATOM      3  N   UNL     1     -37.486  25.528   2.158  0.00  0.00    -0.300 N 
ATOM      4  N   UNL     1     -36.313  23.108   1.867  0.00  0.00    -0.328 N 
ATOM      5  C   UNL     1     -36.375  25.242   3.064  0.00  0.00    +0.108 C 
ATOM      6  C   UNL     1     -36.122  23.750   3.073  0.00  0.00    +0.039 C 
ATOM      7  C   UNL     1     -36.688  23.778   0.637  0.00  0.00    +0.157 C 
ATOM      8  C   UNL     1     -35.769  23.122   4.205  0.00  0.00    +0.032 C 
ATOM      9  C   UNL     1     -37.690  24.885   0.949  0.00  0.00    +0.241 C 
ATOM     10  C   UNL     1     -35.568  23.690   5.569  0.00  0.00    +0.057 C 
ATOM     11  C   UNL     1     -35.504  21.663   4.293  0.00  0.00    +0.193 C 
ATOM     12  C   UNL     1     -35.188  22.496   6.385  0.00  0.00    -0.018 C 
ATOM     13  C   UNL     1     -35.147  21.354   5.691  0.00  0.00    +0.038 C 
ATOM     14  H   UNL     1     -38.130  26.222   2.425  0.00  0.00    +0.150 HD
ATOM     15  H   UNL     1     -36.184  22.131   1.841  0.00  0.00    +0.147 HD
ENDROOT
BRANCH   5  16
ATOM     16  C   UNL     1     -35.134  26.043   2.682  0.00  0.00    +0.036 C 
ATOM     17  C   UNL     1     -33.910  25.126   2.625  0.00  0.00    +0.003 C 
BRANCH  16  20
ATOM     18  O   UNL     1     -33.312  26.028   5.113  0.00  0.00    -0.274 OA
ATOM     19  N   UNL     1     -32.805  28.139   4.188  0.00  0.00    -0.257 N 
ATOM     20  C   UNL     1     -34.907  27.189   3.655  0.00  0.00    +0.102 C 
ATOM     21  C   UNL     1     -34.704  28.515   2.981  0.00  0.00    -0.000 C 
ATOM     22  C   UNL     1     -33.588  27.001   4.428  0.00  0.00    +0.233 C 
ATOM     23  C   UNL     1     -33.458  29.037   3.334  0.00  0.00    +0.050 C 
ATOM     24  C   UNL     1     -35.553  29.214   2.141  0.00  0.00    -0.003 C 
ATOM     25  C   UNL     1     -33.018  30.261   2.859  0.00  0.00    +0.015 C 
ATOM     26  C   UNL     1     -31.488  28.376   4.730  0.00  0.00    +0.120 C 
ATOM     27  C   UNL     1     -35.126  30.452   1.651  0.00  0.00    -0.000 C 
ATOM     28  C   UNL     1     -33.869  30.969   2.006  0.00  0.00    +0.001 C 
ENDBRANCH  16  20
ENDBRANCH   5  16
BRANCH   7  29
ATOM     29  C   UNL     1     -37.265  22.765  -0.345  0.00  0.00    +0.086 C 
BRANCH  29  30
ATOM     30  S   UNL     1     -37.756  21.255   0.525  0.00  0.00    -0.137 S 
ATOM     31  C   UNL     1     -39.484  21.683   0.846  0.00  0.00    +0.069 C 
ENDBRANCH  29  30
ENDBRANCH   7  29
TORSDOF 4
ENDMDL
MODEL 7
REMARK VINA RESULT:      -6.0      2.809      6.845
REMARK  Name = 57346175
REMARK  4 active torsions:
REMARK  status: ('A' for Active; 'I' for Inactive)
REMARK    1  A    between atoms: C_5  and  C_16
REMARK    2  A    between atoms: C_7  and  C_29
REMARK    3  A    between atoms: C_16  and  C_20
REMARK    4  A    between atoms: C_29  and  S_30
REMARK                            x       y       z     vdW  Elec       q    Type
REMARK                         _______ _______ _______ _____ _____    ______ ____
ROOT
ATOM      1  O   UNL     1     -34.788  25.031  -0.689  0.00  0.00    -0.273 OA
ATOM      2  O   UNL     1     -35.869  24.755   5.411  0.00  0.00    -0.287 OA
ATOM      3  N   UNL     1     -35.014  23.114   0.550  0.00  0.00    -0.300 N 
ATOM      4  N   UNL     1     -35.994  24.584   2.598  0.00  0.00    -0.328 N 
ATOM      5  C   UNL     1     -35.635  22.361   1.637  0.00  0.00    +0.108 C 
ATOM      6  C   UNL     1     -35.735  23.254   2.855  0.00  0.00    +0.039 C 
ATOM      7  C   UNL     1     -36.206  25.131   1.272  0.00  0.00    +0.157 C 
ATOM      8  C   UNL     1     -35.545  22.756   4.087  0.00  0.00    +0.032 C 
ATOM      9  C   UNL     1     -35.262  24.450   0.286  0.00  0.00    +0.241 C 
ATOM     10  C   UNL     1     -35.225  21.357   4.493  0.00  0.00    +0.057 C 
ATOM     11  C   UNL     1     -35.626  23.566   5.328  0.00  0.00    +0.193 C 
ATOM     12  C   UNL     1     -35.139  21.445   5.984  0.00  0.00    -0.018 C 
ATOM     13  C   UNL     1     -35.360  22.671   6.470  0.00  0.00    +0.038 C 
ATOM     14  H   UNL     1     -34.379  22.640  -0.034  0.00  0.00    +0.150 HD
ATOM     15  H   UNL     1     -36.038  25.201   3.365  0.00  0.00    +0.147 HD
ENDROOT
BRANCH   5  16
ATOM     16  C   UNL     1     -36.988  21.797   1.214  0.00  0.00    +0.036 C 
ATOM     17  C   UNL     1     -38.095  22.343   2.118  0.00  0.00    +0.003 C 
BRANCH  16  20
ATOM     18  O   UNL     1     -39.003  19.943  -0.100  0.00  0.00    -0.274 OA
ATOM     19  N   UNL     1     -36.976  18.880  -0.676  0.00  0.00    -0.257 N 
ATOM     20  C   UNL     1     -36.973  20.277   1.235  0.00  0.00    +0.102 C 
ATOM     21  C   UNL     1     -35.618  19.688   0.968  0.00  0.00    -0.000 C 
ATOM     22  C   UNL     1     -37.819  19.703   0.084  0.00  0.00    +0.233 C 
ATOM     23  C   UNL     1     -35.674  18.868  -0.160  0.00  0.00    +0.050 C 
ATOM     24  C   UNL     1     -34.436  19.848   1.670  0.00  0.00    -0.003 C 
ATOM     25  C   UNL     1     -34.561  18.189  -0.625  0.00  0.00    +0.015 C 
ATOM     26  C   UNL     1     -37.370  18.138  -1.851  0.00  0.00    +0.120 C 
ATOM     27  C   UNL     1     -33.300  19.170   1.215  0.00  0.00    -0.000 C 
ATOM     28  C   UNL     1     -33.363  18.349   0.077  0.00  0.00    +0.001 C 
ENDBRANCH  16  20
ENDBRANCH   5  16
BRANCH   7  29
ATOM     29  C   UNL     1     -35.992  26.639   1.297  0.00  0.00    +0.086 C 
BRANCH  29  30
ATOM     30  S   UNL     1     -35.111  27.124   2.804  0.00  0.00    -0.137 S 
ATOM     31  C   UNL     1     -33.438  27.193   2.123  0.00  0.00    +0.069 C 
ENDBRANCH  29  30
ENDBRANCH   7  29
TORSDOF 4
ENDMDL
MODEL 8
REMARK VINA RESULT:      -6.0      4.230      7.567
REMARK  Name = 57346175
REMARK  4 active torsions:
REMARK  status: ('A' for Active; 'I' for Inactive)
REMARK    1  A    between atoms: C_5  and  C_16
REMARK    2  A    between atoms: C_7  and  C_29
REMARK    3  A    between atoms: C_16  and  C_20
REMARK    4  A    between atoms: C_29  and  S_30
REMARK                            x       y       z     vdW  Elec       q    Type
REMARK                         _______ _______ _______ _____ _____    ______ ____
ROOT
ATOM      1  O   UNL     1     -38.721  26.908   1.434  0.00  0.00    -0.273 OA
ATOM      2  O   UNL     1     -36.217  21.469   3.048  0.00  0.00    -0.287 OA
ATOM      3  N   UNL     1     -37.169  26.583   3.092  0.00  0.00    -0.300 N 
ATOM      4  N   UNL     1     -36.710  24.093   2.138  0.00  0.00    -0.328 N 
ATOM      5  C   UNL     1     -35.991  25.901   3.623  0.00  0.00    +0.108 C 
ATOM      6  C   UNL     1     -36.111  24.420   3.336  0.00  0.00    +0.039 C 
ATOM      7  C   UNL     1     -37.172  25.066   1.165  0.00  0.00    +0.157 C 
ATOM      8  C   UNL     1     -35.682  23.513   4.228  0.00  0.00    +0.032 C 
ATOM      9  C   UNL     1     -37.782  26.259   1.893  0.00  0.00    +0.241 C 
ATOM     10  C   UNL     1     -35.057  23.734   5.563  0.00  0.00    +0.057 C 
ATOM     11  C   UNL     1     -35.766  22.045   4.019  0.00  0.00    +0.193 C 
ATOM     12  C   UNL     1     -34.809  22.345   6.059  0.00  0.00    -0.018 C 
ATOM     13  C   UNL     1     -35.199  21.388   5.211  0.00  0.00    +0.038 C 
ATOM     14  H   UNL     1     -37.552  27.320   3.620  0.00  0.00    +0.150 HD
ATOM     15  H   UNL     1     -36.832  23.138   1.930  0.00  0.00    +0.147 HD
ENDROOT
BRANCH   5  16
ATOM     16  C   UNL     1     -34.706  26.503   3.059  0.00  0.00    +0.036 C 
ATOM     17  C   UNL     1     -33.585  25.461   3.071  0.00  0.00    +0.003 C 
BRANCH  16  20
ATOM     18  O   UNL     1     -33.032  26.590   5.592  0.00  0.00    -0.274 OA
ATOM     19  N   UNL     1     -32.078  28.366   4.365  0.00  0.00    -0.257 N 
ATOM     20  C   UNL     1     -34.301  27.743   3.838  0.00  0.00    +0.102 C 
ATOM     21  C   UNL     1     -33.810  28.864   2.967  0.00  0.00    -0.000 C 
ATOM     22  C   UNL     1     -33.080  27.457   4.733  0.00  0.00    +0.233 C 
ATOM     23  C   UNL     1     -32.503  29.199   3.323  0.00  0.00    +0.050 C 
ATOM     24  C   UNL     1     -34.467  29.545   1.957  0.00  0.00    -0.003 C 
ATOM     25  C   UNL     1     -31.810  30.213   2.682  0.00  0.00    +0.015 C 
ATOM     26  C   UNL     1     -30.765  28.447   4.960  0.00  0.00    +0.120 C 
ATOM     27  C   UNL     1     -33.783  30.571   1.299  0.00  0.00    -0.000 C 
ATOM     28  C   UNL     1     -32.466  30.901   1.658  0.00  0.00    +0.001 C 
ENDBRANCH  16  20
ENDBRANCH   5  16
BRANCH   7  29
ATOM     29  C   UNL     1     -38.177  24.414   0.224  0.00  0.00    +0.086 C 
BRANCH  29  30
ATOM     30  S   UNL     1     -39.246  23.272   1.137  0.00  0.00    -0.137 S 
ATOM     31  C   UNL     1     -38.847  21.756   0.237  0.00  0.00    +0.069 C 
ENDBRANCH  29  30
ENDBRANCH   7  29
TORSDOF 4
ENDMDL
MODEL 9
REMARK VINA RESULT:      -6.0      3.476      4.681
REMARK  Name = 57346175
REMARK  4 active torsions:
REMARK  status: ('A' for Active; 'I' for Inactive)
REMARK    1  A    between atoms: C_5  and  C_16
REMARK    2  A    between atoms: C_7  and  C_29
REMARK    3  A    between atoms: C_16  and  C_20
REMARK    4  A    between atoms: C_29  and  S_30
REMARK                            x       y       z     vdW  Elec       q    Type
REMARK                         _______ _______ _______ _____ _____    ______ ____
ROOT
ATOM      1  O   UNL     1     -34.831  24.397  -1.740  0.00  0.00    -0.273 OA
ATOM      2  O   UNL     1     -30.580  20.157  -0.191  0.00  0.00    -0.287 OA
ATOM      3  N   UNL     1     -35.183  22.571  -0.399  0.00  0.00    -0.300 N 
ATOM      4  N   UNL     1     -32.507  22.217  -0.223  0.00  0.00    -0.328 N 
ATOM      5  C   UNL     1     -34.728  21.627   0.620  0.00  0.00    +0.108 C 
ATOM      6  C   UNL     1     -33.302  21.225   0.313  0.00  0.00    +0.039 C 
ATOM      7  C   UNL     1     -32.948  23.579  -0.455  0.00  0.00    +0.157 C 
ATOM      8  C   UNL     1     -32.882  19.969   0.529  0.00  0.00    +0.032 C 
ATOM      9  C   UNL     1     -34.392  23.566  -0.947  0.00  0.00    +0.241 C 
ATOM     10  C   UNL     1     -33.646  18.805   1.064  0.00  0.00    +0.057 C 
ATOM     11  C   UNL     1     -31.501  19.499   0.253  0.00  0.00    +0.193 C 
ATOM     12  C   UNL     1     -32.633  17.704   1.066  0.00  0.00    -0.018 C 
ATOM     13  C   UNL     1     -31.429  18.071   0.617  0.00  0.00    +0.038 C 
ATOM     14  H   UNL     1     -36.111  22.494  -0.715  0.00  0.00    +0.150 HD
ATOM     15  H   UNL     1     -31.580  21.985  -0.462  0.00  0.00    +0.147 HD
ENDROOT
BRANCH   5  16
ATOM     16  C   UNL     1     -34.881  22.213   2.021  0.00  0.00    +0.036 C 
ATOM     17  C   UNL     1     -35.747  21.294   2.886  0.00  0.00    +0.003 C 
BRANCH  16  20
ATOM     18  O   UNL     1     -37.633  22.985   0.995  0.00  0.00    -0.274 OA
ATOM     19  N   UNL     1     -37.507  24.288   2.959  0.00  0.00    -0.257 N 
ATOM     20  C   UNL     1     -35.469  23.613   1.962  0.00  0.00    +0.102 C 
ATOM     21  C   UNL     1     -35.245  24.410   3.215  0.00  0.00    -0.000 C 
ATOM     22  C   UNL     1     -37.005  23.562   1.870  0.00  0.00    +0.233 C 
ATOM     23  C   UNL     1     -36.473  24.790   3.758  0.00  0.00    +0.050 C 
ATOM     24  C   UNL     1     -34.057  24.784   3.819  0.00  0.00    -0.003 C 
ATOM     25  C   UNL     1     -36.557  25.546   4.915  0.00  0.00    +0.015 C 
ATOM     26  C   UNL     1     -38.906  24.496   3.250  0.00  0.00    +0.120 C 
ATOM     27  C   UNL     1     -34.122  25.547   4.988  0.00  0.00    -0.000 C 
ATOM     28  C   UNL     1     -35.361  25.923   5.532  0.00  0.00    +0.001 C 
ENDBRANCH  16  20
ENDBRANCH   5  16
BRANCH   7  29
ATOM     29  C   UNL     1     -32.023  24.255  -1.459  0.00  0.00    +0.086 C 
BRANCH  29  30
ATOM     30  S   UNL     1     -31.532  25.892  -0.858  0.00  0.00    -0.137 S 
ATOM     31  C   UNL     1     -32.066  25.716   0.860  0.00  0.00    +0.069 C 
ENDBRANCH  29  30
ENDBRANCH   7  29
TORSDOF 4
ENDMDL
