MODEL 1
REMARK VINA RESULT:      -6.4      0.000      0.000
REMARK  Name = 54734315
REMARK  9 active torsions:
REMARK  status: ('A' for Active; 'I' for Inactive)
REMARK    1  A    between atoms: C_3  and  C_16
REMARK    2  A    between atoms: C_6  and  C_27
REMARK    3  A    between atoms: C_7  and  O_24
REMARK    4  A    between atoms: C_13  and  O_33
REMARK    5  A    between atoms: C_13  and  C_35
REMARK    6  A    between atoms: C_17  and  O_22
REMARK    7  A    between atoms: C_27  and  C_28
REMARK    8  A    between atoms: C_29  and  C_30
REMARK    9  A    between atoms: C_36  and  C_37
REMARK                            x       y       z     vdW  Elec       q    Type
REMARK                         _______ _______ _______ _____ _____    ______ ____
ROOT
ATOM      1  O   UNL     1     -36.648  26.229   4.077  0.00  0.00    -0.293 OA
ATOM      2  O   UNL     1     -35.638  25.481  -0.068  0.00  0.00    -0.291 OA
ATOM      3  C   UNL     1     -37.705  22.847   2.237  0.00  0.00    +0.059 C 
ATOM      4  C   UNL     1     -36.172  22.952   2.515  0.00  0.00    +0.064 C 
ATOM      5  C   UNL     1     -37.141  25.320   1.864  0.00  0.00    +0.116 C 
ATOM      6  C   UNL     1     -38.254  24.234   1.777  0.00  0.00    +0.080 C 
ATOM      7  C   UNL     1     -35.936  23.944   3.692  0.00  0.00    +0.143 C 
ATOM      8  C   UNL     1     -36.574  25.283   3.298  0.00  0.00    +0.181 C 
ATOM      9  C   UNL     1     -35.498  23.496   1.271  0.00  0.00    +0.049 C 
ATOM     10  C   UNL     1     -36.038  24.846   0.899  0.00  0.00    +0.178 C 
ATOM     11  C   UNL     1     -37.633  26.715   1.480  0.00  0.00    +0.016 C 
ATOM     12  C   UNL     1     -34.459  24.137   4.037  0.00  0.00    +0.037 C 
ATOM     13  C   UNL     1     -34.542  22.897   0.554  0.00  0.00    +0.132 C 
ENDROOT
BRANCH   3  16
ATOM     14  O   UNL     1     -37.745  22.283  -0.098  0.00  0.00    -0.446 OA
ATOM     15  O   UNL     1     -38.950  22.679  -2.014  0.00  0.00    -0.245 OA
ATOM     16  C   UNL     1     -38.038  21.759   1.210  0.00  0.00    +0.186 C 
ATOM     17  C   UNL     1     -39.488  21.473   1.127  0.00  0.00    +0.149 C 
ATOM     18  C   UNL     1     -37.189  20.511   1.428  0.00  0.00    +0.052 C 
ATOM     19  C   UNL     1     -40.002  21.772  -0.065  0.00  0.00    +0.086 C 
ATOM     20  C   UNL     1     -38.880  22.294  -0.859  0.00  0.00    +0.340 C 
ATOM     21  C   UNL     1     -41.383  21.648  -0.582  0.00  0.00    +0.041 C 
BRANCH  17  22
ATOM     22  O   UNL     1     -40.182  20.954   2.184  0.00  0.00    -0.506 OA
ATOM     23  H   UNL     1     -41.105  20.809   2.112  0.00  0.00    +0.292 HD
ENDBRANCH  17  22
ENDBRANCH   3  16
BRANCH   7  24
ATOM     24  O   UNL     1     -36.614  23.473   4.849  0.00  0.00    -0.379 OA
ATOM     25  H   UNL     1     -37.026  24.220   5.310  0.00  0.00    +0.211 HD
ENDBRANCH   7  24
BRANCH   6  27
ATOM     26  O   UNL     1     -39.401  24.661   3.822  0.00  0.00    -0.291 OA
ATOM     27  C   UNL     1     -39.457  24.606   2.596  0.00  0.00    +0.174 C 
BRANCH  27  28
ATOM     28  C   UNL     1     -40.719  24.868   1.847  0.00  0.00    +0.037 C 
ATOM     29  C   UNL     1     -40.682  25.228   0.558  0.00  0.00    +0.003 C 
BRANCH  29  30
ATOM     30  C   UNL     1     -41.878  25.495  -0.212  0.00  0.00    -0.004 C 
ATOM     31  C   UNL     1     -43.073  24.960   0.079  0.00  0.00    -0.026 C 
ATOM     32  C   UNL     1     -44.313  25.228  -0.708  0.00  0.00    +0.031 C 
ENDBRANCH  29  30
ENDBRANCH  27  28
ENDBRANCH   6  27
BRANCH  13  33
ATOM     33  O   UNL     1     -33.995  23.487  -0.571  0.00  0.00    -0.506 OA
ATOM     34  H   UNL     1     -34.012  23.036  -1.392  0.00  0.00    +0.292 HD
ENDBRANCH  13  33
BRANCH  13  35
ATOM     35  C   UNL     1     -34.008  21.591   0.900  0.00  0.00    +0.036 C 
ATOM     36  C   UNL     1     -33.052  20.933   0.222  0.00  0.00    +0.003 C 
BRANCH  36  37
ATOM     37  C   UNL     1     -32.563  19.632   0.621  0.00  0.00    -0.004 C 
ATOM     38  C   UNL     1     -31.331  19.190   0.326  0.00  0.00    -0.026 C 
ATOM     39  C   UNL     1     -30.813  17.848   0.732  0.00  0.00    +0.031 C 
ENDBRANCH  36  37
ENDBRANCH  13  35
TORSDOF 9
ENDMDL
MODEL 2
REMARK VINA RESULT:      -6.4      8.772     12.484
REMARK  Name = 54734315
REMARK  9 active torsions:
REMARK  status: ('A' for Active; 'I' for Inactive)
REMARK    1  A    between atoms: C_3  and  C_16
REMARK    2  A    between atoms: C_6  and  C_27
REMARK    3  A    between atoms: C_7  and  O_24
REMARK    4  A    between atoms: C_13  and  O_33
REMARK    5  A    between atoms: C_13  and  C_35
REMARK    6  A    between atoms: C_17  and  O_22
REMARK    7  A    between atoms: C_27  and  C_28
REMARK    8  A    between atoms: C_29  and  C_30
REMARK    9  A    between atoms: C_36  and  C_37
REMARK                            x       y       z     vdW  Elec       q    Type
REMARK                         _______ _______ _______ _____ _____    ______ ____
ROOT
ATOM      1  O   UNL     1     -45.932  28.834   8.666  0.00  0.00    -0.293 OA
ATOM      2  O   UNL     1     -42.792  30.075   5.953  0.00  0.00    -0.291 OA
ATOM      3  C   UNL     1     -46.724  29.982   4.925  0.00  0.00    +0.059 C 
ATOM      4  C   UNL     1     -46.000  28.601   5.013  0.00  0.00    +0.064 C 
ATOM      5  C   UNL     1     -45.064  30.235   6.863  0.00  0.00    +0.116 C 
ATOM      6  C   UNL     1     -46.109  30.966   5.970  0.00  0.00    +0.080 C 
ATOM      7  C   UNL     1     -46.255  27.983   6.420  0.00  0.00    +0.143 C 
ATOM      8  C   UNL     1     -45.759  28.995   7.461  0.00  0.00    +0.181 C 
ATOM      9  C   UNL     1     -44.513  28.830   4.839  0.00  0.00    +0.049 C 
ATOM     10  C   UNL     1     -43.971  29.752   5.892  0.00  0.00    +0.178 C 
ATOM     11  C   UNL     1     -44.467  31.133   7.945  0.00  0.00    +0.016 C 
ATOM     12  C   UNL     1     -45.574  26.630   6.621  0.00  0.00    +0.037 C 
ATOM     13  C   UNL     1     -43.730  28.308   3.889  0.00  0.00    +0.132 C 
ENDROOT
BRANCH   3  16
ATOM     14  O   UNL     1     -45.474  31.371   3.416  0.00  0.00    -0.446 OA
ATOM     15  O   UNL     1     -44.999  33.580   2.994  0.00  0.00    -0.245 OA
ATOM     16  C   UNL     1     -46.670  30.579   3.514  0.00  0.00    +0.186 C 
ATOM     17  C   UNL     1     -47.739  31.575   3.272  0.00  0.00    +0.149 C 
ATOM     18  C   UNL     1     -46.612  29.487   2.451  0.00  0.00    +0.052 C 
ATOM     19  C   UNL     1     -47.259  32.798   3.049  0.00  0.00    +0.086 C 
ATOM     20  C   UNL     1     -45.797  32.670   3.140  0.00  0.00    +0.340 C 
ATOM     21  C   UNL     1     -47.954  34.073   2.764  0.00  0.00    +0.041 C 
BRANCH  17  22
ATOM     22  O   UNL     1     -49.061  31.230   3.281  0.00  0.00    -0.506 OA
ATOM     23  H   UNL     1     -49.400  30.693   3.970  0.00  0.00    +0.292 HD
ENDBRANCH  17  22
ENDBRANCH   3  16
BRANCH   7  24
ATOM     24  O   UNL     1     -47.654  27.820   6.617  0.00  0.00    -0.379 OA
ATOM     25  H   UNL     1     -48.095  28.680   6.533  0.00  0.00    +0.211 HD
ENDBRANCH   7  24
BRANCH   6  27
ATOM     26  O   UNL     1     -48.010  30.897   7.405  0.00  0.00    -0.291 OA
ATOM     27  C   UNL     1     -47.203  31.589   6.792  0.00  0.00    +0.174 C 
BRANCH  27  28
ATOM     28  C   UNL     1     -47.271  33.078   6.791  0.00  0.00    +0.037 C 
ATOM     29  C   UNL     1     -48.285  33.713   7.393  0.00  0.00    +0.003 C 
BRANCH  29  30
ATOM     30  C   UNL     1     -48.397  35.155   7.419  0.00  0.00    -0.004 C 
ATOM     31  C   UNL     1     -48.044  35.938   6.390  0.00  0.00    -0.026 C 
ATOM     32  C   UNL     1     -48.155  37.427   6.405  0.00  0.00    +0.031 C 
ENDBRANCH  29  30
ENDBRANCH  27  28
ENDBRANCH   6  27
BRANCH  13  33
ATOM     33  O   UNL     1     -42.377  28.585   3.823  0.00  0.00    -0.506 OA
ATOM     34  H   UNL     1     -41.796  27.988   3.394  0.00  0.00    +0.292 HD
ENDBRANCH  13  33
BRANCH  13  35
ATOM     35  C   UNL     1     -44.238  27.414   2.863  0.00  0.00    +0.036 C 
ATOM     36  C   UNL     1     -44.573  26.125   3.044  0.00  0.00    +0.003 C 
BRANCH  36  37
ATOM     37  C   UNL     1     -45.073  25.286   1.977  0.00  0.00    -0.004 C 
ATOM     38  C   UNL     1     -45.996  24.331   2.166  0.00  0.00    -0.026 C 
ATOM     39  C   UNL     1     -46.522  23.459   1.073  0.00  0.00    +0.031 C 
ENDBRANCH  36  37
ENDBRANCH  13  35
TORSDOF 9
ENDMDL
MODEL 3
REMARK VINA RESULT:      -6.4      1.757      7.585
REMARK  Name = 54734315
REMARK  9 active torsions:
REMARK  status: ('A' for Active; 'I' for Inactive)
REMARK    1  A    between atoms: C_3  and  C_16
REMARK    2  A    between atoms: C_6  and  C_27
REMARK    3  A    between atoms: C_7  and  O_24
REMARK    4  A    between atoms: C_13  and  O_33
REMARK    5  A    between atoms: C_13  and  C_35
REMARK    6  A    between atoms: C_17  and  O_22
REMARK    7  A    between atoms: C_27  and  C_28
REMARK    8  A    between atoms: C_29  and  C_30
REMARK    9  A    between atoms: C_36  and  C_37
REMARK                            x       y       z     vdW  Elec       q    Type
REMARK                         _______ _______ _______ _____ _____    ______ ____
ROOT
ATOM      1  O   UNL     1     -38.328  19.844  -0.212  0.00  0.00    -0.293 OA
ATOM      2  O   UNL     1     -37.317  23.806  -1.641  0.00  0.00    -0.291 OA
ATOM      3  C   UNL     1     -37.663  22.875   2.300  0.00  0.00    +0.059 C 
ATOM      4  C   UNL     1     -38.999  23.008   1.503  0.00  0.00    +0.064 C 
ATOM      5  C   UNL     1     -37.125  21.962  -0.034  0.00  0.00    +0.116 C 
ATOM      6  C   UNL     1     -36.541  22.330   1.362  0.00  0.00    +0.080 C 
ATOM      7  C   UNL     1     -39.452  21.595   1.031  0.00  0.00    +0.143 C 
ATOM      8  C   UNL     1     -38.307  21.000   0.201  0.00  0.00    +0.181 C 
ATOM      9  C   UNL     1     -38.744  23.874   0.286  0.00  0.00    +0.049 C 
ATOM     10  C   UNL     1     -37.685  23.283  -0.597  0.00  0.00    +0.178 C 
ATOM     11  C   UNL     1     -36.084  21.369  -0.982  0.00  0.00    +0.016 C 
ATOM     12  C   UNL     1     -40.748  21.611   0.220  0.00  0.00    +0.037 C 
ATOM     13  C   UNL     1     -39.350  25.027  -0.015  0.00  0.00    +0.132 C 
ENDROOT
BRANCH   3  16
ATOM     14  O   UNL     1     -36.534  24.968   1.962  0.00  0.00    -0.446 OA
ATOM     15  O   UNL     1     -34.421  25.850   1.770  0.00  0.00    -0.245 OA
ATOM     16  C   UNL     1     -37.238  24.197   2.951  0.00  0.00    +0.186 C 
ATOM     17  C   UNL     1     -36.218  24.014   4.007  0.00  0.00    +0.149 C 
ATOM     18  C   UNL     1     -38.448  25.001   3.415  0.00  0.00    +0.052 C 
ATOM     19  C   UNL     1     -35.059  24.599   3.707  0.00  0.00    +0.086 C 
ATOM     20  C   UNL     1     -35.259  25.217   2.387  0.00  0.00    +0.340 C 
ATOM     21  C   UNL     1     -33.787  24.671   4.460  0.00  0.00    +0.041 C 
BRANCH  17  22
ATOM     22  O   UNL     1     -36.482  23.316   5.152  0.00  0.00    -0.506 OA
ATOM     23  H   UNL     1     -37.156  22.666   5.159  0.00  0.00    +0.292 HD
ENDBRANCH  17  22
ENDBRANCH   3  16
BRANCH   7  24
ATOM     24  O   UNL     1     -39.637  20.757   2.164  0.00  0.00    -0.379 OA
ATOM     25  H   UNL     1     -39.351  21.225   2.964  0.00  0.00    +0.211 HD
ENDBRANCH   7  24
BRANCH   6  27
ATOM     26  O   UNL     1     -36.433  20.474   2.853  0.00  0.00    -0.291 OA
ATOM     27  C   UNL     1     -35.861  21.154   2.005  0.00  0.00    +0.174 C 
BRANCH  27  28
ATOM     28  C   UNL     1     -34.457  20.885   1.586  0.00  0.00    +0.037 C 
ATOM     29  C   UNL     1     -34.042  19.632   1.364  0.00  0.00    +0.003 C 
BRANCH  29  30
ATOM     30  C   UNL     1     -32.689  19.318   0.957  0.00  0.00    -0.004 C 
ATOM     31  C   UNL     1     -31.981  20.081   0.111  0.00  0.00    -0.026 C 
ATOM     32  C   UNL     1     -30.585  19.768  -0.317  0.00  0.00    +0.031 C 
ENDBRANCH  29  30
ENDBRANCH  27  28
ENDBRANCH   6  27
BRANCH  13  33
ATOM     33  O   UNL     1     -39.037  25.740  -1.159  0.00  0.00    -0.506 OA
ATOM     34  H   UNL     1     -39.404  25.488  -1.983  0.00  0.00    +0.292 HD
ENDBRANCH  13  33
BRANCH  13  35
ATOM     35  C   UNL     1     -40.377  25.614   0.828  0.00  0.00    +0.036 C 
ATOM     36  C   UNL     1     -41.658  25.214   0.893  0.00  0.00    +0.003 C 
BRANCH  36  37
ATOM     37  C   UNL     1     -42.634  25.843   1.756  0.00  0.00    -0.004 C 
ATOM     38  C   UNL     1     -42.300  26.570   2.832  0.00  0.00    -0.026 C 
ATOM     39  C   UNL     1     -43.297  27.225   3.731  0.00  0.00    +0.031 C 
ENDBRANCH  36  37
ENDBRANCH  13  35
TORSDOF 9
ENDMDL
MODEL 4
REMARK VINA RESULT:      -6.4      7.741     11.692
REMARK  Name = 54734315
REMARK  9 active torsions:
REMARK  status: ('A' for Active; 'I' for Inactive)
REMARK    1  A    between atoms: C_3  and  C_16
REMARK    2  A    between atoms: C_6  and  C_27
REMARK    3  A    between atoms: C_7  and  O_24
REMARK    4  A    between atoms: C_13  and  O_33
REMARK    5  A    between atoms: C_13  and  C_35
REMARK    6  A    between atoms: C_17  and  O_22
REMARK    7  A    between atoms: C_27  and  C_28
REMARK    8  A    between atoms: C_29  and  C_30
REMARK    9  A    between atoms: C_36  and  C_37
REMARK                            x       y       z     vdW  Elec       q    Type
REMARK                         _______ _______ _______ _____ _____    ______ ____
ROOT
ATOM      1  O   UNL     1     -42.306  29.145   2.439  0.00  0.00    -0.293 OA
ATOM      2  O   UNL     1     -46.556  28.973   1.625  0.00  0.00    -0.291 OA
ATOM      3  C   UNL     1     -44.931  28.010   5.224  0.00  0.00    +0.059 C 
ATOM      4  C   UNL     1     -44.744  26.963   4.080  0.00  0.00    +0.064 C 
ATOM      5  C   UNL     1     -44.643  29.411   3.097  0.00  0.00    +0.116 C 
ATOM      6  C   UNL     1     -44.948  29.450   4.623  0.00  0.00    +0.080 C 
ATOM      7  C   UNL     1     -43.358  27.188   3.407  0.00  0.00    +0.143 C 
ATOM      8  C   UNL     1     -43.320  28.640   2.913  0.00  0.00    +0.181 C 
ATOM      9  C   UNL     1     -45.833  27.184   3.050  0.00  0.00    +0.049 C 
ATOM     10  C   UNL     1     -45.777  28.571   2.480  0.00  0.00    +0.178 C 
ATOM     11  C   UNL     1     -44.590  30.798   2.459  0.00  0.00    +0.016 C 
ATOM     12  C   UNL     1     -43.079  26.223   2.255  0.00  0.00    +0.037 C 
ATOM     13  C   UNL     1     -46.754  26.298   2.659  0.00  0.00    +0.132 C 
ENDROOT
BRANCH   3  16
ATOM     14  O   UNL     1     -47.318  28.260   5.318  0.00  0.00    -0.446 OA
ATOM     15  O   UNL     1     -48.938  29.847   5.692  0.00  0.00    -0.245 OA
ATOM     16  C   UNL     1     -46.193  27.748   6.054  0.00  0.00    +0.186 C 
ATOM     17  C   UNL     1     -46.234  28.542   7.302  0.00  0.00    +0.149 C 
ATOM     18  C   UNL     1     -46.407  26.256   6.283  0.00  0.00    +0.052 C 
ATOM     19  C   UNL     1     -47.245  29.409   7.326  0.00  0.00    +0.086 C 
ATOM     20  C   UNL     1     -47.949  29.229   6.047  0.00  0.00    +0.340 C 
ATOM     21  C   UNL     1     -47.661  30.384   8.359  0.00  0.00    +0.041 C 
BRANCH  17  22
ATOM     22  O   UNL     1     -45.313  28.369   8.298  0.00  0.00    -0.506 OA
ATOM     23  H   UNL     1     -45.286  28.966   9.019  0.00  0.00    +0.292 HD
ENDBRANCH  17  22
ENDBRANCH   3  16
BRANCH   7  24
ATOM     24  O   UNL     1     -42.332  27.041   4.380  0.00  0.00    -0.379 OA
ATOM     25  H   UNL     1     -41.674  27.745   4.266  0.00  0.00    +0.211 HD
ENDBRANCH   7  24
BRANCH   6  27
ATOM     26  O   UNL     1     -42.848  29.926   5.644  0.00  0.00    -0.291 OA
ATOM     27  C   UNL     1     -43.974  30.325   5.361  0.00  0.00    +0.174 C 
BRANCH  27  28
ATOM     28  C   UNL     1     -44.460  31.678   5.756  0.00  0.00    +0.037 C 
ATOM     29  C   UNL     1     -45.707  32.065   5.462  0.00  0.00    +0.003 C 
BRANCH  29  30
ATOM     30  C   UNL     1     -46.225  33.367   5.823  0.00  0.00    -0.004 C 
ATOM     31  C   UNL     1     -47.386  33.542   6.471  0.00  0.00    -0.026 C 
ATOM     32  C   UNL     1     -47.931  34.880   6.848  0.00  0.00    +0.031 C 
ENDBRANCH  29  30
ENDBRANCH  27  28
ENDBRANCH   6  27
BRANCH  13  33
ATOM     33  O   UNL     1     -47.708  26.607   1.706  0.00  0.00    -0.506 OA
ATOM     34  H   UNL     1     -47.443  26.859   0.843  0.00  0.00    +0.292 HD
ENDBRANCH  13  33
BRANCH  13  35
ATOM     35  C   UNL     1     -46.823  24.951   3.200  0.00  0.00    +0.036 C 
ATOM     36  C   UNL     1     -47.950  24.291   3.514  0.00  0.00    +0.003 C 
BRANCH  36  37
ATOM     37  C   UNL     1     -47.950  22.948   4.051  0.00  0.00    -0.004 C 
ATOM     38  C   UNL     1     -48.681  22.583   5.115  0.00  0.00    -0.026 C 
ATOM     39  C   UNL     1     -48.691  21.200   5.679  0.00  0.00    +0.031 C 
ENDBRANCH  36  37
ENDBRANCH  13  35
TORSDOF 9
ENDMDL
MODEL 5
REMARK VINA RESULT:      -6.2      2.230      5.476
REMARK  Name = 54734315
REMARK  9 active torsions:
REMARK  status: ('A' for Active; 'I' for Inactive)
REMARK    1  A    between atoms: C_3  and  C_16
REMARK    2  A    between atoms: C_6  and  C_27
REMARK    3  A    between atoms: C_7  and  O_24
REMARK    4  A    between atoms: C_13  and  O_33
REMARK    5  A    between atoms: C_13  and  C_35
REMARK    6  A    between atoms: C_17  and  O_22
REMARK    7  A    between atoms: C_27  and  C_28
REMARK    8  A    between atoms: C_29  and  C_30
REMARK    9  A    between atoms: C_36  and  C_37
REMARK                            x       y       z     vdW  Elec       q    Type
REMARK                         _______ _______ _______ _____ _____    ______ ____
ROOT
ATOM      1  O   UNL     1     -40.004  23.867   1.275  0.00  0.00    -0.293 OA
ATOM      2  O   UNL     1     -37.060  22.894   4.299  0.00  0.00    -0.291 OA
ATOM      3  C   UNL     1     -36.089  23.983   0.505  0.00  0.00    +0.059 C 
ATOM      4  C   UNL     1     -36.645  22.535   0.687  0.00  0.00    +0.064 C 
ATOM      5  C   UNL     1     -37.841  24.185   2.365  0.00  0.00    +0.116 C 
ATOM      6  C   UNL     1     -36.744  24.935   1.555  0.00  0.00    +0.080 C 
ATOM      7  C   UNL     1     -38.175  22.540   0.399  0.00  0.00    +0.143 C 
ATOM      8  C   UNL     1     -38.817  23.560   1.348  0.00  0.00    +0.181 C 
ATOM      9  C   UNL     1     -36.417  22.113   2.124  0.00  0.00    +0.049 C 
ATOM     10  C   UNL     1     -37.101  23.042   3.085  0.00  0.00    +0.178 C 
ATOM     11  C   UNL     1     -38.561  25.080   3.372  0.00  0.00    +0.016 C 
ATOM     12  C   UNL     1     -38.829  21.168   0.565  0.00  0.00    +0.037 C 
ATOM     13  C   UNL     1     -35.707  21.062   2.545  0.00  0.00    +0.132 C 
ENDROOT
BRANCH   3  16
ATOM     14  O   UNL     1     -34.204  24.056   1.993  0.00  0.00    -0.446 OA
ATOM     15  O   UNL     1     -33.070  25.500   3.376  0.00  0.00    -0.245 OA
ATOM     16  C   UNL     1     -34.559  24.036   0.599  0.00  0.00    +0.186 C 
ATOM     17  C   UNL     1     -33.998  25.312   0.103  0.00  0.00    +0.149 C 
ATOM     18  C   UNL     1     -33.921  22.807  -0.041  0.00  0.00    +0.052 C 
ATOM     19  C   UNL     1     -33.380  26.007   1.058  0.00  0.00    +0.086 C 
ATOM     20  C   UNL     1     -33.510  25.198   2.280  0.00  0.00    +0.340 C 
ATOM     21  C   UNL     1     -32.686  27.312   1.010  0.00  0.00    +0.041 C 
BRANCH  17  22
ATOM     22  O   UNL     1     -34.120  25.694  -1.204  0.00  0.00    -0.506 OA
ATOM     23  H   UNL     1     -34.937  25.584  -1.649  0.00  0.00    +0.292 HD
ENDBRANCH  17  22
ENDBRANCH   3  16
BRANCH   7  24
ATOM     24  O   UNL     1     -38.403  22.991  -0.930  0.00  0.00    -0.379 OA
ATOM     25  H   UNL     1     -38.138  23.921  -1.006  0.00  0.00    +0.211 HD
ENDBRANCH   7  24
BRANCH   6  27
ATOM     26  O   UNL     1     -37.920  26.059  -0.187  0.00  0.00    -0.291 OA
ATOM     27  C   UNL     1     -37.297  26.152   0.867  0.00  0.00    +0.174 C 
BRANCH  27  28
ATOM     28  C   UNL     1     -37.019  27.466   1.512  0.00  0.00    +0.037 C 
ATOM     29  C   UNL     1     -36.227  28.364   0.914  0.00  0.00    +0.003 C 
BRANCH  29  30
ATOM     30  C   UNL     1     -35.927  29.653   1.499  0.00  0.00    -0.004 C 
ATOM     31  C   UNL     1     -35.188  29.801   2.608  0.00  0.00    -0.026 C 
ATOM     32  C   UNL     1     -34.870  31.125   3.222  0.00  0.00    +0.031 C 
ENDBRANCH  29  30
ENDBRANCH  27  28
ENDBRANCH   6  27
BRANCH  13  33
ATOM     33  O   UNL     1     -35.562  20.768   3.889  0.00  0.00    -0.506 OA
ATOM     34  H   UNL     1     -36.298  20.466   4.384  0.00  0.00    +0.292 HD
ENDBRANCH  13  33
BRANCH  13  35
ATOM     35  C   UNL     1     -35.039  20.153   1.629  0.00  0.00    +0.036 C 
ATOM     36  C   UNL     1     -33.890  19.500   1.875  0.00  0.00    +0.003 C 
BRANCH  36  37
ATOM     37  C   UNL     1     -33.275  18.607   0.918  0.00  0.00    -0.004 C 
ATOM     38  C   UNL     1     -32.091  18.013   1.125  0.00  0.00    -0.026 C 
ATOM     39  C   UNL     1     -31.445  17.088   0.146  0.00  0.00    +0.031 C 
ENDBRANCH  36  37
ENDBRANCH  13  35
TORSDOF 9
ENDMDL
MODEL 6
REMARK VINA RESULT:      -6.2      2.276      5.529
REMARK  Name = 54734315
REMARK  9 active torsions:
REMARK  status: ('A' for Active; 'I' for Inactive)
REMARK    1  A    between atoms: C_3  and  C_16
REMARK    2  A    between atoms: C_6  and  C_27
REMARK    3  A    between atoms: C_7  and  O_24
REMARK    4  A    between atoms: C_13  and  O_33
REMARK    5  A    between atoms: C_13  and  C_35
REMARK    6  A    between atoms: C_17  and  O_22
REMARK    7  A    between atoms: C_27  and  C_28
REMARK    8  A    between atoms: C_29  and  C_30
REMARK    9  A    between atoms: C_36  and  C_37
REMARK                            x       y       z     vdW  Elec       q    Type
REMARK                         _______ _______ _______ _____ _____    ______ ____
ROOT
ATOM      1  O   UNL     1     -40.934  24.425   0.773  0.00  0.00    -0.293 OA
ATOM      2  O   UNL     1     -36.936  25.354  -0.608  0.00  0.00    -0.291 OA
ATOM      3  C   UNL     1     -37.708  22.707   2.378  0.00  0.00    +0.059 C 
ATOM      4  C   UNL     1     -37.854  24.219   2.741  0.00  0.00    +0.064 C 
ATOM      5  C   UNL     1     -38.631  23.803   0.252  0.00  0.00    +0.116 C 
ATOM      6  C   UNL     1     -38.094  22.484   0.882  0.00  0.00    +0.080 C 
ATOM      7  C   UNL     1     -39.348  24.634   2.593  0.00  0.00    +0.143 C 
ATOM      8  C   UNL     1     -39.773  24.311   1.155  0.00  0.00    +0.181 C 
ATOM      9  C   UNL     1     -37.021  25.026   1.767  0.00  0.00    +0.049 C 
ATOM     10  C   UNL     1     -37.461  24.801   0.350  0.00  0.00    +0.178 C 
ATOM     11  C   UNL     1     -39.080  23.637  -1.198  0.00  0.00    +0.016 C 
ATOM     12  C   UNL     1     -39.603  26.107   2.910  0.00  0.00    +0.037 C 
ATOM     13  C   UNL     1     -36.011  25.847   2.069  0.00  0.00    +0.132 C 
ENDROOT
BRANCH   3  16
ATOM     14  O   UNL     1     -35.378  22.883   1.821  0.00  0.00    -0.446 OA
ATOM     15  O   UNL     1     -33.883  22.308   0.173  0.00  0.00    -0.245 OA
ATOM     16  C   UNL     1     -36.300  22.172   2.665  0.00  0.00    +0.186 C 
ATOM     17  C   UNL     1     -36.120  20.768   2.231  0.00  0.00    +0.149 C 
ATOM     18  C   UNL     1     -35.902  22.408   4.118  0.00  0.00    +0.052 C 
ATOM     19  C   UNL     1     -35.211  20.643   1.265  0.00  0.00    +0.086 C 
ATOM     20  C   UNL     1     -34.728  22.006   0.999  0.00  0.00    +0.340 C 
ATOM     21  C   UNL     1     -34.719  19.446   0.548  0.00  0.00    +0.041 C 
BRANCH  17  22
ATOM     22  O   UNL     1     -36.830  19.743   2.791  0.00  0.00    -0.506 OA
ATOM     23  H   UNL     1     -36.633  19.459   3.662  0.00  0.00    +0.292 HD
ENDBRANCH  17  22
ENDBRANCH   3  16
BRANCH   7  24
ATOM     24  O   UNL     1     -40.146  23.840   3.462  0.00  0.00    -0.379 OA
ATOM     25  H   UNL     1     -40.112  22.913   3.177  0.00  0.00    +0.211 HD
ENDBRANCH   7  24
BRANCH   6  27
ATOM     26  O   UNL     1     -39.933  21.177   1.649  0.00  0.00    -0.291 OA
ATOM     27  C   UNL     1     -39.096  21.369   0.772  0.00  0.00    +0.174 C 
BRANCH  27  28
ATOM     28  C   UNL     1     -38.995  20.499  -0.433  0.00  0.00    +0.037 C 
ATOM     29  C   UNL     1     -38.242  19.392  -0.412  0.00  0.00    +0.003 C 
BRANCH  29  30
ATOM     30  C   UNL     1     -38.111  18.515  -1.555  0.00  0.00    -0.004 C 
ATOM     31  C   UNL     1     -37.472  17.337  -1.508  0.00  0.00    -0.026 C 
ATOM     32  C   UNL     1     -37.330  16.424  -2.681  0.00  0.00    +0.031 C 
ENDBRANCH  29  30
ENDBRANCH  27  28
ENDBRANCH   6  27
BRANCH  13  33
ATOM     33  O   UNL     1     -35.314  26.538   1.094  0.00  0.00    -0.506 OA
ATOM     34  H   UNL     1     -35.236  26.181   0.232  0.00  0.00    +0.292 HD
ENDBRANCH  13  33
BRANCH  13  35
ATOM     35  C   UNL     1     -35.572  26.075   3.435  0.00  0.00    +0.036 C 
ATOM     36  C   UNL     1     -34.383  25.712   3.945  0.00  0.00    +0.003 C 
BRANCH  36  37
ATOM     37  C   UNL     1     -34.006  25.970   5.318  0.00  0.00    -0.004 C 
ATOM     38  C   UNL     1     -33.122  26.916   5.670  0.00  0.00    -0.026 C 
ATOM     39  C   UNL     1     -32.725  27.193   7.084  0.00  0.00    +0.031 C 
ENDBRANCH  36  37
ENDBRANCH  13  35
TORSDOF 9
ENDMDL
MODEL 7
REMARK VINA RESULT:      -6.2      3.206      7.598
REMARK  Name = 54734315
REMARK  9 active torsions:
REMARK  status: ('A' for Active; 'I' for Inactive)
REMARK    1  A    between atoms: C_3  and  C_16
REMARK    2  A    between atoms: C_6  and  C_27
REMARK    3  A    between atoms: C_7  and  O_24
REMARK    4  A    between atoms: C_13  and  O_33
REMARK    5  A    between atoms: C_13  and  C_35
REMARK    6  A    between atoms: C_17  and  O_22
REMARK    7  A    between atoms: C_27  and  C_28
REMARK    8  A    between atoms: C_29  and  C_30
REMARK    9  A    between atoms: C_36  and  C_37
REMARK                            x       y       z     vdW  Elec       q    Type
REMARK                         _______ _______ _______ _____ _____    ______ ____
ROOT
ATOM      1  O   UNL     1     -34.433  24.286  -2.117  0.00  0.00    -0.293 OA
ATOM      2  O   UNL     1     -31.995  25.565   1.226  0.00  0.00    -0.291 OA
ATOM      3  C   UNL     1     -35.945  24.663   1.558  0.00  0.00    +0.059 C 
ATOM      4  C   UNL     1     -35.603  26.028   0.882  0.00  0.00    +0.064 C 
ATOM      5  C   UNL     1     -33.792  24.218   0.238  0.00  0.00    +0.116 C 
ATOM      6  C   UNL     1     -34.827  23.621   1.236  0.00  0.00    +0.080 C 
ATOM      7  C   UNL     1     -35.592  25.841  -0.664  0.00  0.00    +0.143 C 
ATOM      8  C   UNL     1     -34.578  24.735  -0.984  0.00  0.00    +0.181 C 
ATOM      9  C   UNL     1     -34.221  26.452   1.336  0.00  0.00    +0.049 C 
ATOM     10  C   UNL     1     -33.184  25.432   0.967  0.00  0.00    +0.178 C 
ATOM     11  C   UNL     1     -32.702  23.226  -0.161  0.00  0.00    +0.016 C 
ATOM     12  C   UNL     1     -35.250  27.120  -1.428  0.00  0.00    +0.037 C 
ATOM     13  C   UNL     1     -33.904  27.576   1.987  0.00  0.00    +0.132 C 
ENDROOT
BRANCH   3  16
ATOM     14  O   UNL     1     -34.904  25.230   3.648  0.00  0.00    -0.446 OA
ATOM     15  O   UNL     1     -33.433  24.389   5.201  0.00  0.00    -0.245 OA
ATOM     16  C   UNL     1     -36.149  24.796   3.072  0.00  0.00    +0.186 C 
ATOM     17  C   UNL     1     -36.377  23.494   3.737  0.00  0.00    +0.149 C 
ATOM     18  C   UNL     1     -37.217  25.835   3.399  0.00  0.00    +0.052 C 
ATOM     19  C   UNL     1     -35.411  23.183   4.602  0.00  0.00    +0.086 C 
ATOM     20  C   UNL     1     -34.459  24.303   4.547  0.00  0.00    +0.340 C 
ATOM     21  C   UNL     1     -35.236  22.001   5.474  0.00  0.00    +0.041 C 
BRANCH  17  22
ATOM     22  O   UNL     1     -37.476  22.728   3.465  0.00  0.00    -0.506 OA
ATOM     23  H   UNL     1     -38.321  23.000   3.763  0.00  0.00    +0.292 HD
ENDBRANCH  17  22
ENDBRANCH   3  16
BRANCH   7  24
ATOM     24  O   UNL     1     -36.869  25.386  -1.092  0.00  0.00    -0.379 OA
ATOM     25  H   UNL     1     -37.533  26.072  -0.920  0.00  0.00    +0.211 HD
ENDBRANCH   7  24
BRANCH   6  27
ATOM     26  O   UNL     1     -36.629  22.311   0.388  0.00  0.00    -0.291 OA
ATOM     27  C   UNL     1     -35.443  22.357   0.706  0.00  0.00    +0.174 C 
BRANCH  27  28
ATOM     28  C   UNL     1     -34.552  21.166   0.621  0.00  0.00    +0.037 C 
ATOM     29  C   UNL     1     -34.537  20.255   1.603  0.00  0.00    +0.003 C 
BRANCH  29  30
ATOM     30  C   UNL     1     -33.690  19.083   1.568  0.00  0.00    -0.004 C 
ATOM     31  C   UNL     1     -32.491  19.061   0.966  0.00  0.00    -0.026 C 
ATOM     32  C   UNL     1     -31.608  17.858   0.924  0.00  0.00    +0.031 C 
ENDBRANCH  29  30
ENDBRANCH  27  28
ENDBRANCH   6  27
BRANCH  13  33
ATOM     33  O   UNL     1     -32.602  27.864   2.355  0.00  0.00    -0.506 OA
ATOM     34  H   UNL     1     -32.422  28.212   3.206  0.00  0.00    +0.292 HD
ENDBRANCH  13  33
BRANCH  13  35
ATOM     35  C   UNL     1     -34.894  28.574   2.352  0.00  0.00    +0.036 C 
ATOM     36  C   UNL     1     -34.930  29.841   1.905  0.00  0.00    +0.003 C 
BRANCH  36  37
ATOM     37  C   UNL     1     -35.946  30.788   2.309  0.00  0.00    -0.004 C 
ATOM     38  C   UNL     1     -36.686  31.487   1.435  0.00  0.00    -0.026 C 
ATOM     39  C   UNL     1     -37.739  32.466   1.839  0.00  0.00    +0.031 C 
ENDBRANCH  36  37
ENDBRANCH  13  35
TORSDOF 9
ENDMDL
MODEL 8
REMARK VINA RESULT:      -6.2      2.002      4.677
REMARK  Name = 54734315
REMARK  9 active torsions:
REMARK  status: ('A' for Active; 'I' for Inactive)
REMARK    1  A    between atoms: C_3  and  C_16
REMARK    2  A    between atoms: C_6  and  C_27
REMARK    3  A    between atoms: C_7  and  O_24
REMARK    4  A    between atoms: C_13  and  O_33
REMARK    5  A    between atoms: C_13  and  C_35
REMARK    6  A    between atoms: C_17  and  O_22
REMARK    7  A    between atoms: C_27  and  C_28
REMARK    8  A    between atoms: C_29  and  C_30
REMARK    9  A    between atoms: C_36  and  C_37
REMARK                            x       y       z     vdW  Elec       q    Type
REMARK                         _______ _______ _______ _____ _____    ______ ____
ROOT
ATOM      1  O   UNL     1     -39.837  23.622  -1.022  0.00  0.00    -0.293 OA
ATOM      2  O   UNL     1     -38.829  20.934   2.221  0.00  0.00    -0.291 OA
ATOM      3  C   UNL     1     -36.558  24.146   1.195  0.00  0.00    +0.059 C 
ATOM      4  C   UNL     1     -36.477  22.910   0.243  0.00  0.00    +0.064 C 
ATOM      5  C   UNL     1     -38.925  23.161   1.197  0.00  0.00    +0.116 C 
ATOM      6  C   UNL     1     -37.988  24.240   1.814  0.00  0.00    +0.080 C 
ATOM      7  C   UNL     1     -37.469  23.113  -0.939  0.00  0.00    +0.143 C 
ATOM      8  C   UNL     1     -38.864  23.323  -0.336  0.00  0.00    +0.181 C 
ATOM      9  C   UNL     1     -36.888  21.679   1.024  0.00  0.00    +0.049 C 
ATOM     10  C   UNL     1     -38.282  21.810   1.563  0.00  0.00    +0.178 C 
ATOM     11  C   UNL     1     -40.358  23.239   1.722  0.00  0.00    +0.016 C 
ATOM     12  C   UNL     1     -37.483  21.947  -1.928  0.00  0.00    +0.037 C 
ATOM     13  C   UNL     1     -36.149  20.587   1.242  0.00  0.00    +0.132 C 
ENDROOT
BRANCH   3  16
ATOM     14  O   UNL     1     -35.835  23.059   3.211  0.00  0.00    -0.446 OA
ATOM     15  O   UNL     1     -36.325  22.938   5.453  0.00  0.00    -0.245 OA
ATOM     16  C   UNL     1     -35.488  24.109   2.291  0.00  0.00    +0.186 C 
ATOM     17  C   UNL     1     -35.507  25.313   3.152  0.00  0.00    +0.149 C 
ATOM     18  C   UNL     1     -34.110  23.804   1.713  0.00  0.00    +0.052 C 
ATOM     19  C   UNL     1     -35.814  25.034   4.418  0.00  0.00    +0.086 C 
ATOM     20  C   UNL     1     -36.026  23.579   4.461  0.00  0.00    +0.340 C 
ATOM     21  C   UNL     1     -35.942  25.915   5.600  0.00  0.00    +0.041 C 
BRANCH  17  22
ATOM     22  O   UNL     1     -35.229  26.557   2.658  0.00  0.00    -0.506 OA
ATOM     23  H   UNL     1     -35.928  27.133   2.421  0.00  0.00    +0.292 HD
ENDBRANCH  17  22
ENDBRANCH   3  16
BRANCH   7  24
ATOM     24  O   UNL     1     -37.127  24.300  -1.644  0.00  0.00    -0.379 OA
ATOM     25  H   UNL     1     -37.517  25.067  -1.196  0.00  0.00    +0.211 HD
ENDBRANCH   7  24
BRANCH   6  27
ATOM     26  O   UNL     1     -38.217  26.312   0.659  0.00  0.00    -0.291 OA
ATOM     27  C   UNL     1     -38.538  25.626   1.626  0.00  0.00    +0.174 C 
BRANCH  27  28
ATOM     28  C   UNL     1     -39.457  26.128   2.686  0.00  0.00    +0.037 C 
ATOM     29  C   UNL     1     -40.749  26.352   2.415  0.00  0.00    +0.003 C 
BRANCH  29  30
ATOM     30  C   UNL     1     -41.682  26.839   3.408  0.00  0.00    -0.004 C 
ATOM     31  C   UNL     1     -43.005  26.636   3.335  0.00  0.00    -0.026 C 
ATOM     32  C   UNL     1     -43.978  27.134   4.353  0.00  0.00    +0.031 C 
ENDBRANCH  29  30
ENDBRANCH  27  28
ENDBRANCH   6  27
BRANCH  13  33
ATOM     33  O   UNL     1     -36.626  19.515   1.974  0.00  0.00    -0.506 OA
ATOM     34  H   UNL     1     -36.463  19.467   2.895  0.00  0.00    +0.292 HD
ENDBRANCH  13  33
BRANCH  13  35
ATOM     35  C   UNL     1     -34.798  20.443   0.728  0.00  0.00    +0.036 C 
ATOM     36  C   UNL     1     -33.845  19.648   1.245  0.00  0.00    +0.003 C 
BRANCH  36  37
ATOM     37  C   UNL     1     -32.515  19.550   0.684  0.00  0.00    -0.004 C 
ATOM     38  C   UNL     1     -31.956  20.522  -0.053  0.00  0.00    -0.026 C 
ATOM     39  C   UNL     1     -30.584  20.434  -0.637  0.00  0.00    +0.031 C 
ENDBRANCH  36  37
ENDBRANCH  13  35
TORSDOF 9
ENDMDL
MODEL 9
REMARK VINA RESULT:      -6.1      1.894      7.062
REMARK  Name = 54734315
REMARK  9 active torsions:
REMARK  status: ('A' for Active; 'I' for Inactive)
REMARK    1  A    between atoms: C_3  and  C_16
REMARK    2  A    between atoms: C_6  and  C_27
REMARK    3  A    between atoms: C_7  and  O_24
REMARK    4  A    between atoms: C_13  and  O_33
REMARK    5  A    between atoms: C_13  and  C_35
REMARK    6  A    between atoms: C_17  and  O_22
REMARK    7  A    between atoms: C_27  and  C_28
REMARK    8  A    between atoms: C_29  and  C_30
REMARK    9  A    between atoms: C_36  and  C_37
REMARK                            x       y       z     vdW  Elec       q    Type
REMARK                         _______ _______ _______ _____ _____    ______ ____
ROOT
ATOM      1  O   UNL     1     -34.653  26.752  -0.345  0.00  0.00    -0.293 OA
ATOM      2  O   UNL     1     -35.113  24.921   3.553  0.00  0.00    -0.291 OA
ATOM      3  C   UNL     1     -37.011  23.580   0.218  0.00  0.00    +0.059 C 
ATOM      4  C   UNL     1     -37.572  24.893   0.850  0.00  0.00    +0.064 C 
ATOM      5  C   UNL     1     -34.946  24.811   1.108  0.00  0.00    +0.116 C 
ATOM      6  C   UNL     1     -35.468  23.503   0.445  0.00  0.00    +0.080 C 
ATOM      7  C   UNL     1     -36.945  26.117   0.118  0.00  0.00    +0.143 C 
ATOM      8  C   UNL     1     -35.421  25.990   0.235  0.00  0.00    +0.181 C 
ATOM      9  C   UNL     1     -37.164  24.932   2.309  0.00  0.00    +0.049 C 
ATOM     10  C   UNL     1     -35.672  24.894   2.464  0.00  0.00    +0.178 C 
ATOM     11  C   UNL     1     -33.431  24.820   1.305  0.00  0.00    +0.016 C 
ATOM     12  C   UNL     1     -37.415  27.462   0.672  0.00  0.00    +0.037 C 
ATOM     13  C   UNL     1     -37.981  24.991   3.365  0.00  0.00    +0.132 C 
ENDROOT
BRANCH   3  16
ATOM     14  O   UNL     1     -37.073  21.976   2.005  0.00  0.00    -0.446 OA
ATOM     15  O   UNL     1     -35.938  20.145   2.807  0.00  0.00    -0.245 OA
ATOM     16  C   UNL     1     -37.707  22.327   0.762  0.00  0.00    +0.186 C 
ATOM     17  C   UNL     1     -37.469  21.130  -0.074  0.00  0.00    +0.149 C 
ATOM     18  C   UNL     1     -39.185  22.587   1.034  0.00  0.00    +0.052 C 
ATOM     19  C   UNL     1     -36.793  20.180   0.572  0.00  0.00    +0.086 C 
ATOM     20  C   UNL     1     -36.537  20.722   1.915  0.00  0.00    +0.340 C 
ATOM     21  C   UNL     1     -36.345  18.840   0.130  0.00  0.00    +0.041 C 
BRANCH  17  22
ATOM     22  O   UNL     1     -37.916  21.049  -1.363  0.00  0.00    -0.506 OA
ATOM     23  H   UNL     1     -37.744  20.281  -1.871  0.00  0.00    +0.292 HD
ENDBRANCH  17  22
ENDBRANCH   3  16
BRANCH   7  24
ATOM     24  O   UNL     1     -37.273  26.057  -1.264  0.00  0.00    -0.379 OA
ATOM     25  H   UNL     1     -36.625  25.504  -1.727  0.00  0.00    +0.211 HD
ENDBRANCH   7  24
BRANCH   6  27
ATOM     26  O   UNL     1     -34.961  23.933  -1.844  0.00  0.00    -0.291 OA
ATOM     27  C   UNL     1     -34.772  23.225  -0.858  0.00  0.00    +0.174 C 
BRANCH  27  28
ATOM     28  C   UNL     1     -33.877  22.035  -0.894  0.00  0.00    +0.037 C 
ATOM     29  C   UNL     1     -33.441  21.475   0.241  0.00  0.00    +0.003 C 
BRANCH  29  30
ATOM     30  C   UNL     1     -32.570  20.320   0.259  0.00  0.00    -0.004 C 
ATOM     31  C   UNL     1     -32.804  19.236   1.012  0.00  0.00    -0.026 C 
ATOM     32  C   UNL     1     -31.912  18.038   1.039  0.00  0.00    +0.031 C 
ENDBRANCH  29  30
ENDBRANCH  27  28
ENDBRANCH   6  27
BRANCH  13  33
ATOM     33  O   UNL     1     -37.499  25.022   4.661  0.00  0.00    -0.506 OA
ATOM     34  H   UNL     1     -37.128  24.250   5.042  0.00  0.00    +0.292 HD
ENDBRANCH  13  33
BRANCH  13  35
ATOM     35  C   UNL     1     -39.427  25.029   3.234  0.00  0.00    +0.036 C 
ATOM     36  C   UNL     1     -40.158  26.120   2.950  0.00  0.00    +0.003 C 
BRANCH  36  37
ATOM     37  C   UNL     1     -41.600  26.091   2.833  0.00  0.00    -0.004 C 
ATOM     38  C   UNL     1     -42.415  26.797   3.630  0.00  0.00    -0.026 C 
ATOM     39  C   UNL     1     -43.904  26.777   3.519  0.00  0.00    +0.031 C 
ENDBRANCH  36  37
ENDBRANCH  13  35
TORSDOF 9
ENDMDL
