MODEL 1
REMARK VINA RESULT:      -6.0      0.000      0.000
REMARK  Name = 54742254
REMARK  11 active torsions:
REMARK  status: ('A' for Active; 'I' for Inactive)
REMARK    1  A    between atoms: C_4  and  C_19
REMARK    2  A    between atoms: C_9  and  O_10
REMARK    3  A    between atoms: C_9  and  C_12
REMARK    4  A    between atoms: C_13  and  C_14
REMARK    5  A    between atoms: C_15  and  C_16
REMARK    6  A    between atoms: C_16  and  C_17
REMARK    7  A    between atoms: C_19  and  C_20
REMARK    8  A    between atoms: C_20  and  C_21
REMARK    9  A    between atoms: C_20  and  O_24
REMARK   10  A    between atoms: C_20  and  C_27
REMARK   11  A    between atoms: C_27  and  O_28
REMARK                            x       y       z     vdW  Elec       q    Type
REMARK                         _______ _______ _______ _____ _____    ______ ____
ROOT
ATOM      1  O   UNL     1     -34.500  22.919   2.506  0.00  0.00    -0.289 OA
ATOM      2  O   UNL     1     -38.980  21.503   2.218  0.00  0.00    -0.270 OA
ATOM      3  N   UNL     1     -37.926  23.573   2.688  0.00  0.00    -0.269 N 
ATOM      4  C   UNL     1     -36.578  24.154   2.816  0.00  0.00    +0.141 C 
ATOM      5  C   UNL     1     -35.720  22.943   2.523  0.00  0.00    +0.198 C 
ATOM      6  C   UNL     1     -36.598  21.784   2.267  0.00  0.00    +0.123 C 
ATOM      7  C   UNL     1     -38.003  22.211   2.378  0.00  0.00    +0.255 C 
ATOM      8  C   UNL     1     -39.103  24.412   2.821  0.00  0.00    +0.116 C 
ATOM      9  C   UNL     1     -36.183  20.542   1.980  0.00  0.00    +0.141 C 
ENDROOT
BRANCH   9  10
ATOM     10  O   UNL     1     -37.075  19.512   1.755  0.00  0.00    -0.505 OA
ATOM     11  H   UNL     1     -37.908  19.511   2.183  0.00  0.00    +0.292 HD
ENDBRANCH   9  10
BRANCH   9  12
ATOM     12  C   UNL     1     -34.778  20.193   1.887  0.00  0.00    +0.037 C 
ATOM     13  C   UNL     1     -34.271  19.188   1.155  0.00  0.00    +0.003 C 
BRANCH  13  14
ATOM     14  C   UNL     1     -32.856  18.888   1.104  0.00  0.00    -0.004 C 
ATOM     15  C   UNL     1     -32.025  19.427   0.199  0.00  0.00    -0.026 C 
BRANCH  15  16
ATOM     16  C   UNL     1     -30.553  19.128   0.141  0.00  0.00    +0.026 C 
BRANCH  16  17
ATOM     17  C   UNL     1     -30.236  17.785   0.801  0.00  0.00    +0.005 C 
ATOM     18  C   UNL     1     -28.762  17.679   1.161  0.00  0.00    +0.000 C 
ENDBRANCH  16  17
ENDBRANCH  15  16
ENDBRANCH  13  14
ENDBRANCH   9  12
BRANCH   4  19
ATOM     19  C   UNL     1     -36.288  24.706   4.199  0.00  0.00    +0.066 C 
BRANCH  19  20
ATOM     20  C   UNL     1     -35.340  25.934   4.236  0.00  0.00    +0.179 C 
BRANCH  20  21
ATOM     21  C   UNL     1     -34.995  26.438   2.801  0.00  0.00    +0.035 C 
ATOM     22  C   UNL     1     -33.529  26.247   2.395  0.00  0.00    +0.003 C 
ATOM     23  C   UNL     1     -35.395  27.904   2.570  0.00  0.00    +0.003 C 
ENDBRANCH  20  21
BRANCH  20  24
ATOM     24  O   UNL     1     -36.022  27.000   4.895  0.00  0.00    -0.376 OA
ATOM     25  H   UNL     1     -35.611  27.163   5.759  0.00  0.00    +0.211 HD
ENDBRANCH  20  24
BRANCH  20  27
ATOM     26  O   UNL     1     -33.390  26.398   5.634  0.00  0.00    -0.248 OA
ATOM     27  C   UNL     1     -34.062  25.587   5.009  0.00  0.00    +0.338 C 
BRANCH  27  28
ATOM     28  O   UNL     1     -33.743  24.268   4.954  0.00  0.00    -0.479 OA
ATOM     29  H   UNL     1     -32.853  24.006   4.826  0.00  0.00    +0.295 HD
ENDBRANCH  27  28
ENDBRANCH  20  27
ENDBRANCH  19  20
ENDBRANCH   4  19
TORSDOF 11
ENDMDL
MODEL 2
REMARK VINA RESULT:      -6.0      2.141      7.198
REMARK  Name = 54742254
REMARK  11 active torsions:
REMARK  status: ('A' for Active; 'I' for Inactive)
REMARK    1  A    between atoms: C_4  and  C_19
REMARK    2  A    between atoms: C_9  and  O_10
REMARK    3  A    between atoms: C_9  and  C_12
REMARK    4  A    between atoms: C_13  and  C_14
REMARK    5  A    between atoms: C_15  and  C_16
REMARK    6  A    between atoms: C_16  and  C_17
REMARK    7  A    between atoms: C_19  and  C_20
REMARK    8  A    between atoms: C_20  and  C_21
REMARK    9  A    between atoms: C_20  and  O_24
REMARK   10  A    between atoms: C_20  and  C_27
REMARK   11  A    between atoms: C_27  and  O_28
REMARK                            x       y       z     vdW  Elec       q    Type
REMARK                         _______ _______ _______ _____ _____    ______ ____
ROOT
ATOM      1  O   UNL     1     -34.849  23.171   3.377  0.00  0.00    -0.289 OA
ATOM      2  O   UNL     1     -39.399  24.283   2.910  0.00  0.00    -0.270 OA
ATOM      3  N   UNL     1     -38.099  22.375   2.375  0.00  0.00    -0.269 N 
ATOM      4  C   UNL     1     -36.708  21.894   2.452  0.00  0.00    +0.141 C 
ATOM      5  C   UNL     1     -36.033  23.086   3.098  0.00  0.00    +0.198 C 
ATOM      6  C   UNL     1     -37.041  24.140   3.329  0.00  0.00    +0.123 C 
ATOM      7  C   UNL     1     -38.353  23.663   2.859  0.00  0.00    +0.255 C 
ATOM      8  C   UNL     1     -39.147  21.508   1.871  0.00  0.00    +0.116 C 
ATOM      9  C   UNL     1     -36.801  25.338   3.879  0.00  0.00    +0.141 C 
ENDROOT
BRANCH   9  10
ATOM     10  O   UNL     1     -37.805  26.270   4.059  0.00  0.00    -0.505 OA
ATOM     11  H   UNL     1     -38.319  26.259   4.842  0.00  0.00    +0.292 HD
ENDBRANCH   9  10
BRANCH   9  12
ATOM     12  C   UNL     1     -35.479  25.742   4.320  0.00  0.00    +0.037 C 
ATOM     13  C   UNL     1     -35.104  25.920   5.596  0.00  0.00    +0.003 C 
BRANCH  13  14
ATOM     14  C   UNL     1     -33.766  26.325   5.973  0.00  0.00    -0.004 C 
ATOM     15  C   UNL     1     -33.160  27.412   5.472  0.00  0.00    -0.026 C 
BRANCH  15  16
ATOM     16  C   UNL     1     -31.775  27.845   5.861  0.00  0.00    +0.026 C 
BRANCH  16  17
ATOM     17  C   UNL     1     -31.815  29.068   6.777  0.00  0.00    +0.005 C 
ATOM     18  C   UNL     1     -31.872  30.360   5.976  0.00  0.00    +0.000 C 
ENDBRANCH  16  17
ENDBRANCH  15  16
ENDBRANCH  13  14
ENDBRANCH   9  12
BRANCH   4  19
ATOM     19  C   UNL     1     -36.098  21.591   1.097  0.00  0.00    +0.066 C 
BRANCH  19  20
ATOM     20  C   UNL     1     -35.309  20.257   1.009  0.00  0.00    +0.179 C 
BRANCH  20  21
ATOM     21  C   UNL     1     -33.936  20.446   0.295  0.00  0.00    +0.035 C 
ATOM     22  C   UNL     1     -32.808  19.565   0.842  0.00  0.00    +0.003 C 
ATOM     23  C   UNL     1     -33.468  21.911   0.279  0.00  0.00    +0.003 C 
ENDBRANCH  20  21
BRANCH  20  24
ATOM     24  O   UNL     1     -35.027  19.822   2.339  0.00  0.00    -0.376 OA
ATOM     25  H   UNL     1     -34.237  19.260   2.335  0.00  0.00    +0.211 HD
ENDBRANCH  20  24
BRANCH  20  27
ATOM     26  O   UNL     1     -35.996  18.868  -0.880  0.00  0.00    -0.248 OA
ATOM     27  C   UNL     1     -36.152  19.197   0.290  0.00  0.00    +0.338 C 
BRANCH  27  28
ATOM     28  O   UNL     1     -37.094  18.630   1.085  0.00  0.00    -0.479 OA
ATOM     29  H   UNL     1     -37.309  17.724   0.984  0.00  0.00    +0.295 HD
ENDBRANCH  27  28
ENDBRANCH  20  27
ENDBRANCH  19  20
ENDBRANCH   4  19
TORSDOF 11
ENDMDL
MODEL 3
REMARK VINA RESULT:      -5.7      6.851      9.731
REMARK  Name = 54742254
REMARK  11 active torsions:
REMARK  status: ('A' for Active; 'I' for Inactive)
REMARK    1  A    between atoms: C_4  and  C_19
REMARK    2  A    between atoms: C_9  and  O_10
REMARK    3  A    between atoms: C_9  and  C_12
REMARK    4  A    between atoms: C_13  and  C_14
REMARK    5  A    between atoms: C_15  and  C_16
REMARK    6  A    between atoms: C_16  and  C_17
REMARK    7  A    between atoms: C_19  and  C_20
REMARK    8  A    between atoms: C_20  and  C_21
REMARK    9  A    between atoms: C_20  and  O_24
REMARK   10  A    between atoms: C_20  and  C_27
REMARK   11  A    between atoms: C_27  and  O_28
REMARK                            x       y       z     vdW  Elec       q    Type
REMARK                         _______ _______ _______ _____ _____    ______ ____
ROOT
ATOM      1  O   UNL     1     -41.709  28.473   4.502  0.00  0.00    -0.289 OA
ATOM      2  O   UNL     1     -44.779  26.662   1.426  0.00  0.00    -0.270 OA
ATOM      3  N   UNL     1     -44.817  28.513   2.907  0.00  0.00    -0.269 N 
ATOM      4  C   UNL     1     -43.964  29.183   3.904  0.00  0.00    +0.141 C 
ATOM      5  C   UNL     1     -42.725  28.316   3.843  0.00  0.00    +0.198 C 
ATOM      6  C   UNL     1     -42.943  27.236   2.860  0.00  0.00    +0.123 C 
ATOM      7  C   UNL     1     -44.286  27.383   2.275  0.00  0.00    +0.255 C 
ATOM      8  C   UNL     1     -46.119  29.058   2.570  0.00  0.00    +0.116 C 
ATOM      9  C   UNL     1     -42.060  26.277   2.550  0.00  0.00    +0.141 C 
ENDROOT
BRANCH   9  10
ATOM     10  O   UNL     1     -42.346  25.300   1.615  0.00  0.00    -0.505 OA
ATOM     11  H   UNL     1     -41.651  24.803   1.230  0.00  0.00    +0.292 HD
ENDBRANCH   9  10
BRANCH   9  12
ATOM     12  C   UNL     1     -40.750  26.194   3.168  0.00  0.00    +0.037 C 
ATOM     13  C   UNL     1     -39.694  25.531   2.672  0.00  0.00    +0.003 C 
BRANCH  13  14
ATOM     14  C   UNL     1     -38.410  25.485   3.339  0.00  0.00    -0.004 C 
ATOM     15  C   UNL     1     -37.658  24.376   3.408  0.00  0.00    -0.026 C 
BRANCH  15  16
ATOM     16  C   UNL     1     -36.322  24.319   4.093  0.00  0.00    +0.026 C 
BRANCH  16  17
ATOM     17  C   UNL     1     -35.930  22.878   4.420  0.00  0.00    +0.005 C 
ATOM     18  C   UNL     1     -35.437  22.749   5.853  0.00  0.00    +0.000 C 
ENDBRANCH  16  17
ENDBRANCH  15  16
ENDBRANCH  13  14
ENDBRANCH   9  12
BRANCH   4  19
ATOM     19  C   UNL     1     -44.557  29.187   5.300  0.00  0.00    +0.066 C 
BRANCH  19  20
ATOM     20  C   UNL     1     -44.318  30.485   6.117  0.00  0.00    +0.179 C 
BRANCH  20  21
ATOM     21  C   UNL     1     -44.949  30.393   7.541  0.00  0.00    +0.035 C 
ATOM     22  C   UNL     1     -43.967  30.649   8.689  0.00  0.00    +0.003 C 
ATOM     23  C   UNL     1     -45.676  29.062   7.786  0.00  0.00    +0.003 C 
ENDBRANCH  20  21
BRANCH  20  24
ATOM     24  O   UNL     1     -42.911  30.641   6.298  0.00  0.00    -0.376 OA
ATOM     25  H   UNL     1     -42.739  31.048   7.161  0.00  0.00    +0.211 HD
ENDBRANCH  20  24
BRANCH  20  27
ATOM     26  O   UNL     1     -46.059  31.851   5.080  0.00  0.00    -0.248 OA
ATOM     27  C   UNL     1     -44.876  31.693   5.355  0.00  0.00    +0.338 C 
BRANCH  27  28
ATOM     28  O   UNL     1     -43.925  32.602   5.020  0.00  0.00    -0.479 OA
ATOM     29  H   UNL     1     -44.172  33.476   4.790  0.00  0.00    +0.295 HD
ENDBRANCH  27  28
ENDBRANCH  20  27
ENDBRANCH  19  20
ENDBRANCH   4  19
TORSDOF 11
ENDMDL
MODEL 4
REMARK VINA RESULT:      -5.7      1.921      2.706
REMARK  Name = 54742254
REMARK  11 active torsions:
REMARK  status: ('A' for Active; 'I' for Inactive)
REMARK    1  A    between atoms: C_4  and  C_19
REMARK    2  A    between atoms: C_9  and  O_10
REMARK    3  A    between atoms: C_9  and  C_12
REMARK    4  A    between atoms: C_13  and  C_14
REMARK    5  A    between atoms: C_15  and  C_16
REMARK    6  A    between atoms: C_16  and  C_17
REMARK    7  A    between atoms: C_19  and  C_20
REMARK    8  A    between atoms: C_20  and  C_21
REMARK    9  A    between atoms: C_20  and  O_24
REMARK   10  A    between atoms: C_20  and  C_27
REMARK   11  A    between atoms: C_27  and  O_28
REMARK                            x       y       z     vdW  Elec       q    Type
REMARK                         _______ _______ _______ _____ _____    ______ ____
ROOT
ATOM      1  O   UNL     1     -34.525  21.696   1.519  0.00  0.00    -0.289 OA
ATOM      2  O   UNL     1     -38.738  19.976   0.315  0.00  0.00    -0.270 OA
ATOM      3  N   UNL     1     -38.007  21.944   1.415  0.00  0.00    -0.269 N 
ATOM      4  C   UNL     1     -36.763  22.600   1.856  0.00  0.00    +0.141 C 
ATOM      5  C   UNL     1     -35.733  21.596   1.384  0.00  0.00    +0.198 C 
ATOM      6  C   UNL     1     -36.427  20.464   0.739  0.00  0.00    +0.123 C 
ATOM      7  C   UNL     1     -37.879  20.709   0.770  0.00  0.00    +0.255 C 
ATOM      8  C   UNL     1     -39.288  22.601   1.599  0.00  0.00    +0.116 C 
ATOM      9  C   UNL     1     -35.832  19.387   0.209  0.00  0.00    +0.141 C 
ENDROOT
BRANCH   9  10
ATOM     10  O   UNL     1     -36.559  18.369  -0.378  0.00  0.00    -0.505 OA
ATOM     11  H   UNL     1     -36.212  17.498  -0.401  0.00  0.00    +0.292 HD
ENDBRANCH   9  10
BRANCH   9  12
ATOM     12  C   UNL     1     -34.392  19.212   0.213  0.00  0.00    +0.037 C 
ATOM     13  C   UNL     1     -33.698  18.473   1.094  0.00  0.00    +0.003 C 
BRANCH  13  14
ATOM     14  C   UNL     1     -32.258  18.338   1.046  0.00  0.00    -0.004 C 
ATOM     15  C   UNL     1     -31.486  19.020   0.187  0.00  0.00    -0.026 C 
BRANCH  15  16
ATOM     16  C   UNL     1     -29.990  18.893   0.133  0.00  0.00    +0.026 C 
BRANCH  16  17
ATOM     17  C   UNL     1     -29.500  17.754   1.028  0.00  0.00    +0.005 C 
ATOM     18  C   UNL     1     -29.070  16.548   0.208  0.00  0.00    +0.000 C 
ENDBRANCH  16  17
ENDBRANCH  15  16
ENDBRANCH  13  14
ENDBRANCH   9  12
BRANCH   4  19
ATOM     19  C   UNL     1     -36.684  22.797   3.357  0.00  0.00    +0.066 C 
BRANCH  19  20
ATOM     20  C   UNL     1     -36.162  24.185   3.816  0.00  0.00    +0.179 C 
BRANCH  20  21
ATOM     21  C   UNL     1     -35.761  24.179   5.324  0.00  0.00    +0.035 C 
ATOM     22  C   UNL     1     -34.719  25.234   5.708  0.00  0.00    +0.003 C 
ATOM     23  C   UNL     1     -35.285  22.800   5.809  0.00  0.00    +0.003 C 
ENDBRANCH  20  21
BRANCH  20  24
ATOM     24  O   UNL     1     -34.979  24.479   3.075  0.00  0.00    -0.376 OA
ATOM     25  H   UNL     1     -35.212  24.661   2.151  0.00  0.00    +0.211 HD
ENDBRANCH  20  24
BRANCH  20  27
ATOM     26  O   UNL     1     -37.031  26.260   2.861  0.00  0.00    -0.248 OA
ATOM     27  C   UNL     1     -37.221  25.260   3.543  0.00  0.00    +0.338 C 
BRANCH  27  28
ATOM     28  O   UNL     1     -38.420  24.991   4.120  0.00  0.00    -0.479 OA
ATOM     29  H   UNL     1     -38.842  24.169   3.962  0.00  0.00    +0.295 HD
ENDBRANCH  27  28
ENDBRANCH  20  27
ENDBRANCH  19  20
ENDBRANCH   4  19
TORSDOF 11
ENDMDL
MODEL 5
REMARK VINA RESULT:      -5.7      1.914      2.842
REMARK  Name = 54742254
REMARK  11 active torsions:
REMARK  status: ('A' for Active; 'I' for Inactive)
REMARK    1  A    between atoms: C_4  and  C_19
REMARK    2  A    between atoms: C_9  and  O_10
REMARK    3  A    between atoms: C_9  and  C_12
REMARK    4  A    between atoms: C_13  and  C_14
REMARK    5  A    between atoms: C_15  and  C_16
REMARK    6  A    between atoms: C_16  and  C_17
REMARK    7  A    between atoms: C_19  and  C_20
REMARK    8  A    between atoms: C_20  and  C_21
REMARK    9  A    between atoms: C_20  and  O_24
REMARK   10  A    between atoms: C_20  and  C_27
REMARK   11  A    between atoms: C_27  and  O_28
REMARK                            x       y       z     vdW  Elec       q    Type
REMARK                         _______ _______ _______ _____ _____    ______ ____
ROOT
ATOM      1  O   UNL     1     -35.505  21.512   1.474  0.00  0.00    -0.289 OA
ATOM      2  O   UNL     1     -40.111  20.977   0.661  0.00  0.00    -0.270 OA
ATOM      3  N   UNL     1     -38.788  22.697   1.614  0.00  0.00    -0.269 N 
ATOM      4  C   UNL     1     -37.381  22.999   1.933  0.00  0.00    +0.141 C 
ATOM      5  C   UNL     1     -36.703  21.742   1.433  0.00  0.00    +0.198 C 
ATOM      6  C   UNL     1     -37.728  20.828   0.891  0.00  0.00    +0.123 C 
ATOM      7  C   UNL     1     -39.052  21.459   1.018  0.00  0.00    +0.255 C 
ATOM      8  C   UNL     1     -39.824  23.682   1.863  0.00  0.00    +0.116 C 
ATOM      9  C   UNL     1     -37.491  19.616   0.368  0.00  0.00    +0.141 C 
ENDROOT
BRANCH   9  10
ATOM     10  O   UNL     1     -38.511  18.822  -0.118  0.00  0.00    -0.505 OA
ATOM     11  H   UNL     1     -39.117  18.423   0.476  0.00  0.00    +0.292 HD
ENDBRANCH   9  10
BRANCH   9  12
ATOM     12  C   UNL     1     -36.156  19.056   0.274  0.00  0.00    +0.037 C 
ATOM     13  C   UNL     1     -35.828  17.926  -0.371  0.00  0.00    +0.003 C 
BRANCH  13  14
ATOM     14  C   UNL     1     -34.474  17.417  -0.428  0.00  0.00    -0.004 C 
ATOM     15  C   UNL     1     -33.493  17.852   0.377  0.00  0.00    -0.026 C 
BRANCH  15  16
ATOM     16  C   UNL     1     -32.086  17.326   0.331  0.00  0.00    +0.026 C 
BRANCH  16  17
ATOM     17  C   UNL     1     -31.069  18.461   0.452  0.00  0.00    +0.005 C 
ATOM     18  C   UNL     1     -31.740  19.822   0.351  0.00  0.00    +0.000 C 
ENDBRANCH  16  17
ENDBRANCH  15  16
ENDBRANCH  13  14
ENDBRANCH   9  12
BRANCH   4  19
ATOM     19  C   UNL     1     -37.128  23.202   3.414  0.00  0.00    +0.066 C 
BRANCH  19  20
ATOM     20  C   UNL     1     -36.128  24.337   3.765  0.00  0.00    +0.179 C 
BRANCH  20  21
ATOM     21  C   UNL     1     -35.755  24.326   5.280  0.00  0.00    +0.035 C 
ATOM     22  C   UNL     1     -34.719  25.379   5.687  0.00  0.00    +0.003 C 
ATOM     23  C   UNL     1     -35.291  22.946   5.771  0.00  0.00    +0.003 C 
ENDBRANCH  20  21
BRANCH  20  24
ATOM     24  O   UNL     1     -34.921  24.102   3.041  0.00  0.00    -0.376 OA
ATOM     25  H   UNL     1     -35.089  23.464   2.330  0.00  0.00    +0.211 HD
ENDBRANCH  20  24
BRANCH  20  27
ATOM     26  O   UNL     1     -36.192  26.463   2.562  0.00  0.00    -0.248 OA
ATOM     27  C   UNL     1     -36.714  25.695   3.362  0.00  0.00    +0.338 C 
BRANCH  27  28
ATOM     28  O   UNL     1     -37.897  25.970   3.968  0.00  0.00    -0.479 OA
ATOM     29  H   UNL     1     -38.371  25.288   4.400  0.00  0.00    +0.295 HD
ENDBRANCH  27  28
ENDBRANCH  20  27
ENDBRANCH  19  20
ENDBRANCH   4  19
TORSDOF 11
ENDMDL
MODEL 6
REMARK VINA RESULT:      -5.7      3.889      7.943
REMARK  Name = 54742254
REMARK  11 active torsions:
REMARK  status: ('A' for Active; 'I' for Inactive)
REMARK    1  A    between atoms: C_4  and  C_19
REMARK    2  A    between atoms: C_9  and  O_10
REMARK    3  A    between atoms: C_9  and  C_12
REMARK    4  A    between atoms: C_13  and  C_14
REMARK    5  A    between atoms: C_15  and  C_16
REMARK    6  A    between atoms: C_16  and  C_17
REMARK    7  A    between atoms: C_19  and  C_20
REMARK    8  A    between atoms: C_20  and  C_21
REMARK    9  A    between atoms: C_20  and  O_24
REMARK   10  A    between atoms: C_20  and  C_27
REMARK   11  A    between atoms: C_27  and  O_28
REMARK                            x       y       z     vdW  Elec       q    Type
REMARK                         _______ _______ _______ _____ _____    ______ ____
ROOT
ATOM      1  O   UNL     1     -33.241  26.440   5.601  0.00  0.00    -0.289 OA
ATOM      2  O   UNL     1     -34.663  28.801   1.784  0.00  0.00    -0.270 OA
ATOM      3  N   UNL     1     -35.424  26.857   2.906  0.00  0.00    -0.269 N 
ATOM      4  C   UNL     1     -35.092  26.018   4.071  0.00  0.00    +0.141 C 
ATOM      5  C   UNL     1     -33.887  26.755   4.614  0.00  0.00    +0.198 C 
ATOM      6  C   UNL     1     -33.607  27.919   3.750  0.00  0.00    +0.123 C 
ATOM      7  C   UNL     1     -34.602  27.964   2.666  0.00  0.00    +0.255 C 
ATOM      8  C   UNL     1     -36.592  26.561   2.098  0.00  0.00    +0.116 C 
ATOM      9  C   UNL     1     -32.607  28.795   3.925  0.00  0.00    +0.141 C 
ENDROOT
BRANCH   9  10
ATOM     10  O   UNL     1     -32.415  29.860   3.066  0.00  0.00    -0.505 OA
ATOM     11  H   UNL     1     -31.852  29.767   2.323  0.00  0.00    +0.292 HD
ENDBRANCH   9  10
BRANCH   9  12
ATOM     12  C   UNL     1     -31.661  28.689   5.019  0.00  0.00    +0.037 C 
ATOM     13  C   UNL     1     -31.393  29.652   5.915  0.00  0.00    +0.003 C 
BRANCH  13  14
ATOM     14  C   UNL     1     -30.435  29.485   6.987  0.00  0.00    -0.004 C 
ATOM     15  C   UNL     1     -29.115  29.368   6.779  0.00  0.00    -0.026 C 
BRANCH  15  16
ATOM     16  C   UNL     1     -28.111  29.200   7.885  0.00  0.00    +0.026 C 
BRANCH  16  17
ATOM     17  C   UNL     1     -27.091  28.113   7.544  0.00  0.00    +0.005 C 
ATOM     18  C   UNL     1     -27.776  26.813   7.152  0.00  0.00    +0.000 C 
ENDBRANCH  16  17
ENDBRANCH  15  16
ENDBRANCH  13  14
ENDBRANCH   9  12
BRANCH   4  19
ATOM     19  C   UNL     1     -34.738  24.590   3.705  0.00  0.00    +0.066 C 
BRANCH  19  20
ATOM     20  C   UNL     1     -35.759  23.515   4.166  0.00  0.00    +0.179 C 
BRANCH  20  21
ATOM     21  C   UNL     1     -35.058  22.340   4.915  0.00  0.00    +0.035 C 
ATOM     22  C   UNL     1     -35.127  20.993   4.188  0.00  0.00    +0.003 C 
ATOM     23  C   UNL     1     -35.566  22.162   6.355  0.00  0.00    +0.003 C 
ENDBRANCH  20  21
BRANCH  20  24
ATOM     24  O   UNL     1     -36.652  24.125   5.098  0.00  0.00    -0.376 OA
ATOM     25  H   UNL     1     -37.172  24.809   4.647  0.00  0.00    +0.211 HD
ENDBRANCH  20  24
BRANCH  20  27
ATOM     26  O   UNL     1     -36.109  22.928   1.820  0.00  0.00    -0.248 OA
ATOM     27  C   UNL     1     -36.551  22.994   2.961  0.00  0.00    +0.338 C 
BRANCH  27  28
ATOM     28  O   UNL     1     -37.805  22.585   3.280  0.00  0.00    -0.479 OA
ATOM     29  H   UNL     1     -37.930  21.911   3.919  0.00  0.00    +0.295 HD
ENDBRANCH  27  28
ENDBRANCH  20  27
ENDBRANCH  19  20
ENDBRANCH   4  19
TORSDOF 11
ENDMDL
MODEL 7
REMARK VINA RESULT:      -5.5      4.575      7.498
REMARK  Name = 54742254
REMARK  11 active torsions:
REMARK  status: ('A' for Active; 'I' for Inactive)
REMARK    1  A    between atoms: C_4  and  C_19
REMARK    2  A    between atoms: C_9  and  O_10
REMARK    3  A    between atoms: C_9  and  C_12
REMARK    4  A    between atoms: C_13  and  C_14
REMARK    5  A    between atoms: C_15  and  C_16
REMARK    6  A    between atoms: C_16  and  C_17
REMARK    7  A    between atoms: C_19  and  C_20
REMARK    8  A    between atoms: C_20  and  C_21
REMARK    9  A    between atoms: C_20  and  O_24
REMARK   10  A    between atoms: C_20  and  C_27
REMARK   11  A    between atoms: C_27  and  O_28
REMARK                            x       y       z     vdW  Elec       q    Type
REMARK                         _______ _______ _______ _____ _____    ______ ____
ROOT
ATOM      1  O   UNL     1     -32.430  26.869   4.600  0.00  0.00    -0.289 OA
ATOM      2  O   UNL     1     -34.331  30.182   1.847  0.00  0.00    -0.270 OA
ATOM      3  N   UNL     1     -32.204  29.885   2.851  0.00  0.00    -0.269 N 
ATOM      4  C   UNL     1     -31.483  28.935   3.716  0.00  0.00    +0.141 C 
ATOM      5  C   UNL     1     -32.551  27.885   3.935  0.00  0.00    +0.198 C 
ATOM      6  C   UNL     1     -33.777  28.292   3.218  0.00  0.00    +0.123 C 
ATOM      7  C   UNL     1     -33.531  29.573   2.533  0.00  0.00    +0.255 C 
ATOM      8  C   UNL     1     -31.527  31.052   2.318  0.00  0.00    +0.116 C 
ATOM      9  C   UNL     1     -34.928  27.606   3.194  0.00  0.00    +0.141 C 
ENDROOT
BRANCH   9  10
ATOM     10  O   UNL     1     -36.031  28.061   2.497  0.00  0.00    -0.505 OA
ATOM     11  H   UNL     1     -36.592  27.451   2.059  0.00  0.00    +0.292 HD
ENDBRANCH   9  10
BRANCH   9  12
ATOM     12  C   UNL     1     -35.099  26.348   3.894  0.00  0.00    +0.037 C 
ATOM     13  C   UNL     1     -35.872  26.155   4.975  0.00  0.00    +0.003 C 
BRANCH  13  14
ATOM     14  C   UNL     1     -36.001  24.871   5.631  0.00  0.00    -0.004 C 
ATOM     15  C   UNL     1     -35.099  23.887   5.500  0.00  0.00    -0.026 C 
BRANCH  15  16
ATOM     16  C   UNL     1     -35.220  22.553   6.181  0.00  0.00    +0.026 C 
BRANCH  16  17
ATOM     17  C   UNL     1     -35.154  21.408   5.169  0.00  0.00    +0.005 C 
ATOM     18  C   UNL     1     -35.536  21.878   3.774  0.00  0.00    +0.000 C 
ENDBRANCH  16  17
ENDBRANCH  15  16
ENDBRANCH  13  14
ENDBRANCH   9  12
BRANCH   4  19
ATOM     19  C   UNL     1     -31.035  29.538   5.033  0.00  0.00    +0.066 C 
BRANCH  19  20
ATOM     20  C   UNL     1     -29.524  29.381   5.353  0.00  0.00    +0.179 C 
BRANCH  20  21
ATOM     21  C   UNL     1     -28.723  28.873   4.114  0.00  0.00    +0.035 C 
ATOM     22  C   UNL     1     -28.171  27.451   4.253  0.00  0.00    +0.003 C 
ATOM     23  C   UNL     1     -27.582  29.821   3.712  0.00  0.00    +0.003 C 
ENDBRANCH  20  21
BRANCH  20  24
ATOM     24  O   UNL     1     -29.005  30.669   5.681  0.00  0.00    -0.376 OA
ATOM     25  H   UNL     1     -28.122  30.572   6.070  0.00  0.00    +0.211 HD
ENDBRANCH  20  24
BRANCH  20  27
ATOM     26  O   UNL     1     -28.377  28.460   7.305  0.00  0.00    -0.248 OA
ATOM     27  C   UNL     1     -29.336  28.432   6.543  0.00  0.00    +0.338 C 
BRANCH  27  28
ATOM     28  O   UNL     1     -30.358  27.552   6.694  0.00  0.00    -0.479 OA
ATOM     29  H   UNL     1     -30.229  26.763   7.182  0.00  0.00    +0.295 HD
ENDBRANCH  27  28
ENDBRANCH  20  27
ENDBRANCH  19  20
ENDBRANCH   4  19
TORSDOF 11
ENDMDL
MODEL 8
REMARK VINA RESULT:      -5.4      3.910      8.901
REMARK  Name = 54742254
REMARK  11 active torsions:
REMARK  status: ('A' for Active; 'I' for Inactive)
REMARK    1  A    between atoms: C_4  and  C_19
REMARK    2  A    between atoms: C_9  and  O_10
REMARK    3  A    between atoms: C_9  and  C_12
REMARK    4  A    between atoms: C_13  and  C_14
REMARK    5  A    between atoms: C_15  and  C_16
REMARK    6  A    between atoms: C_16  and  C_17
REMARK    7  A    between atoms: C_19  and  C_20
REMARK    8  A    between atoms: C_20  and  C_21
REMARK    9  A    between atoms: C_20  and  O_24
REMARK   10  A    between atoms: C_20  and  C_27
REMARK   11  A    between atoms: C_27  and  O_28
REMARK                            x       y       z     vdW  Elec       q    Type
REMARK                         _______ _______ _______ _____ _____    ______ ____
ROOT
ATOM      1  O   UNL     1     -39.120  26.269   3.306  0.00  0.00    -0.289 OA
ATOM      2  O   UNL     1     -40.458  22.322   1.117  0.00  0.00    -0.270 OA
ATOM      3  N   UNL     1     -38.486  23.002   2.243  0.00  0.00    -0.269 N 
ATOM      4  C   UNL     1     -37.933  24.170   2.952  0.00  0.00    +0.141 C 
ATOM      5  C   UNL     1     -39.093  25.136   2.854  0.00  0.00    +0.198 C 
ATOM      6  C   UNL     1     -40.193  24.490   2.111  0.00  0.00    +0.123 C 
ATOM      7  C   UNL     1     -39.782  23.127   1.731  0.00  0.00    +0.255 C 
ATOM      8  C   UNL     1     -37.723  21.772   2.148  0.00  0.00    +0.116 C 
ATOM      9  C   UNL     1     -41.377  25.052   1.828  0.00  0.00    +0.141 C 
ENDROOT
BRANCH   9  10
ATOM     10  O   UNL     1     -42.354  24.375   1.125  0.00  0.00    -0.505 OA
ATOM     11  H   UNL     1     -42.130  23.907   0.344  0.00  0.00    +0.292 HD
ENDBRANCH   9  10
BRANCH   9  12
ATOM     12  C   UNL     1     -41.714  26.403   2.235  0.00  0.00    +0.037 C 
ATOM     13  C   UNL     1     -42.568  26.731   3.218  0.00  0.00    +0.003 C 
BRANCH  13  14
ATOM     14  C   UNL     1     -42.864  28.102   3.578  0.00  0.00    -0.004 C 
ATOM     15  C   UNL     1     -43.826  28.439   4.449  0.00  0.00    -0.026 C 
BRANCH  15  16
ATOM     16  C   UNL     1     -44.138  29.858   4.834  0.00  0.00    +0.026 C 
BRANCH  16  17
ATOM     17  C   UNL     1     -43.438  30.243   6.138  0.00  0.00    +0.005 C 
ATOM     18  C   UNL     1     -44.418  30.295   7.300  0.00  0.00    +0.000 C 
ENDBRANCH  16  17
ENDBRANCH  15  16
ENDBRANCH  13  14
ENDBRANCH   9  12
BRANCH   4  19
ATOM     19  C   UNL     1     -36.691  24.742   2.295  0.00  0.00    +0.066 C 
BRANCH  19  20
ATOM     20  C   UNL     1     -35.539  25.112   3.267  0.00  0.00    +0.179 C 
BRANCH  20  21
ATOM     21  C   UNL     1     -35.871  24.704   4.735  0.00  0.00    +0.035 C 
ATOM     22  C   UNL     1     -35.938  25.875   5.721  0.00  0.00    +0.003 C 
ATOM     23  C   UNL     1     -34.917  23.633   5.288  0.00  0.00    +0.003 C 
ENDBRANCH  20  21
BRANCH  20  24
ATOM     24  O   UNL     1     -34.381  24.371   2.884  0.00  0.00    -0.376 OA
ATOM     25  H   UNL     1     -33.829  24.913   2.299  0.00  0.00    +0.211 HD
ENDBRANCH  20  24
BRANCH  20  27
ATOM     26  O   UNL     1     -34.146  27.116   3.402  0.00  0.00    -0.248 OA
ATOM     27  C   UNL     1     -35.241  26.614   3.178  0.00  0.00    +0.338 C 
BRANCH  27  28
ATOM     28  O   UNL     1     -36.315  27.353   2.802  0.00  0.00    -0.479 OA
ATOM     29  H   UNL     1     -36.998  26.961   2.293  0.00  0.00    +0.295 HD
ENDBRANCH  27  28
ENDBRANCH  20  27
ENDBRANCH  19  20
ENDBRANCH   4  19
TORSDOF 11
ENDMDL
MODEL 9
REMARK VINA RESULT:      -5.4      3.376      7.484
REMARK  Name = 54742254
REMARK  11 active torsions:
REMARK  status: ('A' for Active; 'I' for Inactive)
REMARK    1  A    between atoms: C_4  and  C_19
REMARK    2  A    between atoms: C_9  and  O_10
REMARK    3  A    between atoms: C_9  and  C_12
REMARK    4  A    between atoms: C_13  and  C_14
REMARK    5  A    between atoms: C_15  and  C_16
REMARK    6  A    between atoms: C_16  and  C_17
REMARK    7  A    between atoms: C_19  and  C_20
REMARK    8  A    between atoms: C_20  and  C_21
REMARK    9  A    between atoms: C_20  and  O_24
REMARK   10  A    between atoms: C_20  and  C_27
REMARK   11  A    between atoms: C_27  and  O_28
REMARK                            x       y       z     vdW  Elec       q    Type
REMARK                         _______ _______ _______ _____ _____    ______ ____
ROOT
ATOM      1  O   UNL     1     -38.662  25.834   3.275  0.00  0.00    -0.289 OA
ATOM      2  O   UNL     1     -38.022  21.317   2.112  0.00  0.00    -0.270 OA
ATOM      3  N   UNL     1     -36.769  22.900   3.356  0.00  0.00    -0.269 N 
ATOM      4  C   UNL     1     -36.833  24.307   3.788  0.00  0.00    +0.141 C 
ATOM      5  C   UNL     1     -38.157  24.727   3.187  0.00  0.00    +0.198 C 
ATOM      6  C   UNL     1     -38.740  23.580   2.464  0.00  0.00    +0.123 C 
ATOM      7  C   UNL     1     -37.836  22.424   2.585  0.00  0.00    +0.255 C 
ATOM      8  C   UNL     1     -35.669  22.052   3.775  0.00  0.00    +0.116 C 
ATOM      9  C   UNL     1     -39.906  23.589   1.802  0.00  0.00    +0.141 C 
ENDROOT
BRANCH   9  10
ATOM     10  O   UNL     1     -40.380  22.468   1.149  0.00  0.00    -0.505 OA
ATOM     11  H   UNL     1     -41.209  22.495   0.711  0.00  0.00    +0.292 HD
ENDBRANCH   9  10
BRANCH   9  12
ATOM     12  C   UNL     1     -40.748  24.767   1.724  0.00  0.00    +0.037 C 
ATOM     13  C   UNL     1     -41.926  24.844   1.084  0.00  0.00    +0.003 C 
BRANCH  13  14
ATOM     14  C   UNL     1     -42.721  26.053   1.041  0.00  0.00    -0.004 C 
ATOM     15  C   UNL     1     -42.388  27.173   1.700  0.00  0.00    -0.026 C 
BRANCH  15  16
ATOM     16  C   UNL     1     -43.202  28.435   1.658  0.00  0.00    +0.026 C 
BRANCH  16  17
ATOM     17  C   UNL     1     -43.378  29.025   3.058  0.00  0.00    +0.005 C 
ATOM     18  C   UNL     1     -42.604  28.230   4.097  0.00  0.00    +0.000 C 
ENDBRANCH  16  17
ENDBRANCH  15  16
ENDBRANCH  13  14
ENDBRANCH   9  12
BRANCH   4  19
ATOM     19  C   UNL     1     -35.697  25.156   3.250  0.00  0.00    +0.066 C 
BRANCH  19  20
ATOM     20  C   UNL     1     -35.298  26.367   4.136  0.00  0.00    +0.179 C 
BRANCH  20  21
ATOM     21  C   UNL     1     -34.972  27.626   3.275  0.00  0.00    +0.035 C 
ATOM     22  C   UNL     1     -35.916  27.847   2.089  0.00  0.00    +0.003 C 
ATOM     23  C   UNL     1     -33.519  27.648   2.775  0.00  0.00    +0.003 C 
ENDBRANCH  20  21
BRANCH  20  24
ATOM     24  O   UNL     1     -36.417  26.703   4.954  0.00  0.00    -0.376 OA
ATOM     25  H   UNL     1     -36.759  25.902   5.380  0.00  0.00    +0.211 HD
ENDBRANCH  20  24
BRANCH  20  27
ATOM     26  O   UNL     1     -33.737  26.645   5.995  0.00  0.00    -0.248 OA
ATOM     27  C   UNL     1     -34.105  25.995   5.024  0.00  0.00    +0.338 C 
BRANCH  27  28
ATOM     28  O   UNL     1     -33.489  24.846   4.643  0.00  0.00    -0.479 OA
ATOM     29  H   UNL     1     -32.583  24.714   4.838  0.00  0.00    +0.295 HD
ENDBRANCH  27  28
ENDBRANCH  20  27
ENDBRANCH  19  20
ENDBRANCH   4  19
TORSDOF 11
ENDMDL
