MODEL 1
REMARK VINA RESULT:      -6.2      0.000      0.000
REMARK  Name = 5486955
REMARK  5 active torsions:
REMARK  status: ('A' for Active; 'I' for Inactive)
REMARK    1  A    between atoms: C_2  and  N_14
REMARK    2  A    between atoms: C_3  and  N_10
REMARK    3  A    between atoms: C_6  and  N_13
REMARK    4  A    between atoms: N_14  and  C_16
REMARK    5  A    between atoms: C_16  and  C_20
REMARK                            x       y       z     vdW  Elec       q    Type
REMARK                         _______ _______ _______ _____ _____    ______ ____
ROOT
ATOM      1  F   UNL     1     -35.356  27.523   3.680  0.00  0.00    -0.202 F 
ATOM      2  C   UNL     1     -36.543  24.086   4.064  0.00  0.00    +0.070 C 
ATOM      3  C   UNL     1     -35.559  23.597   4.949  0.00  0.00    +0.158 C 
ATOM      4  C   UNL     1     -36.448  25.429   3.648  0.00  0.00    +0.047 C 
ATOM      5  C   UNL     1     -34.526  24.418   5.398  0.00  0.00    +0.052 C 
ATOM      6  C   UNL     1     -34.453  25.744   4.973  0.00  0.00    +0.172 C 
ATOM      7  C   UNL     1     -35.415  26.250   4.098  0.00  0.00    +0.164 C 
ENDROOT
BRANCH   3  10
ATOM      8  O   UNL     1     -35.962  22.011   6.574  0.00  0.00    -0.126 OA
ATOM      9  O   UNL     1     -35.294  21.334   4.596  0.00  0.00    -0.126 OA
ATOM     10  N   UNL     1     -35.608  22.246   5.395  0.00  0.00    +0.059 N 
ENDBRANCH   3  10
BRANCH   6  13
ATOM     11  O   UNL     1     -32.538  26.978   4.610  0.00  0.00    -0.126 OA
ATOM     12  O   UNL     1     -33.356  26.892   6.646  0.00  0.00    -0.126 OA
ATOM     13  N   UNL     1     -33.398  26.578   5.432  0.00  0.00    +0.060 N 
ENDBRANCH   6  13
BRANCH   2  14
ATOM     14  N   UNL     1     -37.577  23.290   3.601  0.00  0.00    -0.326 N 
ATOM     15  H   UNL     1     -38.139  22.827   4.263  0.00  0.00    +0.147 HD
BRANCH  14  16
ATOM     16  C   UNL     1     -37.876  23.101   2.199  0.00  0.00    +0.146 C 
ATOM     17  C   UNL     1     -36.720  22.376   1.526  0.00  0.00    +0.031 C 
BRANCH  16  20
ATOM     18  O   UNL     1     -40.271  22.818   1.929  0.00  0.00    -0.274 OA
ATOM     19  N   UNL     1     -38.958  20.943   2.114  0.00  0.00    -0.327 N 
ATOM     20  C   UNL     1     -39.162  22.304   2.067  0.00  0.00    +0.237 C 
ATOM     21  H   UNL     1     -39.723  20.327   2.038  0.00  0.00    +0.145 HD
ATOM     22  H   UNL     1     -38.047  20.585   2.224  0.00  0.00    +0.145 HD
ENDBRANCH  16  20
ENDBRANCH  14  16
ENDBRANCH   2  14
TORSDOF 5
ENDMDL
MODEL 2
REMARK VINA RESULT:      -5.9      2.594      3.591
REMARK  Name = 5486955
REMARK  5 active torsions:
REMARK  status: ('A' for Active; 'I' for Inactive)
REMARK    1  A    between atoms: C_2  and  N_14
REMARK    2  A    between atoms: C_3  and  N_10
REMARK    3  A    between atoms: C_6  and  N_13
REMARK    4  A    between atoms: N_14  and  C_16
REMARK    5  A    between atoms: C_16  and  C_20
REMARK                            x       y       z     vdW  Elec       q    Type
REMARK                         _______ _______ _______ _____ _____    ______ ____
ROOT
ATOM      1  F   UNL     1     -33.057  27.191   7.137  0.00  0.00    -0.202 F 
ATOM      2  C   UNL     1     -34.800  24.961   4.823  0.00  0.00    +0.070 C 
ATOM      3  C   UNL     1     -34.381  25.521   3.598  0.00  0.00    +0.158 C 
ATOM      4  C   UNL     1     -34.333  25.551   6.013  0.00  0.00    +0.047 C 
ATOM      5  C   UNL     1     -33.531  26.626   3.568  0.00  0.00    +0.052 C 
ATOM      6  C   UNL     1     -33.080  27.193   4.760  0.00  0.00    +0.172 C 
ATOM      7  C   UNL     1     -33.481  26.655   5.983  0.00  0.00    +0.164 C 
ENDROOT
BRANCH   3  10
ATOM      8  O   UNL     1     -36.057  24.964   2.115  0.00  0.00    -0.126 OA
ATOM      9  O   UNL     1     -33.983  24.492   1.573  0.00  0.00    -0.126 OA
ATOM     10  N   UNL     1     -34.829  24.965   2.367  0.00  0.00    +0.059 N 
ENDBRANCH   3  10
BRANCH   6  13
ATOM     11  O   UNL     1     -32.713  29.467   4.661  0.00  0.00    -0.126 OA
ATOM     12  O   UNL     1     -30.974  28.132   4.762  0.00  0.00    -0.126 OA
ATOM     13  N   UNL     1     -32.214  28.318   4.726  0.00  0.00    +0.060 N 
ENDBRANCH   6  13
BRANCH   2  14
ATOM     14  N   UNL     1     -35.648  23.867   4.880  0.00  0.00    -0.326 N 
ATOM     15  H   UNL     1     -36.619  24.031   4.884  0.00  0.00    +0.147 HD
BRANCH  14  16
ATOM     16  C   UNL     1     -35.185  22.498   4.933  0.00  0.00    +0.146 C 
ATOM     17  C   UNL     1     -35.498  21.909   6.301  0.00  0.00    +0.031 C 
BRANCH  16  20
ATOM     18  O   UNL     1     -35.412  20.655   3.371  0.00  0.00    -0.274 OA
ATOM     19  N   UNL     1     -37.048  22.267   3.412  0.00  0.00    -0.327 N 
ATOM     20  C   UNL     1     -35.865  21.699   3.834  0.00  0.00    +0.237 C 
ATOM     21  H   UNL     1     -37.576  21.833   2.702  0.00  0.00    +0.145 HD
ATOM     22  H   UNL     1     -37.366  23.104   3.820  0.00  0.00    +0.145 HD
ENDBRANCH  16  20
ENDBRANCH  14  16
ENDBRANCH   2  14
TORSDOF 5
ENDMDL
MODEL 3
REMARK VINA RESULT:      -5.9      2.017      2.217
REMARK  Name = 5486955
REMARK  5 active torsions:
REMARK  status: ('A' for Active; 'I' for Inactive)
REMARK    1  A    between atoms: C_2  and  N_14
REMARK    2  A    between atoms: C_3  and  N_10
REMARK    3  A    between atoms: C_6  and  N_13
REMARK    4  A    between atoms: N_14  and  C_16
REMARK    5  A    between atoms: C_16  and  C_20
REMARK                            x       y       z     vdW  Elec       q    Type
REMARK                         _______ _______ _______ _____ _____    ______ ____
ROOT
ATOM      1  F   UNL     1     -34.594  25.869   1.953  0.00  0.00    -0.202 F 
ATOM      2  C   UNL     1     -35.516  22.621   3.355  0.00  0.00    +0.070 C 
ATOM      3  C   UNL     1     -35.249  22.870   4.718  0.00  0.00    +0.158 C 
ATOM      4  C   UNL     1     -35.283  23.662   2.435  0.00  0.00    +0.047 C 
ATOM      5  C   UNL     1     -34.770  24.110   5.139  0.00  0.00    +0.052 C 
ATOM      6  C   UNL     1     -34.547  25.126   4.210  0.00  0.00    +0.172 C 
ATOM      7  C   UNL     1     -34.804  24.902   2.857  0.00  0.00    +0.164 C 
ENDROOT
BRANCH   3  10
ATOM      8  O   UNL     1     -36.098  22.131   6.731  0.00  0.00    -0.126 OA
ATOM      9  O   UNL     1     -35.012  20.702   5.466  0.00  0.00    -0.126 OA
ATOM     10  N   UNL     1     -35.464  21.850   5.686  0.00  0.00    +0.059 N 
ENDBRANCH   3  10
BRANCH   6  13
ATOM     11  O   UNL     1     -32.921  26.449   5.172  0.00  0.00    -0.126 OA
ATOM     12  O   UNL     1     -34.775  27.404   4.485  0.00  0.00    -0.126 OA
ATOM     13  N   UNL     1     -34.058  26.386   4.644  0.00  0.00    +0.060 N 
ENDBRANCH   6  13
BRANCH   2  14
ATOM     14  N   UNL     1     -35.990  21.398   2.910  0.00  0.00    -0.326 N 
ATOM     15  H   UNL     1     -36.581  20.883   3.506  0.00  0.00    +0.147 HD
BRANCH  14  16
ATOM     16  C   UNL     1     -35.663  20.835   1.619  0.00  0.00    +0.146 C 
ATOM     17  C   UNL     1     -34.510  19.854   1.769  0.00  0.00    +0.031 C 
BRANCH  16  20
ATOM     18  O   UNL     1     -37.931  20.728   0.763  0.00  0.00    -0.274 OA
ATOM     19  N   UNL     1     -36.716  18.783   0.898  0.00  0.00    -0.327 N 
ATOM     20  C   UNL     1     -36.891  20.141   1.054  0.00  0.00    +0.237 C 
ATOM     21  H   UNL     1     -37.448  18.231   0.538  0.00  0.00    +0.145 HD
ATOM     22  H   UNL     1     -35.861  18.365   1.145  0.00  0.00    +0.145 HD
ENDBRANCH  16  20
ENDBRANCH  14  16
ENDBRANCH   2  14
TORSDOF 5
ENDMDL
MODEL 4
REMARK VINA RESULT:      -5.7      2.446      5.453
REMARK  Name = 5486955
REMARK  5 active torsions:
REMARK  status: ('A' for Active; 'I' for Inactive)
REMARK    1  A    between atoms: C_2  and  N_14
REMARK    2  A    between atoms: C_3  and  N_10
REMARK    3  A    between atoms: C_6  and  N_13
REMARK    4  A    between atoms: N_14  and  C_16
REMARK    5  A    between atoms: C_16  and  C_20
REMARK                            x       y       z     vdW  Elec       q    Type
REMARK                         _______ _______ _______ _____ _____    ______ ____
ROOT
ATOM      1  F   UNL     1     -37.469  23.606   3.458  0.00  0.00    -0.202 F 
ATOM      2  C   UNL     1     -35.336  26.511   4.070  0.00  0.00    +0.070 C 
ATOM      3  C   UNL     1     -34.414  25.939   4.971  0.00  0.00    +0.158 C 
ATOM      4  C   UNL     1     -36.367  25.692   3.570  0.00  0.00    +0.047 C 
ATOM      5  C   UNL     1     -34.522  24.603   5.355  0.00  0.00    +0.052 C 
ATOM      6  C   UNL     1     -35.551  23.811   4.846  0.00  0.00    +0.172 C 
ATOM      7  C   UNL     1     -36.474  24.356   3.953  0.00  0.00    +0.164 C 
ENDROOT
BRANCH   3  10
ATOM      8  O   UNL     1     -32.502  27.205   4.726  0.00  0.00    -0.126 OA
ATOM      9  O   UNL     1     -33.313  26.916   6.746  0.00  0.00    -0.126 OA
ATOM     10  N   UNL     1     -33.357  26.726   5.508  0.00  0.00    +0.059 N 
ENDBRANCH   3  10
BRANCH   6  13
ATOM     11  O   UNL     1     -35.387  21.553   4.407  0.00  0.00    -0.126 OA
ATOM     12  O   UNL     1     -36.020  22.183   6.412  0.00  0.00    -0.126 OA
ATOM     13  N   UNL     1     -35.658  22.450   5.240  0.00  0.00    +0.060 N 
ENDBRANCH   6  13
BRANCH   2  14
ATOM     14  N   UNL     1     -35.254  27.837   3.676  0.00  0.00    -0.326 N 
ATOM     15  H   UNL     1     -35.151  28.524   4.373  0.00  0.00    +0.147 HD
BRANCH  14  16
ATOM     16  C   UNL     1     -35.310  28.267   2.296  0.00  0.00    +0.146 C 
ATOM     17  C   UNL     1     -35.469  29.779   2.241  0.00  0.00    +0.031 C 
BRANCH  16  20
ATOM     18  O   UNL     1     -34.009  26.978   0.703  0.00  0.00    -0.274 OA
ATOM     19  N   UNL     1     -32.919  28.499   2.035  0.00  0.00    -0.327 N 
ATOM     20  C   UNL     1     -34.039  27.832   1.587  0.00  0.00    +0.237 C 
ATOM     21  H   UNL     1     -32.037  28.298   1.645  0.00  0.00    +0.145 HD
ATOM     22  H   UNL     1     -33.000  29.176   2.745  0.00  0.00    +0.145 HD
ENDBRANCH  16  20
ENDBRANCH  14  16
ENDBRANCH   2  14
TORSDOF 5
ENDMDL
MODEL 5
REMARK VINA RESULT:      -5.6      2.549      3.777
REMARK  Name = 5486955
REMARK  5 active torsions:
REMARK  status: ('A' for Active; 'I' for Inactive)
REMARK    1  A    between atoms: C_2  and  N_14
REMARK    2  A    between atoms: C_3  and  N_10
REMARK    3  A    between atoms: C_6  and  N_13
REMARK    4  A    between atoms: N_14  and  C_16
REMARK    5  A    between atoms: C_16  and  C_20
REMARK                            x       y       z     vdW  Elec       q    Type
REMARK                         _______ _______ _______ _____ _____    ______ ____
ROOT
ATOM      1  F   UNL     1     -32.844  27.166   4.777  0.00  0.00    -0.202 F 
ATOM      2  C   UNL     1     -35.695  24.911   4.386  0.00  0.00    +0.070 C 
ATOM      3  C   UNL     1     -36.436  25.635   3.429  0.00  0.00    +0.158 C 
ATOM      4  C   UNL     1     -34.474  25.457   4.828  0.00  0.00    +0.047 C 
ATOM      5  C   UNL     1     -35.972  26.854   2.935  0.00  0.00    +0.052 C 
ATOM      6  C   UNL     1     -34.760  27.375   3.386  0.00  0.00    +0.172 C 
ATOM      7  C   UNL     1     -34.010  26.676   4.333  0.00  0.00    +0.164 C 
ENDROOT
BRANCH   3  10
ATOM      8  O   UNL     1     -37.906  25.143   1.722  0.00  0.00    -0.126 OA
ATOM      9  O   UNL     1     -38.506  24.683   3.783  0.00  0.00    -0.126 OA
ATOM     10  N   UNL     1     -37.678  25.128   2.954  0.00  0.00    +0.059 N 
ENDBRANCH   3  10
BRANCH   6  13
ATOM     11  O   UNL     1     -34.619  29.675   3.471  0.00  0.00    -0.126 OA
ATOM     12  O   UNL     1     -33.562  28.622   1.861  0.00  0.00    -0.126 OA
ATOM     13  N   UNL     1     -34.292  28.617   2.882  0.00  0.00    +0.060 N 
ENDBRANCH   6  13
BRANCH   2  14
ATOM     14  N   UNL     1     -36.135  23.700   4.895  0.00  0.00    -0.326 N 
ATOM     15  H   UNL     1     -37.058  23.646   5.233  0.00  0.00    +0.147 HD
BRANCH  14  16
ATOM     16  C   UNL     1     -35.313  22.512   4.959  0.00  0.00    +0.146 C 
ATOM     17  C   UNL     1     -35.441  21.879   6.336  0.00  0.00    +0.031 C 
BRANCH  16  20
ATOM     18  O   UNL     1     -35.137  20.522   3.582  0.00  0.00    -0.274 OA
ATOM     19  N   UNL     1     -36.926  21.925   3.259  0.00  0.00    -0.327 N 
ATOM     20  C   UNL     1     -35.755  21.543   3.876  0.00  0.00    +0.237 C 
ATOM     21  H   UNL     1     -37.308  21.370   2.540  0.00  0.00    +0.145 HD
ATOM     22  H   UNL     1     -37.382  22.752   3.536  0.00  0.00    +0.145 HD
ENDBRANCH  16  20
ENDBRANCH  14  16
ENDBRANCH   2  14
TORSDOF 5
ENDMDL
MODEL 6
REMARK VINA RESULT:      -5.6      1.858      2.230
REMARK  Name = 5486955
REMARK  5 active torsions:
REMARK  status: ('A' for Active; 'I' for Inactive)
REMARK    1  A    between atoms: C_2  and  N_14
REMARK    2  A    between atoms: C_3  and  N_10
REMARK    3  A    between atoms: C_6  and  N_13
REMARK    4  A    between atoms: N_14  and  C_16
REMARK    5  A    between atoms: C_16  and  C_20
REMARK                            x       y       z     vdW  Elec       q    Type
REMARK                         _______ _______ _______ _____ _____    ______ ____
ROOT
ATOM      1  F   UNL     1     -36.180  26.293   6.134  0.00  0.00    -0.202 F 
ATOM      2  C   UNL     1     -36.398  23.603   3.668  0.00  0.00    +0.070 C 
ATOM      3  C   UNL     1     -35.173  23.800   2.998  0.00  0.00    +0.158 C 
ATOM      4  C   UNL     1     -36.715  24.468   4.734  0.00  0.00    +0.047 C 
ATOM      5  C   UNL     1     -34.303  24.821   3.380  0.00  0.00    +0.052 C 
ATOM      6  C   UNL     1     -34.638  25.665   4.438  0.00  0.00    +0.172 C 
ATOM      7  C   UNL     1     -35.844  25.488   5.116  0.00  0.00    +0.164 C 
ENDROOT
BRANCH   3  10
ATOM      8  O   UNL     1     -34.953  21.716   2.035  0.00  0.00    -0.126 OA
ATOM      9  O   UNL     1     -34.353  23.476   0.867  0.00  0.00    -0.126 OA
ATOM     10  N   UNL     1     -34.808  22.955   1.912  0.00  0.00    +0.059 N 
ENDBRANCH   3  10
BRANCH   6  13
ATOM     11  O   UNL     1     -32.972  26.513   5.789  0.00  0.00    -0.126 OA
ATOM     12  O   UNL     1     -33.766  27.785   4.186  0.00  0.00    -0.126 OA
ATOM     13  N   UNL     1     -33.750  26.704   4.823  0.00  0.00    +0.060 N 
ENDBRANCH   6  13
BRANCH   2  14
ATOM     14  N   UNL     1     -37.281  22.599   3.307  0.00  0.00    -0.326 N 
ATOM     15  H   UNL     1     -37.065  21.674   3.567  0.00  0.00    +0.147 HD
BRANCH  14  16
ATOM     16  C   UNL     1     -38.502  22.834   2.568  0.00  0.00    +0.146 C 
ATOM     17  C   UNL     1     -38.227  23.803   1.428  0.00  0.00    +0.031 C 
BRANCH  16  20
ATOM     18  O   UNL     1     -40.211  21.292   1.800  0.00  0.00    -0.274 OA
ATOM     19  N   UNL     1     -38.028  20.578   1.843  0.00  0.00    -0.327 N 
ATOM     20  C   UNL     1     -39.025  21.510   2.037  0.00  0.00    +0.237 C 
ATOM     21  H   UNL     1     -38.252  19.683   1.499  0.00  0.00    +0.145 HD
ATOM     22  H   UNL     1     -37.093  20.807   2.046  0.00  0.00    +0.145 HD
ENDBRANCH  16  20
ENDBRANCH  14  16
ENDBRANCH   2  14
TORSDOF 5
ENDMDL
MODEL 7
REMARK VINA RESULT:      -5.6      2.375      6.067
REMARK  Name = 5486955
REMARK  5 active torsions:
REMARK  status: ('A' for Active; 'I' for Inactive)
REMARK    1  A    between atoms: C_2  and  N_14
REMARK    2  A    between atoms: C_3  and  N_10
REMARK    3  A    between atoms: C_6  and  N_13
REMARK    4  A    between atoms: N_14  and  C_16
REMARK    5  A    between atoms: C_16  and  C_20
REMARK                            x       y       z     vdW  Elec       q    Type
REMARK                         _______ _______ _______ _____ _____    ______ ____
ROOT
ATOM      1  F   UNL     1     -40.391  24.155   2.139  0.00  0.00    -0.202 F 
ATOM      2  C   UNL     1     -36.933  23.346   3.007  0.00  0.00    +0.070 C 
ATOM      3  C   UNL     1     -36.786  22.142   2.286  0.00  0.00    +0.158 C 
ATOM      4  C   UNL     1     -38.173  24.011   2.938  0.00  0.00    +0.047 C 
ATOM      5  C   UNL     1     -37.838  21.627   1.530  0.00  0.00    +0.052 C 
ATOM      6  C   UNL     1     -39.057  22.302   1.476  0.00  0.00    +0.172 C 
ATOM      7  C   UNL     1     -39.224  23.495   2.180  0.00  0.00    +0.164 C 
ENDROOT
BRANCH   3  10
ATOM      8  O   UNL     1     -35.428  20.487   3.142  0.00  0.00    -0.126 OA
ATOM      9  O   UNL     1     -34.634  21.769   1.547  0.00  0.00    -0.126 OA
ATOM     10  N   UNL     1     -35.555  21.430   2.327  0.00  0.00    +0.059 N 
ENDBRANCH   3  10
BRANCH   6  13
ATOM     11  O   UNL     1     -40.378  22.281  -0.414  0.00  0.00    -0.126 OA
ATOM     12  O   UNL     1     -40.790  20.813   1.165  0.00  0.00    -0.126 OA
ATOM     13  N   UNL     1     -40.126  21.774   0.705  0.00  0.00    +0.060 N 
ENDBRANCH   6  13
BRANCH   2  14
ATOM     14  N   UNL     1     -35.905  23.877   3.768  0.00  0.00    -0.326 N 
ATOM     15  H   UNL     1     -35.066  24.119   3.313  0.00  0.00    +0.147 HD
BRANCH  14  16
ATOM     16  C   UNL     1     -35.996  24.097   5.195  0.00  0.00    +0.146 C 
ATOM     17  C   UNL     1     -35.196  23.028   5.925  0.00  0.00    +0.031 C 
BRANCH  16  20
ATOM     18  O   UNL     1     -34.311  25.707   5.870  0.00  0.00    -0.274 OA
ATOM     19  N   UNL     1     -36.421  26.468   5.378  0.00  0.00    -0.327 N 
ATOM     20  C   UNL     1     -35.468  25.483   5.520  0.00  0.00    +0.237 C 
ATOM     21  H   UNL     1     -36.190  27.407   5.562  0.00  0.00    +0.145 HD
ATOM     22  H   UNL     1     -37.333  26.233   5.092  0.00  0.00    +0.145 HD
ENDBRANCH  16  20
ENDBRANCH  14  16
ENDBRANCH   2  14
TORSDOF 5
ENDMDL
MODEL 8
REMARK VINA RESULT:      -5.4      2.837      6.501
REMARK  Name = 5486955
REMARK  5 active torsions:
REMARK  status: ('A' for Active; 'I' for Inactive)
REMARK    1  A    between atoms: C_2  and  N_14
REMARK    2  A    between atoms: C_3  and  N_10
REMARK    3  A    between atoms: C_6  and  N_13
REMARK    4  A    between atoms: N_14  and  C_16
REMARK    5  A    between atoms: C_16  and  C_20
REMARK                            x       y       z     vdW  Elec       q    Type
REMARK                         _______ _______ _______ _____ _____    ______ ____
ROOT
ATOM      1  F   UNL     1     -36.908  20.178   1.030  0.00  0.00    -0.202 F 
ATOM      2  C   UNL     1     -36.984  23.343   2.858  0.00  0.00    +0.070 C 
ATOM      3  C   UNL     1     -38.342  23.683   2.681  0.00  0.00    +0.158 C 
ATOM      4  C   UNL     1     -36.523  22.142   2.284  0.00  0.00    +0.047 C 
ATOM      5  C   UNL     1     -39.200  22.854   1.959  0.00  0.00    +0.052 C 
ATOM      6  C   UNL     1     -38.721  21.670   1.400  0.00  0.00    +0.172 C 
ATOM      7  C   UNL     1     -37.382  21.313   1.563  0.00  0.00    +0.164 C 
ENDROOT
BRANCH   3  10
ATOM      8  O   UNL     1     -39.882  24.833   3.954  0.00  0.00    -0.126 OA
ATOM      9  O   UNL     1     -38.266  25.966   2.993  0.00  0.00    -0.126 OA
ATOM     10  N   UNL     1     -38.855  24.888   3.237  0.00  0.00    +0.059 N 
ENDBRANCH   3  10
BRANCH   6  13
ATOM     11  O   UNL     1     -39.111  20.000  -0.143  0.00  0.00    -0.126 OA
ATOM     12  O   UNL     1     -40.835  20.937   0.841  0.00  0.00    -0.126 OA
ATOM     13  N   UNL     1     -39.598  20.829   0.664  0.00  0.00    +0.060 N 
ENDBRANCH   6  13
BRANCH   2  14
ATOM     14  N   UNL     1     -36.111  24.150   3.568  0.00  0.00    -0.326 N 
ATOM     15  H   UNL     1     -35.541  24.775   3.064  0.00  0.00    +0.147 HD
BRANCH  14  16
ATOM     16  C   UNL     1     -35.988  24.125   5.009  0.00  0.00    +0.146 C 
ATOM     17  C   UNL     1     -34.973  23.067   5.414  0.00  0.00    +0.031 C 
BRANCH  16  20
ATOM     18  O   UNL     1     -34.440  25.746   5.936  0.00  0.00    -0.274 OA
ATOM     19  N   UNL     1     -36.560  26.441   5.390  0.00  0.00    -0.327 N 
ATOM     20  C   UNL     1     -35.560  25.498   5.496  0.00  0.00    +0.237 C 
ATOM     21  H   UNL     1     -36.393  27.369   5.677  0.00  0.00    +0.145 HD
ATOM     22  H   UNL     1     -37.439  26.188   5.028  0.00  0.00    +0.145 HD
ENDBRANCH  16  20
ENDBRANCH  14  16
ENDBRANCH   2  14
TORSDOF 5
ENDMDL
MODEL 9
REMARK VINA RESULT:      -5.4      3.005      5.812
REMARK  Name = 5486955
REMARK  5 active torsions:
REMARK  status: ('A' for Active; 'I' for Inactive)
REMARK    1  A    between atoms: C_2  and  N_14
REMARK    2  A    between atoms: C_3  and  N_10
REMARK    3  A    between atoms: C_6  and  N_13
REMARK    4  A    between atoms: N_14  and  C_16
REMARK    5  A    between atoms: C_16  and  C_20
REMARK                            x       y       z     vdW  Elec       q    Type
REMARK                         _______ _______ _______ _____ _____    ______ ____
ROOT
ATOM      1  F   UNL     1     -33.785  21.793  -0.210  0.00  0.00    -0.202 F 
ATOM      2  C   UNL     1     -34.992  23.839   2.569  0.00  0.00    +0.070 C 
ATOM      3  C   UNL     1     -35.635  22.841   3.332  0.00  0.00    +0.158 C 
ATOM      4  C   UNL     1     -34.370  23.452   1.366  0.00  0.00    +0.047 C 
ATOM      5  C   UNL     1     -35.653  21.513   2.906  0.00  0.00    +0.052 C 
ATOM      6  C   UNL     1     -35.029  21.154   1.712  0.00  0.00    +0.172 C 
ATOM      7  C   UNL     1     -34.387  22.124   0.941  0.00  0.00    +0.164 C 
ENDROOT
BRANCH   3  10
ATOM      8  O   UNL     1     -37.167  24.069   4.541  0.00  0.00    -0.126 OA
ATOM      9  O   UNL     1     -35.948  22.583   5.602  0.00  0.00    -0.126 OA
ATOM     10  N   UNL     1     -36.282  23.181   4.553  0.00  0.00    +0.059 N 
ENDBRANCH   3  10
BRANCH   6  13
ATOM     11  O   UNL     1     -36.089  19.352   0.739  0.00  0.00    -0.126 OA
ATOM     12  O   UNL     1     -34.030  19.092   1.454  0.00  0.00    -0.126 OA
ATOM     13  N   UNL     1     -35.051  19.801   1.281  0.00  0.00    +0.060 N 
ENDBRANCH   6  13
BRANCH   2  14
ATOM     14  N   UNL     1     -34.963  25.165   2.967  0.00  0.00    -0.326 N 
ATOM     15  H   UNL     1     -35.703  25.751   2.686  0.00  0.00    +0.147 HD
BRANCH  14  16
ATOM     16  C   UNL     1     -33.907  25.736   3.773  0.00  0.00    +0.146 C 
ATOM     17  C   UNL     1     -33.143  26.765   2.954  0.00  0.00    +0.031 C 
BRANCH  16  20
ATOM     18  O   UNL     1     -33.898  26.551   6.059  0.00  0.00    -0.274 OA
ATOM     19  N   UNL     1     -35.831  26.741   4.833  0.00  0.00    -0.327 N 
ATOM     20  C   UNL     1     -34.515  26.375   5.010  0.00  0.00    +0.237 C 
ATOM     21  H   UNL     1     -36.327  27.166   5.571  0.00  0.00    +0.145 HD
ATOM     22  H   UNL     1     -36.276  26.579   3.971  0.00  0.00    +0.145 HD
ENDBRANCH  16  20
ENDBRANCH  14  16
ENDBRANCH   2  14
TORSDOF 5
ENDMDL
