MODEL 1
REMARK VINA RESULT:      -5.7      0.000      0.000
REMARK  Name = 20364693
REMARK  5 active torsions:
REMARK  status: ('A' for Active; 'I' for Inactive)
REMARK    1  A    between atoms: C_1  and  C_7
REMARK    2  A    between atoms: C_4  and  S_13
REMARK    3  A    between atoms: C_7  and  C_10
REMARK    4  A    between atoms: C_10  and  O_11
REMARK    5  A    between atoms: S_13  and  C_16
REMARK                            x       y       z     vdW  Elec       q    Type
REMARK                         _______ _______ _______ _____ _____    ______ ____
ROOT
ATOM      1  C   UNL     1     -35.641  22.301   3.621  0.00  0.00    -0.011 C 
ATOM      2  C   UNL     1     -35.773  23.666   3.874  0.00  0.00    +0.003 C 
ATOM      3  C   UNL     1     -35.320  21.426   4.658  0.00  0.00    -0.004 C 
ATOM      4  C   UNL     1     -35.585  24.156   5.167  0.00  0.00    +0.031 C 
ATOM      5  C   UNL     1     -35.132  21.916   5.951  0.00  0.00    +0.000 C 
ATOM      6  C   UNL     1     -35.265  23.282   6.205  0.00  0.00    +0.007 C 
ENDROOT
BRANCH   1   7
ATOM      7  C   UNL     1     -35.841  21.775   2.239  0.00  0.00    +0.121 C 
ATOM      8  C   UNL     1     -37.217  22.124   1.636  0.00  0.00    +0.016 C 
BRANCH   7  10
ATOM      9  O   UNL     1     -34.551  19.724   1.927  0.00  0.00    -0.250 OA
ATOM     10  C   UNL     1     -35.629  20.260   2.150  0.00  0.00    +0.317 C 
BRANCH  10  11
ATOM     11  O   UNL     1     -36.773  19.549   2.336  0.00  0.00    -0.480 OA
ATOM     12  H   UNL     1     -37.110  19.422   3.201  0.00  0.00    +0.295 HD
ENDBRANCH  10  11
ENDBRANCH   7  10
ENDBRANCH   1   7
BRANCH   4  13
ATOM     13  S   UNL     1     -35.756  25.900   5.492  0.00  0.00    -0.062 S 
BRANCH  13  16
ATOM     14  S   UNL     1     -35.175  27.322   2.852  0.00  0.00    -0.059 S 
ATOM     15  N   UNL     1     -33.338  26.327   4.374  0.00  0.00    -0.230 NA
ATOM     16  C   UNL     1     -34.636  26.497   4.257  0.00  0.00    +0.141 C 
ATOM     17  C   UNL     1     -33.543  27.474   2.345  0.00  0.00    +0.058 C 
ATOM     18  C   UNL     1     -32.713  26.887   3.278  0.00  0.00    +0.107 C 
ENDBRANCH  13  16
ENDBRANCH   4  13
TORSDOF 5
ENDMDL
MODEL 2
REMARK VINA RESULT:      -5.6      3.989      5.556
REMARK  Name = 20364693
REMARK  5 active torsions:
REMARK  status: ('A' for Active; 'I' for Inactive)
REMARK    1  A    between atoms: C_1  and  C_7
REMARK    2  A    between atoms: C_4  and  S_13
REMARK    3  A    between atoms: C_7  and  C_10
REMARK    4  A    between atoms: C_10  and  O_11
REMARK    5  A    between atoms: S_13  and  C_16
REMARK                            x       y       z     vdW  Elec       q    Type
REMARK                         _______ _______ _______ _____ _____    ______ ____
ROOT
ATOM      1  C   UNL     1     -34.888  24.004   4.566  0.00  0.00    -0.011 C 
ATOM      2  C   UNL     1     -35.371  23.316   3.453  0.00  0.00    +0.003 C 
ATOM      3  C   UNL     1     -34.677  23.329   5.767  0.00  0.00    -0.004 C 
ATOM      4  C   UNL     1     -35.643  21.951   3.543  0.00  0.00    +0.031 C 
ATOM      5  C   UNL     1     -34.949  21.963   5.857  0.00  0.00    +0.000 C 
ATOM      6  C   UNL     1     -35.432  21.275   4.744  0.00  0.00    +0.007 C 
ENDROOT
BRANCH   1   7
ATOM      7  C   UNL     1     -34.596  25.464   4.472  0.00  0.00    +0.121 C 
ATOM      8  C   UNL     1     -33.953  26.052   5.744  0.00  0.00    +0.016 C 
BRANCH   7  10
ATOM      9  O   UNL     1     -36.151  26.610   2.975  0.00  0.00    -0.250 OA
ATOM     10  C   UNL     1     -35.837  26.289   4.115  0.00  0.00    +0.317 C 
BRANCH  10  11
ATOM     11  O   UNL     1     -36.569  26.650   5.203  0.00  0.00    -0.480 OA
ATOM     12  H   UNL     1     -37.284  26.114   5.486  0.00  0.00    +0.295 HD
ENDBRANCH  10  11
ENDBRANCH   7  10
ENDBRANCH   1   7
BRANCH   4  13
ATOM     13  S   UNL     1     -36.260  21.069   2.121  0.00  0.00    -0.062 S 
BRANCH  13  16
ATOM     14  S   UNL     1     -33.876  21.657   0.305  0.00  0.00    -0.059 S 
ATOM     15  N   UNL     1     -34.119  19.488   1.689  0.00  0.00    -0.230 NA
ATOM     16  C   UNL     1     -34.703  20.630   1.403  0.00  0.00    +0.141 C 
ATOM     17  C   UNL     1     -32.625  20.490   0.193  0.00  0.00    +0.058 C 
ATOM     18  C   UNL     1     -32.928  19.408   0.994  0.00  0.00    +0.107 C 
ENDBRANCH  13  16
ENDBRANCH   4  13
TORSDOF 5
ENDMDL
MODEL 3
REMARK VINA RESULT:      -5.6      2.425      3.202
REMARK  Name = 20364693
REMARK  5 active torsions:
REMARK  status: ('A' for Active; 'I' for Inactive)
REMARK    1  A    between atoms: C_1  and  C_7
REMARK    2  A    between atoms: C_4  and  S_13
REMARK    3  A    between atoms: C_7  and  C_10
REMARK    4  A    between atoms: C_10  and  O_11
REMARK    5  A    between atoms: S_13  and  C_16
REMARK                            x       y       z     vdW  Elec       q    Type
REMARK                         _______ _______ _______ _____ _____    ______ ____
ROOT
ATOM      1  C   UNL     1     -35.585  21.637   3.683  0.00  0.00    -0.011 C 
ATOM      2  C   UNL     1     -35.798  22.975   3.354  0.00  0.00    +0.003 C 
ATOM      3  C   UNL     1     -35.203  21.288   4.979  0.00  0.00    -0.004 C 
ATOM      4  C   UNL     1     -35.629  23.966   4.322  0.00  0.00    +0.031 C 
ATOM      5  C   UNL     1     -35.034  22.279   5.946  0.00  0.00    +0.000 C 
ATOM      6  C   UNL     1     -35.248  23.618   5.617  0.00  0.00    +0.007 C 
ENDROOT
BRANCH   1   7
ATOM      7  C   UNL     1     -35.765  20.576   2.650  0.00  0.00    +0.121 C 
ATOM      8  C   UNL     1     -34.495  20.295   1.822  0.00  0.00    +0.016 C 
BRANCH   7  10
ATOM      9  O   UNL     1     -36.789  21.210   0.524  0.00  0.00    -0.250 OA
ATOM     10  C   UNL     1     -36.925  20.877   1.695  0.00  0.00    +0.317 C 
BRANCH  10  11
ATOM     11  O   UNL     1     -38.146  20.746   2.279  0.00  0.00    -0.480 OA
ATOM     12  H   UNL     1     -38.497  19.894   2.445  0.00  0.00    +0.295 HD
ENDBRANCH  10  11
ENDBRANCH   7  10
ENDBRANCH   1   7
BRANCH   4  13
ATOM     13  S   UNL     1     -35.902  25.677   3.903  0.00  0.00    -0.062 S 
BRANCH  13  16
ATOM     14  S   UNL     1     -38.027  26.264   1.790  0.00  0.00    -0.059 S 
ATOM     15  N   UNL     1     -38.459  24.818   3.888  0.00  0.00    -0.230 NA
ATOM     16  C   UNL     1     -37.543  25.519   3.258  0.00  0.00    +0.141 C 
ATOM     17  C   UNL     1     -39.595  25.600   1.998  0.00  0.00    +0.058 C 
ATOM     18  C   UNL     1     -39.635  24.866   3.166  0.00  0.00    +0.107 C 
ENDBRANCH  13  16
ENDBRANCH   4  13
TORSDOF 5
ENDMDL
MODEL 4
REMARK VINA RESULT:      -5.5      3.804      5.437
REMARK  Name = 20364693
REMARK  5 active torsions:
REMARK  status: ('A' for Active; 'I' for Inactive)
REMARK    1  A    between atoms: C_1  and  C_7
REMARK    2  A    between atoms: C_4  and  S_13
REMARK    3  A    between atoms: C_7  and  C_10
REMARK    4  A    between atoms: C_10  and  O_11
REMARK    5  A    between atoms: S_13  and  C_16
REMARK                            x       y       z     vdW  Elec       q    Type
REMARK                         _______ _______ _______ _____ _____    ______ ____
ROOT
ATOM      1  C   UNL     1     -34.865  24.072   4.764  0.00  0.00    -0.011 C 
ATOM      2  C   UNL     1     -35.146  23.331   3.617  0.00  0.00    +0.003 C 
ATOM      3  C   UNL     1     -34.898  23.459   6.017  0.00  0.00    -0.004 C 
ATOM      4  C   UNL     1     -35.461  21.976   3.722  0.00  0.00    +0.031 C 
ATOM      5  C   UNL     1     -35.213  22.104   6.122  0.00  0.00    +0.000 C 
ATOM      6  C   UNL     1     -35.493  21.362   4.973  0.00  0.00    +0.007 C 
ENDROOT
BRANCH   1   7
ATOM      7  C   UNL     1     -34.529  25.521   4.654  0.00  0.00    +0.121 C 
ATOM      8  C   UNL     1     -33.937  26.121   5.946  0.00  0.00    +0.016 C 
BRANCH   7  10
ATOM      9  O   UNL     1     -35.912  26.764   3.070  0.00  0.00    -0.250 OA
ATOM     10  C   UNL     1     -35.726  26.370   4.214  0.00  0.00    +0.317 C 
BRANCH  10  11
ATOM     11  O   UNL     1     -36.577  26.661   5.234  0.00  0.00    -0.480 OA
ATOM     12  H   UNL     1     -36.306  26.535   6.121  0.00  0.00    +0.295 HD
ENDBRANCH  10  11
ENDBRANCH   7  10
ENDBRANCH   1   7
BRANCH   4  13
ATOM     13  S   UNL     1     -35.819  21.028   2.255  0.00  0.00    -0.062 S 
BRANCH  13  16
ATOM     14  S   UNL     1     -37.140  23.058   0.394  0.00  0.00    -0.059 S 
ATOM     15  N   UNL     1     -38.401  21.810   2.274  0.00  0.00    -0.230 NA
ATOM     16  C   UNL     1     -37.227  21.947   1.699  0.00  0.00    +0.141 C 
ATOM     17  C   UNL     1     -38.809  23.393   0.600  0.00  0.00    +0.058 C 
ATOM     18  C   UNL     1     -39.307  22.639   1.643  0.00  0.00    +0.107 C 
ENDBRANCH  13  16
ENDBRANCH   4  13
TORSDOF 5
ENDMDL
MODEL 5
REMARK VINA RESULT:      -5.5      3.937      5.515
REMARK  Name = 20364693
REMARK  5 active torsions:
REMARK  status: ('A' for Active; 'I' for Inactive)
REMARK    1  A    between atoms: C_1  and  C_7
REMARK    2  A    between atoms: C_4  and  S_13
REMARK    3  A    between atoms: C_7  and  C_10
REMARK    4  A    between atoms: C_10  and  O_11
REMARK    5  A    between atoms: S_13  and  C_16
REMARK                            x       y       z     vdW  Elec       q    Type
REMARK                         _______ _______ _______ _____ _____    ______ ____
ROOT
ATOM      1  C   UNL     1     -35.453  23.944   5.013  0.00  0.00    -0.011 C 
ATOM      2  C   UNL     1     -35.911  23.432   3.799  0.00  0.00    +0.003 C 
ATOM      3  C   UNL     1     -34.988  23.079   6.003  0.00  0.00    -0.004 C 
ATOM      4  C   UNL     1     -35.902  22.055   3.575  0.00  0.00    +0.031 C 
ATOM      5  C   UNL     1     -34.978  21.702   5.780  0.00  0.00    +0.000 C 
ATOM      6  C   UNL     1     -35.436  21.191   4.565  0.00  0.00    +0.007 C 
ENDROOT
BRANCH   1   7
ATOM      7  C   UNL     1     -35.463  25.415   5.254  0.00  0.00    +0.121 C 
ATOM      8  C   UNL     1     -36.198  26.218   4.161  0.00  0.00    +0.016 C 
BRANCH   7  10
ATOM      9  O   UNL     1     -33.692  26.649   6.398  0.00  0.00    -0.250 OA
ATOM     10  C   UNL     1     -34.054  25.991   5.431  0.00  0.00    +0.317 C 
BRANCH  10  11
ATOM     11  O   UNL     1     -33.226  25.707   4.390  0.00  0.00    -0.480 OA
ATOM     12  H   UNL     1     -32.694  24.937   4.411  0.00  0.00    +0.295 HD
ENDBRANCH  10  11
ENDBRANCH   7  10
ENDBRANCH   1   7
BRANCH   4  13
ATOM     13  S   UNL     1     -36.485  21.400   2.023  0.00  0.00    -0.062 S 
BRANCH  13  16
ATOM     14  S   UNL     1     -33.957  21.812   0.360  0.00  0.00    -0.059 S 
ATOM     15  N   UNL     1     -34.463  19.648   1.680  0.00  0.00    -0.230 NA
ATOM     16  C   UNL     1     -34.931  20.841   1.386  0.00  0.00    +0.141 C 
ATOM     17  C   UNL     1     -32.804  20.545   0.294  0.00  0.00    +0.058 C 
ATOM     18  C   UNL     1     -33.244  19.479   1.053  0.00  0.00    +0.107 C 
ENDBRANCH  13  16
ENDBRANCH   4  13
TORSDOF 5
ENDMDL
MODEL 6
REMARK VINA RESULT:      -5.5      3.794      5.456
REMARK  Name = 20364693
REMARK  5 active torsions:
REMARK  status: ('A' for Active; 'I' for Inactive)
REMARK    1  A    between atoms: C_1  and  C_7
REMARK    2  A    between atoms: C_4  and  S_13
REMARK    3  A    between atoms: C_7  and  C_10
REMARK    4  A    between atoms: C_10  and  O_11
REMARK    5  A    between atoms: S_13  and  C_16
REMARK                            x       y       z     vdW  Elec       q    Type
REMARK                         _______ _______ _______ _____ _____    ______ ____
ROOT
ATOM      1  C   UNL     1     -35.383  23.983   5.095  0.00  0.00    -0.011 C 
ATOM      2  C   UNL     1     -35.619  23.513   3.803  0.00  0.00    +0.003 C 
ATOM      3  C   UNL     1     -35.124  23.083   6.129  0.00  0.00    -0.004 C 
ATOM      4  C   UNL     1     -35.597  22.143   3.545  0.00  0.00    +0.031 C 
ATOM      5  C   UNL     1     -35.102  21.712   5.870  0.00  0.00    +0.000 C 
ATOM      6  C   UNL     1     -35.338  21.242   4.578  0.00  0.00    +0.007 C 
ENDROOT
BRANCH   1   7
ATOM      7  C   UNL     1     -35.407  25.448   5.373  0.00  0.00    +0.121 C 
ATOM      8  C   UNL     1     -36.144  26.272   4.297  0.00  0.00    +0.016 C 
BRANCH   7  10
ATOM      9  O   UNL     1     -33.638  26.624   6.580  0.00  0.00    -0.250 OA
ATOM     10  C   UNL     1     -34.004  26.032   5.573  0.00  0.00    +0.317 C 
BRANCH  10  11
ATOM     11  O   UNL     1     -33.188  25.837   4.503  0.00  0.00    -0.480 OA
ATOM     12  H   UNL     1     -33.062  26.523   3.878  0.00  0.00    +0.295 HD
ENDBRANCH  10  11
ENDBRANCH   7  10
ENDBRANCH   1   7
BRANCH   4  13
ATOM     13  S   UNL     1     -35.897  21.541   1.894  0.00  0.00    -0.062 S 
BRANCH  13  16
ATOM     14  S   UNL     1     -37.675  23.632   0.554  0.00  0.00    -0.059 S 
ATOM     15  N   UNL     1     -38.548  21.892   2.254  0.00  0.00    -0.230 NA
ATOM     16  C   UNL     1     -37.470  22.311   1.629  0.00  0.00    +0.141 C 
ATOM     17  C   UNL     1     -39.345  23.659   0.944  0.00  0.00    +0.058 C 
ATOM     18  C   UNL     1     -39.622  22.666   1.861  0.00  0.00    +0.107 C 
ENDBRANCH  13  16
ENDBRANCH   4  13
TORSDOF 5
ENDMDL
MODEL 7
REMARK VINA RESULT:      -5.2      4.405      6.245
REMARK  Name = 20364693
REMARK  5 active torsions:
REMARK  status: ('A' for Active; 'I' for Inactive)
REMARK    1  A    between atoms: C_1  and  C_7
REMARK    2  A    between atoms: C_4  and  S_13
REMARK    3  A    between atoms: C_7  and  C_10
REMARK    4  A    between atoms: C_10  and  O_11
REMARK    5  A    between atoms: S_13  and  C_16
REMARK                            x       y       z     vdW  Elec       q    Type
REMARK                         _______ _______ _______ _____ _____    ______ ____
ROOT
ATOM      1  C   UNL     1     -35.087  23.511   3.548  0.00  0.00    -0.011 C 
ATOM      2  C   UNL     1     -35.589  22.244   3.251  0.00  0.00    +0.003 C 
ATOM      3  C   UNL     1     -34.558  24.308   2.534  0.00  0.00    -0.004 C 
ATOM      4  C   UNL     1     -35.562  21.774   1.938  0.00  0.00    +0.031 C 
ATOM      5  C   UNL     1     -34.531  23.838   1.220  0.00  0.00    +0.000 C 
ATOM      6  C   UNL     1     -35.034  22.571   0.923  0.00  0.00    +0.007 C 
ENDROOT
BRANCH   1   7
ATOM      7  C   UNL     1     -35.115  24.014   4.952  0.00  0.00    +0.121 C 
ATOM      8  C   UNL     1     -35.453  22.928   5.994  0.00  0.00    +0.016 C 
BRANCH   7  10
ATOM      9  O   UNL     1     -35.760  26.272   5.623  0.00  0.00    -0.250 OA
ATOM     10  C   UNL     1     -36.075  25.195   5.135  0.00  0.00    +0.317 C 
BRANCH  10  11
ATOM     11  O   UNL     1     -37.337  24.928   4.704  0.00  0.00    -0.480 OA
ATOM     12  H   UNL     1     -37.570  25.085   3.811  0.00  0.00    +0.295 HD
ENDBRANCH  10  11
ENDBRANCH   7  10
ENDBRANCH   1   7
BRANCH   4  13
ATOM     13  S   UNL     1     -36.204  20.156   1.556  0.00  0.00    -0.062 S 
BRANCH  13  16
ATOM     14  S   UNL     1     -34.493  18.988  -0.688  0.00  0.00    -0.059 S 
ATOM     15  N   UNL     1     -33.693  19.191   1.761  0.00  0.00    -0.230 NA
ATOM     16  C   UNL     1     -34.706  19.426   0.957  0.00  0.00    +0.141 C 
ATOM     17  C   UNL     1     -32.914  18.436  -0.312  0.00  0.00    +0.058 C 
ATOM     18  C   UNL     1     -32.667  18.623   1.032  0.00  0.00    +0.107 C 
ENDBRANCH  13  16
ENDBRANCH   4  13
TORSDOF 5
ENDMDL
MODEL 8
REMARK VINA RESULT:      -5.2      3.148      4.858
REMARK  Name = 20364693
REMARK  5 active torsions:
REMARK  status: ('A' for Active; 'I' for Inactive)
REMARK    1  A    between atoms: C_1  and  C_7
REMARK    2  A    between atoms: C_4  and  S_13
REMARK    3  A    between atoms: C_7  and  C_10
REMARK    4  A    between atoms: C_10  and  O_11
REMARK    5  A    between atoms: S_13  and  C_16
REMARK                            x       y       z     vdW  Elec       q    Type
REMARK                         _______ _______ _______ _____ _____    ______ ____
ROOT
ATOM      1  C   UNL     1     -33.684  19.620   1.026  0.00  0.00    -0.011 C 
ATOM      2  C   UNL     1     -34.881  19.997   1.634  0.00  0.00    +0.003 C 
ATOM      3  C   UNL     1     -32.930  20.562   0.325  0.00  0.00    -0.004 C 
ATOM      4  C   UNL     1     -35.324  21.317   1.542  0.00  0.00    +0.031 C 
ATOM      5  C   UNL     1     -33.372  21.881   0.233  0.00  0.00    +0.000 C 
ATOM      6  C   UNL     1     -34.570  22.259   0.843  0.00  0.00    +0.007 C 
ENDROOT
BRANCH   1   7
ATOM      7  C   UNL     1     -33.209  18.210   1.123  0.00  0.00    +0.121 C 
ATOM      8  C   UNL     1     -31.673  18.073   1.163  0.00  0.00    +0.016 C 
BRANCH   7  10
ATOM      9  O   UNL     1     -33.452  17.437  -1.182  0.00  0.00    -0.250 OA
ATOM     10  C   UNL     1     -33.759  17.326  -0.002  0.00  0.00    +0.317 C 
BRANCH  10  11
ATOM     11  O   UNL     1     -34.644  16.392   0.438  0.00  0.00    -0.480 OA
ATOM     12  H   UNL     1     -34.403  15.487   0.451  0.00  0.00    +0.295 HD
ENDBRANCH  10  11
ENDBRANCH   7  10
ENDBRANCH   1   7
BRANCH   4  13
ATOM     13  S   UNL     1     -36.853  21.801   2.320  0.00  0.00    -0.062 S 
BRANCH  13  16
ATOM     14  S   UNL     1     -36.369  24.311   3.991  0.00  0.00    -0.059 S 
ATOM     15  N   UNL     1     -35.474  21.973   4.631  0.00  0.00    -0.230 NA
ATOM     16  C   UNL     1     -36.168  22.627   3.728  0.00  0.00    +0.141 C 
ATOM     17  C   UNL     1     -35.456  24.170   5.435  0.00  0.00    +0.058 C 
ATOM     18  C   UNL     1     -35.065  22.858   5.609  0.00  0.00    +0.107 C 
ENDBRANCH  13  16
ENDBRANCH   4  13
TORSDOF 5
ENDMDL
MODEL 9
REMARK VINA RESULT:      -5.1      3.131      4.432
REMARK  Name = 20364693
REMARK  5 active torsions:
REMARK  status: ('A' for Active; 'I' for Inactive)
REMARK    1  A    between atoms: C_1  and  C_7
REMARK    2  A    between atoms: C_4  and  S_13
REMARK    3  A    between atoms: C_7  and  C_10
REMARK    4  A    between atoms: C_10  and  O_11
REMARK    5  A    between atoms: S_13  and  C_16
REMARK                            x       y       z     vdW  Elec       q    Type
REMARK                         _______ _______ _______ _____ _____    ______ ____
ROOT
ATOM      1  C   UNL     1     -35.092  23.955   4.021  0.00  0.00    -0.011 C 
ATOM      2  C   UNL     1     -35.835  24.609   3.038  0.00  0.00    +0.003 C 
ATOM      3  C   UNL     1     -34.376  24.694   4.962  0.00  0.00    -0.004 C 
ATOM      4  C   UNL     1     -35.863  26.003   2.997  0.00  0.00    +0.031 C 
ATOM      5  C   UNL     1     -34.404  26.089   4.921  0.00  0.00    +0.000 C 
ATOM      6  C   UNL     1     -35.148  26.742   3.939  0.00  0.00    +0.007 C 
ENDROOT
BRANCH   1   7
ATOM      7  C   UNL     1     -35.061  22.465   4.065  0.00  0.00    +0.121 C 
ATOM      8  C   UNL     1     -35.904  21.793   2.962  0.00  0.00    +0.016 C 
BRANCH   7  10
ATOM      9  O   UNL     1     -36.101  22.547   6.275  0.00  0.00    -0.250 OA
ATOM     10  C   UNL     1     -35.490  21.908   5.427  0.00  0.00    +0.317 C 
BRANCH  10  11
ATOM     11  O   UNL     1     -35.114  20.615   5.618  0.00  0.00    -0.480 OA
ATOM     12  H   UNL     1     -34.390  20.415   6.178  0.00  0.00    +0.295 HD
ENDBRANCH  10  11
ENDBRANCH   7  10
ENDBRANCH   1   7
BRANCH   4  13
ATOM     13  S   UNL     1     -36.814  26.839   1.743  0.00  0.00    -0.062 S 
BRANCH  13  16
ATOM     14  S   UNL     1     -38.936  24.811   0.901  0.00  0.00    -0.059 S 
ATOM     15  N   UNL     1     -39.111  26.261   3.033  0.00  0.00    -0.230 NA
ATOM     16  C   UNL     1     -38.352  26.000   1.992  0.00  0.00    +0.141 C 
ATOM     17  C   UNL     1     -40.322  24.615   1.892  0.00  0.00    +0.058 C 
ATOM     18  C   UNL     1     -40.239  25.467   2.974  0.00  0.00    +0.107 C 
ENDBRANCH  13  16
ENDBRANCH   4  13
TORSDOF 5
ENDMDL
