MODEL 1
REMARK VINA RESULT:      -6.7      0.000      0.000
REMARK  Name = 5281047
REMARK  4 active torsions:
REMARK  status: ('A' for Active; 'I' for Inactive)
REMARK    1  A    between atoms: C_12  and  C_24
REMARK    2  A    between atoms: C_13  and  O_28
REMARK    3  A    between atoms: C_14  and  O_30
REMARK    4  A    between atoms: C_18  and  O_32
REMARK                            x       y       z     vdW  Elec       q    Type
REMARK                         _______ _______ _______ _____ _____    ______ ____
ROOT
ATOM      1  O   UNL     1     -36.213  26.399   1.551  0.00  0.00    -0.312 OA
ATOM      2  O   UNL     1     -35.236  23.241   0.671  0.00  0.00    -0.450 OA
ATOM      3  O   UNL     1     -38.655  26.950   1.695  0.00  0.00    -0.423 OA
ATOM      4  O   UNL     1     -34.314  24.617   5.292  0.00  0.00    -0.447 OA
ATOM      5  O   UNL     1     -34.223  25.126  -0.135  0.00  0.00    -0.247 OA
ATOM      6  O   UNL     1     -40.854  26.660   2.353  0.00  0.00    -0.247 OA
ATOM      7  O   UNL     1     -33.759  26.598   6.295  0.00  0.00    -0.250 OA
ATOM      8  C   UNL     1     -36.562  24.173   2.438  0.00  0.00    +0.109 C 
ATOM      9  C   UNL     1     -37.888  24.810   2.012  0.00  0.00    +0.108 C 
ATOM     10  C   UNL     1     -35.508  25.203   1.930  0.00  0.00    +0.216 C 
ATOM     11  C   UNL     1     -36.339  22.951   1.543  0.00  0.00    +0.174 C 
ATOM     12  C   UNL     1     -38.072  24.284   0.541  0.00  0.00    +0.013 C 
ATOM     13  C   UNL     1     -34.458  25.362   3.060  0.00  0.00    +0.170 C 
ATOM     14  C   UNL     1     -36.248  23.996   3.925  0.00  0.00    +0.159 C 
ATOM     15  C   UNL     1     -37.504  26.267   2.147  0.00  0.00    +0.294 C 
ATOM     16  C   UNL     1     -34.735  24.191   3.993  0.00  0.00    +0.223 C 
ATOM     17  C   UNL     1     -37.596  22.833   0.686  0.00  0.00    +0.044 C 
ATOM     18  C   UNL     1     -39.209  24.881   2.762  0.00  0.00    +0.216 C 
ATOM     19  C   UNL     1     -34.916  24.563   0.700  0.00  0.00    +0.344 C 
ATOM     20  C   UNL     1     -34.557  26.570   3.991  0.00  0.00    +0.130 C 
ATOM     21  C   UNL     1     -39.709  26.244   2.266  0.00  0.00    +0.346 C 
ATOM     22  C   UNL     1     -34.143  25.974   5.318  0.00  0.00    +0.319 C 
ATOM     23  C   UNL     1     -33.696  27.763   3.607  0.00  0.00    +0.014 C 
ENDROOT
BRANCH  12  24
ATOM     24  C   UNL     1     -39.438  24.335  -0.140  0.00  0.00    +0.000 C 
ATOM     25  C   UNL     1     -39.452  23.385  -1.351  0.00  0.00    +0.000 C 
ATOM     26  C   UNL     1     -40.530  23.903   0.853  0.00  0.00    +0.000 C 
ATOM     27  C   UNL     1     -39.728  25.767  -0.618  0.00  0.00    +0.000 C 
ENDBRANCH  12  24
BRANCH  13  28
ATOM     28  O   UNL     1     -33.121  25.229   2.581  0.00  0.00    -0.380 OA
ATOM     29  H   UNL     1     -32.762  26.107   2.375  0.00  0.00    +0.211 HD
ENDBRANCH  13  28
BRANCH  14  30
ATOM     30  O   UNL     1     -36.611  22.719   4.416  0.00  0.00    -0.380 OA
ATOM     31  H   UNL     1     -36.357  22.040   3.771  0.00  0.00    +0.210 HD
ENDBRANCH  14  30
BRANCH  18  32
ATOM     32  O   UNL     1     -39.092  24.954   4.163  0.00  0.00    -0.374 OA
ATOM     33  H   UNL     1     -38.251  24.555   4.438  0.00  0.00    +0.211 HD
ENDBRANCH  18  32
TORSDOF 4
ENDMDL
MODEL 2
REMARK VINA RESULT:      -6.6      2.133      5.200
REMARK  Name = 5281047
REMARK  4 active torsions:
REMARK  status: ('A' for Active; 'I' for Inactive)
REMARK    1  A    between atoms: C_12  and  C_24
REMARK    2  A    between atoms: C_13  and  O_28
REMARK    3  A    between atoms: C_14  and  O_30
REMARK    4  A    between atoms: C_18  and  O_32
REMARK                            x       y       z     vdW  Elec       q    Type
REMARK                         _______ _______ _______ _____ _____    ______ ____
ROOT
ATOM      1  O   UNL     1     -35.109  23.901   1.260  0.00  0.00    -0.312 OA
ATOM      2  O   UNL     1     -37.692  26.024   1.985  0.00  0.00    -0.450 OA
ATOM      3  O   UNL     1     -32.850  24.836   0.702  0.00  0.00    -0.423 OA
ATOM      4  O   UNL     1     -36.005  23.275   5.686  0.00  0.00    -0.447 OA
ATOM      5  O   UNL     1     -37.937  24.172   0.668  0.00  0.00    -0.247 OA
ATOM      6  O   UNL     1     -30.977  26.161   0.998  0.00  0.00    -0.247 OA
ATOM      7  O   UNL     1     -35.142  21.161   5.850  0.00  0.00    -0.250 OA
ATOM      8  C   UNL     1     -35.520  25.618   2.917  0.00  0.00    +0.109 C 
ATOM      9  C   UNL     1     -34.331  25.988   2.024  0.00  0.00    +0.108 C 
ATOM     10  C   UNL     1     -36.079  24.336   2.230  0.00  0.00    +0.216 C 
ATOM     11  C   UNL     1     -36.609  26.667   2.677  0.00  0.00    +0.174 C 
ATOM     12  C   UNL     1     -34.996  26.869   0.903  0.00  0.00    +0.013 C 
ATOM     13  C   UNL     1     -36.407  23.329   3.363  0.00  0.00    +0.170 C 
ATOM     14  C   UNL     1     -35.278  25.208   4.371  0.00  0.00    +0.159 C 
ATOM     15  C   UNL     1     -33.910  24.597   1.605  0.00  0.00    +0.294 C 
ATOM     16  C   UNL     1     -36.368  24.171   4.632  0.00  0.00    +0.223 C 
ATOM     17  C   UNL     1     -35.992  27.693   1.730  0.00  0.00    +0.044 C 
ATOM     18  C   UNL     1     -32.955  26.504   2.414  0.00  0.00    +0.216 C 
ATOM     19  C   UNL     1     -37.323  24.801   1.517  0.00  0.00    +0.344 C 
ATOM     20  C   UNL     1     -35.408  22.212   3.666  0.00  0.00    +0.130 C 
ATOM     21  C   UNL     1     -32.116  25.850   1.309  0.00  0.00    +0.346 C 
ATOM     22  C   UNL     1     -35.502  22.111   5.171  0.00  0.00    +0.319 C 
ATOM     23  C   UNL     1     -35.690  20.882   2.985  0.00  0.00    +0.014 C 
ENDROOT
BRANCH  12  24
ATOM     24  C   UNL     1     -34.146  27.782   0.023  0.00  0.00    +0.000 C 
ATOM     25  C   UNL     1     -35.042  28.834  -0.654  0.00  0.00    +0.000 C 
ATOM     26  C   UNL     1     -33.089  28.496   0.882  0.00  0.00    +0.000 C 
ATOM     27  C   UNL     1     -33.440  26.949  -1.060  0.00  0.00    +0.000 C 
ENDBRANCH  12  24
BRANCH  13  28
ATOM     28  O   UNL     1     -37.720  22.785   3.243  0.00  0.00    -0.380 OA
ATOM     29  H   UNL     1     -38.239  23.325   2.628  0.00  0.00    +0.211 HD
ENDBRANCH  13  28
BRANCH  14  30
ATOM     30  O   UNL     1     -35.390  26.292   5.276  0.00  0.00    -0.380 OA
ATOM     31  H   UNL     1     -35.357  25.958   6.186  0.00  0.00    +0.210 HD
ENDBRANCH  14  30
BRANCH  18  32
ATOM     32  O   UNL     1     -32.474  26.032   3.651  0.00  0.00    -0.374 OA
ATOM     33  H   UNL     1     -32.816  26.592   4.366  0.00  0.00    +0.211 HD
ENDBRANCH  18  32
TORSDOF 4
ENDMDL
MODEL 3
REMARK VINA RESULT:      -6.4      2.790      4.986
REMARK  Name = 5281047
REMARK  4 active torsions:
REMARK  status: ('A' for Active; 'I' for Inactive)
REMARK    1  A    between atoms: C_12  and  C_24
REMARK    2  A    between atoms: C_13  and  O_28
REMARK    3  A    between atoms: C_14  and  O_30
REMARK    4  A    between atoms: C_18  and  O_32
REMARK                            x       y       z     vdW  Elec       q    Type
REMARK                         _______ _______ _______ _____ _____    ______ ____
ROOT
ATOM      1  O   UNL     1     -34.472  23.098   0.532  0.00  0.00    -0.312 OA
ATOM      2  O   UNL     1     -37.340  21.887  -0.885  0.00  0.00    -0.450 OA
ATOM      3  O   UNL     1     -34.601  24.456   2.636  0.00  0.00    -0.423 OA
ATOM      4  O   UNL     1     -34.278  18.573   1.050  0.00  0.00    -0.447 OA
ATOM      5  O   UNL     1     -35.639  22.803  -2.108  0.00  0.00    -0.247 OA
ATOM      6  O   UNL     1     -35.246  24.941   4.805  0.00  0.00    -0.247 OA
ATOM      7  O   UNL     1     -32.003  18.410   1.239  0.00  0.00    -0.250 OA
ATOM      8  C   UNL     1     -36.267  21.639   1.245  0.00  0.00    +0.109 C 
ATOM      9  C   UNL     1     -36.206  22.901   2.112  0.00  0.00    +0.108 C 
ATOM     10  C   UNL     1     -35.223  21.939   0.128  0.00  0.00    +0.216 C 
ATOM     11  C   UNL     1     -37.609  21.662   0.508  0.00  0.00    +0.174 C 
ATOM     12  C   UNL     1     -37.230  23.862   1.403  0.00  0.00    +0.013 C 
ATOM     13  C   UNL     1     -34.407  20.638  -0.082  0.00  0.00    +0.170 C 
ATOM     14  C   UNL     1     -35.835  20.293   1.832  0.00  0.00    +0.159 C 
ATOM     15  C   UNL     1     -34.744  23.242   1.927  0.00  0.00    +0.294 C 
ATOM     16  C   UNL     1     -35.219  19.569   0.637  0.00  0.00    +0.223 C 
ATOM     17  C   UNL     1     -38.354  22.881   1.044  0.00  0.00    +0.044 C 
ATOM     18  C   UNL     1     -36.252  23.035   3.626  0.00  0.00    +0.216 C 
ATOM     19  C   UNL     1     -36.053  22.282  -1.083  0.00  0.00    +0.344 C 
ATOM     20  C   UNL     1     -33.031  20.519   0.575  0.00  0.00    +0.130 C 
ATOM     21  C   UNL     1     -35.333  24.250   3.802  0.00  0.00    +0.346 C 
ATOM     22  C   UNL     1     -33.002  19.061   0.973  0.00  0.00    +0.319 C 
ATOM     23  C   UNL     1     -31.851  20.895  -0.307  0.00  0.00    +0.014 C 
ENDROOT
BRANCH  12  24
ATOM     24  C   UNL     1     -37.793  25.078   2.136  0.00  0.00    +0.000 C 
ATOM     25  C   UNL     1     -39.072  25.563   1.432  0.00  0.00    +0.000 C 
ATOM     26  C   UNL     1     -38.127  24.701   3.589  0.00  0.00    +0.000 C 
ATOM     27  C   UNL     1     -36.754  26.212   2.134  0.00  0.00    +0.000 C 
ENDBRANCH  12  24
BRANCH  13  28
ATOM     28  O   UNL     1     -34.319  20.267  -1.456  0.00  0.00    -0.380 OA
ATOM     29  H   UNL     1     -34.792  19.432  -1.596  0.00  0.00    +0.211 HD
ENDBRANCH  13  28
BRANCH  14  30
ATOM     30  O   UNL     1     -36.917  19.551   2.364  0.00  0.00    -0.380 OA
ATOM     31  H   UNL     1     -37.047  19.792   3.296  0.00  0.00    +0.210 HD
ENDBRANCH  14  30
BRANCH  18  32
ATOM     32  O   UNL     1     -35.678  21.960   4.334  0.00  0.00    -0.374 OA
ATOM     33  H   UNL     1     -36.343  21.264   4.460  0.00  0.00    +0.211 HD
ENDBRANCH  18  32
TORSDOF 4
ENDMDL
MODEL 4
REMARK VINA RESULT:      -6.3      2.704      5.665
REMARK  Name = 5281047
REMARK  4 active torsions:
REMARK  status: ('A' for Active; 'I' for Inactive)
REMARK    1  A    between atoms: C_12  and  C_24
REMARK    2  A    between atoms: C_13  and  O_28
REMARK    3  A    between atoms: C_14  and  O_30
REMARK    4  A    between atoms: C_18  and  O_32
REMARK                            x       y       z     vdW  Elec       q    Type
REMARK                         _______ _______ _______ _____ _____    ______ ____
ROOT
ATOM      1  O   UNL     1     -35.328  23.848   1.465  0.00  0.00    -0.312 OA
ATOM      2  O   UNL     1     -35.514  21.215   3.641  0.00  0.00    -0.450 OA
ATOM      3  O   UNL     1     -34.510  23.472  -0.876  0.00  0.00    -0.423 OA
ATOM      4  O   UNL     1     -39.777  23.170   2.191  0.00  0.00    -0.447 OA
ATOM      5  O   UNL     1     -34.729  23.275   4.246  0.00  0.00    -0.247 OA
ATOM      6  O   UNL     1     -34.422  22.443  -2.946  0.00  0.00    -0.247 OA
ATOM      7  O   UNL     1     -40.473  25.285   1.659  0.00  0.00    -0.250 OA
ATOM      8  C   UNL     1     -36.486  21.722   1.508  0.00  0.00    +0.109 C 
ATOM      9  C   UNL     1     -35.509  21.793   0.330  0.00  0.00    +0.108 C 
ATOM     10  C   UNL     1     -36.166  23.027   2.298  0.00  0.00    +0.216 C 
ATOM     11  C   UNL     1     -35.997  20.605   2.433  0.00  0.00    +0.174 C 
ATOM     12  C   UNL     1     -34.208  21.129   0.914  0.00  0.00    +0.013 C 
ATOM     13  C   UNL     1     -37.527  23.644   2.713  0.00  0.00    +0.170 C 
ATOM     14  C   UNL     1     -37.993  21.783   1.250  0.00  0.00    +0.159 C 
ATOM     15  C   UNL     1     -35.461  23.295   0.155  0.00  0.00    +0.294 C 
ATOM     16  C   UNL     1     -38.531  22.525   2.470  0.00  0.00    +0.223 C 
ATOM     17  C   UNL     1     -34.807  19.970   1.720  0.00  0.00    +0.044 C 
ATOM     18  C   UNL     1     -35.730  21.429  -1.130  0.00  0.00    +0.216 C 
ATOM     19  C   UNL     1     -35.374  22.560   3.494  0.00  0.00    +0.344 C 
ATOM     20  C   UNL     1     -38.095  24.796   1.884  0.00  0.00    +0.130 C 
ATOM     21  C   UNL     1     -34.821  22.472  -1.792  0.00  0.00    +0.346 C 
ATOM     22  C   UNL     1     -39.576  24.493   1.906  0.00  0.00    +0.319 C 
ATOM     23  C   UNL     1     -37.788  26.190   2.408  0.00  0.00    +0.014 C 
ENDROOT
BRANCH  12  24
ATOM     24  C   UNL     1     -33.107  20.624  -0.016  0.00  0.00    +0.000 C 
ATOM     25  C   UNL     1     -32.235  19.593   0.722  0.00  0.00    +0.000 C 
ATOM     26  C   UNL     1     -33.735  19.961  -1.254  0.00  0.00    +0.000 C 
ATOM     27  C   UNL     1     -32.225  21.801  -0.465  0.00  0.00    +0.000 C 
ENDBRANCH  12  24
BRANCH  13  28
ATOM     28  O   UNL     1     -37.572  23.977   4.099  0.00  0.00    -0.380 OA
ATOM     29  H   UNL     1     -36.840  23.540   4.561  0.00  0.00    +0.211 HD
ENDBRANCH  13  28
BRANCH  14  30
ATOM     30  O   UNL     1     -38.585  20.502   1.140  0.00  0.00    -0.380 OA
ATOM     31  H   UNL     1     -38.704  20.124   2.026  0.00  0.00    +0.210 HD
ENDBRANCH  14  30
BRANCH  18  32
ATOM     32  O   UNL     1     -37.040  21.644  -1.602  0.00  0.00    -0.374 OA
ATOM     33  H   UNL     1     -37.671  21.501  -0.879  0.00  0.00    +0.211 HD
ENDBRANCH  18  32
TORSDOF 4
ENDMDL
MODEL 5
REMARK VINA RESULT:      -6.1      2.438      5.736
REMARK  Name = 5281047
REMARK  4 active torsions:
REMARK  status: ('A' for Active; 'I' for Inactive)
REMARK    1  A    between atoms: C_12  and  C_24
REMARK    2  A    between atoms: C_13  and  O_28
REMARK    3  A    between atoms: C_14  and  O_30
REMARK    4  A    between atoms: C_18  and  O_32
REMARK                            x       y       z     vdW  Elec       q    Type
REMARK                         _______ _______ _______ _____ _____    ______ ____
ROOT
ATOM      1  O   UNL     1     -35.488  25.519   1.117  0.00  0.00    -0.312 OA
ATOM      2  O   UNL     1     -36.184  28.714   2.121  0.00  0.00    -0.450 OA
ATOM      3  O   UNL     1     -33.304  25.016  -0.009  0.00  0.00    -0.423 OA
ATOM      4  O   UNL     1     -35.495  25.397   5.673  0.00  0.00    -0.447 OA
ATOM      5  O   UNL     1     -37.727  27.365   1.106  0.00  0.00    -0.247 OA
ATOM      6  O   UNL     1     -31.005  25.032  -0.268  0.00  0.00    -0.247 OA
ATOM      7  O   UNL     1     -35.949  23.164   5.893  0.00  0.00    -0.250 OA
ATOM      8  C   UNL     1     -34.462  27.120   2.614  0.00  0.00    +0.109 C 
ATOM      9  C   UNL     1     -33.524  26.771   1.454  0.00  0.00    +0.108 C 
ATOM     10  C   UNL     1     -35.785  26.402   2.213  0.00  0.00    +0.216 C 
ATOM     11  C   UNL     1     -34.800  28.608   2.490  0.00  0.00    +0.174 C 
ATOM     12  C   UNL     1     -33.828  27.904   0.406  0.00  0.00    +0.013 C 
ATOM     13  C   UNL     1     -36.338  25.732   3.497  0.00  0.00    +0.170 C 
ATOM     14  C   UNL     1     -34.152  26.607   4.022  0.00  0.00    +0.159 C 
ATOM     15  C   UNL     1     -34.065  25.400   1.119  0.00  0.00    +0.294 C 
ATOM     16  C   UNL     1     -35.534  26.368   4.623  0.00  0.00    +0.223 C 
ATOM     17  C   UNL     1     -33.963  29.126   1.324  0.00  0.00    +0.044 C 
ATOM     18  C   UNL     1     -32.049  26.403   1.484  0.00  0.00    +0.216 C 
ATOM     19  C   UNL     1     -36.685  27.511   1.728  0.00  0.00    +0.344 C 
ATOM     20  C   UNL     1     -36.095  24.237   3.708  0.00  0.00    +0.130 C 
ATOM     21  C   UNL     1     -32.010  25.416   0.310  0.00  0.00    +0.346 C 
ATOM     22  C   UNL     1     -35.867  24.168   5.201  0.00  0.00    +0.319 C 
ATOM     23  C   UNL     1     -37.223  23.322   3.259  0.00  0.00    +0.014 C 
ENDROOT
BRANCH  12  24
ATOM     24  C   UNL     1     -32.853  28.194  -0.733  0.00  0.00    +0.000 C 
ATOM     25  C   UNL     1     -33.141  29.585  -1.324  0.00  0.00    +0.000 C 
ATOM     26  C   UNL     1     -31.409  28.159  -0.203  0.00  0.00    +0.000 C 
ATOM     27  C   UNL     1     -33.013  27.134  -1.836  0.00  0.00    +0.000 C 
ENDBRANCH  12  24
BRANCH  13  28
ATOM     28  O   UNL     1     -37.714  26.034   3.719  0.00  0.00    -0.380 OA
ATOM     29  H   UNL     1     -38.110  25.346   4.276  0.00  0.00    +0.211 HD
ENDBRANCH  13  28
BRANCH  14  30
ATOM     30  O   UNL     1     -33.421  27.538   4.800  0.00  0.00    -0.380 OA
ATOM     31  H   UNL     1     -32.843  28.060   4.221  0.00  0.00    +0.210 HD
ENDBRANCH  14  30
BRANCH  18  32
ATOM     32  O   UNL     1     -31.635  25.708   2.637  0.00  0.00    -0.374 OA
ATOM     33  H   UNL     1     -30.818  25.219   2.445  0.00  0.00    +0.211 HD
ENDBRANCH  18  32
TORSDOF 4
ENDMDL
MODEL 6
REMARK VINA RESULT:      -6.1      1.073      1.474
REMARK  Name = 5281047
REMARK  4 active torsions:
REMARK  status: ('A' for Active; 'I' for Inactive)
REMARK    1  A    between atoms: C_12  and  C_24
REMARK    2  A    between atoms: C_13  and  O_28
REMARK    3  A    between atoms: C_14  and  O_30
REMARK    4  A    between atoms: C_18  and  O_32
REMARK                            x       y       z     vdW  Elec       q    Type
REMARK                         _______ _______ _______ _____ _____    ______ ____
ROOT
ATOM      1  O   UNL     1     -35.739  25.940   1.210  0.00  0.00    -0.312 OA
ATOM      2  O   UNL     1     -34.337  22.820   1.251  0.00  0.00    -0.450 OA
ATOM      3  O   UNL     1     -38.226  26.188   1.422  0.00  0.00    -0.423 OA
ATOM      4  O   UNL     1     -33.387  25.704   5.108  0.00  0.00    -0.447 OA
ATOM      5  O   UNL     1     -33.672  24.463  -0.192  0.00  0.00    -0.247 OA
ATOM      6  O   UNL     1     -40.314  25.842   2.355  0.00  0.00    -0.247 OA
ATOM      7  O   UNL     1     -33.090  27.956   5.392  0.00  0.00    -0.250 OA
ATOM      8  C   UNL     1     -35.692  24.088   2.769  0.00  0.00    +0.109 C 
ATOM      9  C   UNL     1     -37.122  24.379   2.304  0.00  0.00    +0.108 C 
ATOM     10  C   UNL     1     -34.839  25.029   1.867  0.00  0.00    +0.216 C 
ATOM     11  C   UNL     1     -35.333  22.683   2.277  0.00  0.00    +0.174 C 
ATOM     12  C   UNL     1     -37.303  23.391   1.092  0.00  0.00    +0.013 C 
ATOM     13  C   UNL     1     -33.765  25.673   2.781  0.00  0.00    +0.170 C 
ATOM     14  C   UNL     1     -35.274  24.436   4.200  0.00  0.00    +0.159 C 
ATOM     15  C   UNL     1     -36.960  25.839   1.945  0.00  0.00    +0.294 C 
ATOM     16  C   UNL     1     -33.808  24.836   4.052  0.00  0.00    +0.223 C 
ATOM     17  C   UNL     1     -36.602  22.137   1.628  0.00  0.00    +0.044 C 
ATOM     18  C   UNL     1     -38.395  24.514   3.124  0.00  0.00    +0.216 C 
ATOM     19  C   UNL     1     -34.223  24.112   0.840  0.00  0.00    +0.344 C 
ATOM     20  C   UNL     1     -33.999  27.092   3.301  0.00  0.00    +0.130 C 
ATOM     21  C   UNL     1     -39.126  25.572   2.286  0.00  0.00    +0.346 C 
ATOM     22  C   UNL     1     -33.426  27.009   4.698  0.00  0.00    +0.319 C 
ATOM     23  C   UNL     1     -33.354  28.201   2.484  0.00  0.00    +0.014 C 
ENDROOT
BRANCH  12  24
ATOM     24  C   UNL     1     -38.695  23.046   0.569  0.00  0.00    +0.000 C 
ATOM     25  C   UNL     1     -39.652  22.815   1.752  0.00  0.00    +0.000 C 
ATOM     26  C   UNL     1     -39.229  24.202  -0.293  0.00  0.00    +0.000 C 
ATOM     27  C   UNL     1     -38.628  21.768  -0.283  0.00  0.00    +0.000 C 
ENDBRANCH  12  24
BRANCH  13  28
ATOM     28  O   UNL     1     -32.452  25.569   2.235  0.00  0.00    -0.380 OA
ATOM     29  H   UNL     1     -32.454  24.926   1.508  0.00  0.00    +0.211 HD
ENDBRANCH  13  28
BRANCH  14  30
ATOM     30  O   UNL     1     -35.409  23.346   5.094  0.00  0.00    -0.380 OA
ATOM     31  H   UNL     1     -35.076  23.602   5.969  0.00  0.00    +0.210 HD
ENDBRANCH  14  30
BRANCH  18  32
ATOM     32  O   UNL     1     -38.214  25.045   4.416  0.00  0.00    -0.374 OA
ATOM     33  H   UNL     1     -37.550  25.752   4.384  0.00  0.00    +0.211 HD
ENDBRANCH  18  32
TORSDOF 4
ENDMDL
MODEL 7
REMARK VINA RESULT:      -6.0      1.675      2.288
REMARK  Name = 5281047
REMARK  4 active torsions:
REMARK  status: ('A' for Active; 'I' for Inactive)
REMARK    1  A    between atoms: C_12  and  C_24
REMARK    2  A    between atoms: C_13  and  O_28
REMARK    3  A    between atoms: C_14  and  O_30
REMARK    4  A    between atoms: C_18  and  O_32
REMARK                            x       y       z     vdW  Elec       q    Type
REMARK                         _______ _______ _______ _____ _____    ______ ____
ROOT
ATOM      1  O   UNL     1     -37.227  26.174   2.749  0.00  0.00    -0.312 OA
ATOM      2  O   UNL     1     -35.458  24.932   0.097  0.00  0.00    -0.450 OA
ATOM      3  O   UNL     1     -39.716  26.433   2.572  0.00  0.00    -0.423 OA
ATOM      4  O   UNL     1     -35.705  22.094   4.095  0.00  0.00    -0.447 OA
ATOM      5  O   UNL     1     -34.740  26.704   1.351  0.00  0.00    -0.247 OA
ATOM      6  O   UNL     1     -41.885  25.768   2.119  0.00  0.00    -0.247 OA
ATOM      7  O   UNL     1     -35.776  22.498   6.347  0.00  0.00    -0.250 OA
ATOM      8  C   UNL     1     -37.250  24.120   1.468  0.00  0.00    +0.109 C 
ATOM      9  C   UNL     1     -38.582  24.865   1.336  0.00  0.00    +0.108 C 
ATOM     10  C   UNL     1     -36.366  25.134   2.253  0.00  0.00    +0.216 C 
ATOM     11  C   UNL     1     -36.615  24.080   0.075  0.00  0.00    +0.174 C 
ATOM     12  C   UNL     1     -38.379  25.713   0.026  0.00  0.00    +0.013 C 
ATOM     13  C   UNL     1     -35.596  24.319   3.325  0.00  0.00    +0.170 C 
ATOM     14  C   UNL     1     -37.182  22.828   2.285  0.00  0.00    +0.159 C 
ATOM     15  C   UNL     1     -38.547  25.640   2.634  0.00  0.00    +0.294 C 
ATOM     16  C   UNL     1     -35.784  22.870   2.896  0.00  0.00    +0.223 C 
ATOM     17  C   UNL     1     -37.641  24.706  -0.865  0.00  0.00    +0.044 C 
ATOM     18  C   UNL     1     -40.002  24.334   1.457  0.00  0.00    +0.216 C 
ATOM     19  C   UNL     1     -35.437  25.709   1.213  0.00  0.00    +0.344 C 
ATOM     20  C   UNL     1     -36.117  24.319   4.762  0.00  0.00    +0.130 C 
ATOM     21  C   UNL     1     -40.682  25.565   2.071  0.00  0.00    +0.346 C 
ATOM     22  C   UNL     1     -35.835  22.898   5.194  0.00  0.00    +0.319 C 
ATOM     23  C   UNL     1     -35.475  25.337   5.690  0.00  0.00    +0.014 C 
ENDROOT
BRANCH  12  24
ATOM     24  C   UNL     1     -39.578  26.304  -0.713  0.00  0.00    +0.000 C 
ATOM     25  C   UNL     1     -39.169  26.688  -2.145  0.00  0.00    +0.000 C 
ATOM     26  C   UNL     1     -40.715  25.270  -0.771  0.00  0.00    +0.000 C 
ATOM     27  C   UNL     1     -40.075  27.560   0.024  0.00  0.00    +0.000 C 
ENDBRANCH  12  24
BRANCH  13  28
ATOM     28  O   UNL     1     -34.197  24.598   3.318  0.00  0.00    -0.380 OA
ATOM     29  H   UNL     1     -34.048  25.512   3.606  0.00  0.00    +0.211 HD
ENDBRANCH  13  28
BRANCH  14  30
ATOM     30  O   UNL     1     -37.348  21.665   1.494  0.00  0.00    -0.380 OA
ATOM     31  H   UNL     1     -38.210  21.698   1.049  0.00  0.00    +0.210 HD
ENDBRANCH  14  30
BRANCH  18  32
ATOM     32  O   UNL     1     -40.159  23.266   2.362  0.00  0.00    -0.374 OA
ATOM     33  H   UNL     1     -40.126  23.605   3.271  0.00  0.00    +0.211 HD
ENDBRANCH  18  32
TORSDOF 4
ENDMDL
MODEL 8
REMARK VINA RESULT:      -6.0      1.905      4.624
REMARK  Name = 5281047
REMARK  4 active torsions:
REMARK  status: ('A' for Active; 'I' for Inactive)
REMARK    1  A    between atoms: C_12  and  C_24
REMARK    2  A    between atoms: C_13  and  O_28
REMARK    3  A    between atoms: C_14  and  O_30
REMARK    4  A    between atoms: C_18  and  O_32
REMARK                            x       y       z     vdW  Elec       q    Type
REMARK                         _______ _______ _______ _____ _____    ______ ____
ROOT
ATOM      1  O   UNL     1     -36.695  23.072   3.246  0.00  0.00    -0.312 OA
ATOM      2  O   UNL     1     -38.983  24.481   1.130  0.00  0.00    -0.450 OA
ATOM      3  O   UNL     1     -35.187  21.249   2.413  0.00  0.00    -0.423 OA
ATOM      4  O   UNL     1     -35.268  27.348   2.571  0.00  0.00    -0.447 OA
ATOM      5  O   UNL     1     -39.462  23.943   3.300  0.00  0.00    -0.247 OA
ATOM      6  O   UNL     1     -33.685  20.240   0.972  0.00  0.00    -0.247 OA
ATOM      7  O   UNL     1     -34.046  27.543   4.496  0.00  0.00    -0.250 OA
ATOM      8  C   UNL     1     -36.596  24.254   1.136  0.00  0.00    +0.109 C 
ATOM      9  C   UNL     1     -36.061  22.826   0.992  0.00  0.00    +0.108 C 
ATOM     10  C   UNL     1     -37.157  24.265   2.590  0.00  0.00    +0.216 C 
ATOM     11  C   UNL     1     -37.847  24.359   0.259  0.00  0.00    +0.174 C 
ATOM     12  C   UNL     1     -37.329  22.024   0.517  0.00  0.00    +0.013 C 
ATOM     13  C   UNL     1     -36.717  25.608   3.228  0.00  0.00    +0.170 C 
ATOM     14  C   UNL     1     -35.626  25.437   1.083  0.00  0.00    +0.159 C 
ATOM     15  C   UNL     1     -35.631  22.591   2.423  0.00  0.00    +0.294 C 
ATOM     16  C   UNL     1     -36.246  26.445   2.047  0.00  0.00    +0.223 C 
ATOM     17  C   UNL     1     -37.955  23.021  -0.467  0.00  0.00    +0.044 C 
ATOM     18  C   UNL     1     -34.790  22.334   0.318  0.00  0.00    +0.216 C 
ATOM     19  C   UNL     1     -38.653  24.191   2.418  0.00  0.00    +0.344 C 
ATOM     20  C   UNL     1     -35.501  25.617   4.156  0.00  0.00    +0.130 C 
ATOM     21  C   UNL     1     -34.461  21.146   1.231  0.00  0.00    +0.346 C 
ATOM     22  C   UNL     1     -34.856  26.939   3.809  0.00  0.00    +0.319 C 
ATOM     23  C   UNL     1     -35.812  25.504   5.640  0.00  0.00    +0.014 C 
ENDROOT
BRANCH  12  24
ATOM     24  C   UNL     1     -37.183  20.650  -0.132  0.00  0.00    +0.000 C 
ATOM     25  C   UNL     1     -38.505  20.253  -0.813  0.00  0.00    +0.000 C 
ATOM     26  C   UNL     1     -36.064  20.688  -1.187  0.00  0.00    +0.000 C 
ATOM     27  C   UNL     1     -36.833  19.603   0.939  0.00  0.00    +0.000 C 
ENDBRANCH  12  24
BRANCH  13  28
ATOM     28  O   UNL     1     -37.802  26.298   3.846  0.00  0.00    -0.380 OA
ATOM     29  H   UNL     1     -37.930  25.959   4.746  0.00  0.00    +0.211 HD
ENDBRANCH  13  28
BRANCH  14  30
ATOM     30  O   UNL     1     -35.504  25.992  -0.214  0.00  0.00    -0.380 OA
ATOM     31  H   UNL     1     -36.260  26.574  -0.389  0.00  0.00    +0.210 HD
ENDBRANCH  14  30
BRANCH  18  32
ATOM     32  O   UNL     1     -33.704  23.230   0.378  0.00  0.00    -0.374 OA
ATOM     33  H   UNL     1     -33.512  23.444   1.305  0.00  0.00    +0.211 HD
ENDBRANCH  18  32
TORSDOF 4
ENDMDL
MODEL 9
REMARK VINA RESULT:      -6.0      2.651      5.187
REMARK  Name = 5281047
REMARK  4 active torsions:
REMARK  status: ('A' for Active; 'I' for Inactive)
REMARK    1  A    between atoms: C_12  and  C_24
REMARK    2  A    between atoms: C_13  and  O_28
REMARK    3  A    between atoms: C_14  and  O_30
REMARK    4  A    between atoms: C_18  and  O_32
REMARK                            x       y       z     vdW  Elec       q    Type
REMARK                         _______ _______ _______ _____ _____    ______ ____
ROOT
ATOM      1  O   UNL     1     -33.633  25.857   0.990  0.00  0.00    -0.312 OA
ATOM      2  O   UNL     1     -32.195  26.896   3.915  0.00  0.00    -0.450 OA
ATOM      3  O   UNL     1     -35.853  24.691   1.041  0.00  0.00    -0.423 OA
ATOM      4  O   UNL     1     -33.740  30.412   0.858  0.00  0.00    -0.447 OA
ATOM      5  O   UNL     1     -31.011  25.898   2.232  0.00  0.00    -0.247 OA
ATOM      6  O   UNL     1     -38.073  24.393   1.619  0.00  0.00    -0.247 OA
ATOM      7  O   UNL     1     -33.850  30.624  -1.419  0.00  0.00    -0.250 OA
ATOM      8  C   UNL     1     -34.263  27.349   2.790  0.00  0.00    +0.109 C 
ATOM      9  C   UNL     1     -35.237  26.171   2.685  0.00  0.00    +0.108 C 
ATOM     10  C   UNL     1     -33.149  26.964   1.771  0.00  0.00    +0.216 C 
ATOM     11  C   UNL     1     -33.569  27.241   4.150  0.00  0.00    +0.174 C 
ATOM     12  C   UNL     1     -34.646  25.135   3.711  0.00  0.00    +0.013 C 
ATOM     13  C   UNL     1     -32.801  28.253   0.982  0.00  0.00    +0.170 C 
ATOM     14  C   UNL     1     -34.715  28.747   2.365  0.00  0.00    +0.159 C 
ATOM     15  C   UNL     1     -35.042  25.835   1.223  0.00  0.00    +0.294 C 
ATOM     16  C   UNL     1     -33.444  29.370   1.792  0.00  0.00    +0.223 C 
ATOM     17  C   UNL     1     -34.232  26.064   4.860  0.00  0.00    +0.044 C 
ATOM     18  C   UNL     1     -36.758  26.172   2.688  0.00  0.00    +0.216 C 
ATOM     19  C   UNL     1     -31.996  26.503   2.627  0.00  0.00    +0.344 C 
ATOM     20  C   UNL     1     -33.406  28.450  -0.408  0.00  0.00    +0.130 C 
ATOM     21  C   UNL     1     -37.015  24.991   1.744  0.00  0.00    +0.346 C 
ATOM     22  C   UNL     1     -33.671  29.938  -0.424  0.00  0.00    +0.319 C 
ATOM     23  C   UNL     1     -32.527  28.014  -1.570  0.00  0.00    +0.014 C 
ENDROOT
BRANCH  12  24
ATOM     24  C   UNL     1     -35.499  23.982   4.234  0.00  0.00    +0.000 C 
ATOM     25  C   UNL     1     -34.908  23.453   5.552  0.00  0.00    +0.000 C 
ATOM     26  C   UNL     1     -36.936  24.471   4.485  0.00  0.00    +0.000 C 
ATOM     27  C   UNL     1     -35.525  22.844   3.199  0.00  0.00    +0.000 C 
ENDBRANCH  12  24
BRANCH  13  28
ATOM     28  O   UNL     1     -31.397  28.501   0.938  0.00  0.00    -0.380 OA
ATOM     29  H   UNL     1     -31.081  28.731   1.825  0.00  0.00    +0.211 HD
ENDBRANCH  13  28
BRANCH  14  30
ATOM     30  O   UNL     1     -35.210  29.519   3.444  0.00  0.00    -0.380 OA
ATOM     31  H   UNL     1     -36.137  29.286   3.610  0.00  0.00    +0.210 HD
ENDBRANCH  14  30
BRANCH  18  32
ATOM     32  O   UNL     1     -37.350  27.314   2.113  0.00  0.00    -0.374 OA
ATOM     33  H   UNL     1     -37.145  28.092   2.655  0.00  0.00    +0.211 HD
ENDBRANCH  18  32
TORSDOF 4
ENDMDL
