MODEL 1
REMARK VINA RESULT:      -5.6      0.000      0.000
REMARK  Name = 194303
REMARK  6 active torsions:
REMARK  status: ('A' for Active; 'I' for Inactive)
REMARK    1  A    between atoms: N_2  and  N_6
REMARK    2  A    between atoms: C_3  and  C_15
REMARK    3  A    between atoms: C_7  and  C_10
REMARK    4  A    between atoms: C_15  and  P_16
REMARK    5  A    between atoms: P_16  and  O_18
REMARK    6  A    between atoms: P_16  and  O_20
REMARK                            x       y       z     vdW  Elec       q    Type
REMARK                         _______ _______ _______ _____ _____    ______ ____
ROOT
ATOM      1  O   UNL     1     -31.123  27.460   3.610  0.00  0.00    -0.273 OA
ATOM      2  N   UNL     1     -32.707  28.367   5.045  0.00  0.00    -0.233 N 
ATOM      3  C   UNL     1     -31.468  28.297   4.440  0.00  0.00    +0.250 C 
ATOM      4  H   UNL     1     -32.903  29.074   5.703  0.00  0.00    +0.173 HD
ENDROOT
BRANCH   2   6
ATOM      5  O   UNL     1     -33.285  26.193   6.634  0.00  0.00    -0.269 OA
ATOM      6  N   UNL     1     -33.663  27.437   4.718  0.00  0.00    -0.230 N 
ATOM      7  C   UNL     1     -33.884  26.380   5.578  0.00  0.00    +0.261 C 
ATOM      8  H   UNL     1     -34.181  27.524   3.885  0.00  0.00    +0.173 HD
BRANCH   7  10
ATOM      9  N   UNL     1     -36.842  23.590   4.340  0.00  0.00    -0.242 NA
ATOM     10  C   UNL     1     -34.919  25.404   5.146  0.00  0.00    +0.058 C 
ATOM     11  C   UNL     1     -36.092  25.874   4.605  0.00  0.00    +0.025 C 
ATOM     12  C   UNL     1     -34.673  24.061   5.298  0.00  0.00    +0.025 C 
ATOM     13  C   UNL     1     -37.024  24.925   4.217  0.00  0.00    +0.099 C 
ATOM     14  C   UNL     1     -35.668  23.192   4.879  0.00  0.00    +0.099 C 
ENDBRANCH   7  10
ENDBRANCH   2   6
BRANCH   3  15
ATOM     15  C   UNL     1     -30.548  29.393   4.914  0.00  0.00    +0.202 C 
BRANCH  15  16
ATOM     16  P   UNL     1     -29.906  29.142   6.580  0.00  0.00    +0.346 P 
ATOM     17  O   UNL     1     -28.636  29.870   6.852  0.00  0.00    -0.258 OA
BRANCH  16  18
ATOM     18  O   UNL     1     -29.840  27.536   6.691  0.00  0.00    -0.323 OA
ATOM     19  H   UNL     1     -30.624  27.150   6.271  0.00  0.00    +0.220 HD
ENDBRANCH  16  18
BRANCH  16  20
ATOM     20  O   UNL     1     -31.164  29.541   7.504  0.00  0.00    -0.323 OA
ATOM     21  H   UNL     1     -30.891  29.549   8.435  0.00  0.00    +0.220 HD
ENDBRANCH  16  20
ENDBRANCH  15  16
ENDBRANCH   3  15
TORSDOF 6
ENDMDL
MODEL 2
REMARK VINA RESULT:      -5.3      7.494      9.850
REMARK  Name = 194303
REMARK  6 active torsions:
REMARK  status: ('A' for Active; 'I' for Inactive)
REMARK    1  A    between atoms: N_2  and  N_6
REMARK    2  A    between atoms: C_3  and  C_15
REMARK    3  A    between atoms: C_7  and  C_10
REMARK    4  A    between atoms: C_15  and  P_16
REMARK    5  A    between atoms: P_16  and  O_18
REMARK    6  A    between atoms: P_16  and  O_20
REMARK                            x       y       z     vdW  Elec       q    Type
REMARK                         _______ _______ _______ _____ _____    ______ ____
ROOT
ATOM      1  O   UNL     1     -36.460  20.440  -0.464  0.00  0.00    -0.273 OA
ATOM      2  N   UNL     1     -36.816  19.135   1.424  0.00  0.00    -0.233 N 
ATOM      3  C   UNL     1     -36.630  19.348   0.073  0.00  0.00    +0.250 C 
ATOM      4  H   UNL     1     -36.945  18.223   1.774  0.00  0.00    +0.173 HD
ENDROOT
BRANCH   2   6
ATOM      5  O   UNL     1     -34.553  20.034   2.711  0.00  0.00    -0.269 OA
ATOM      6  N   UNL     1     -36.820  20.214   2.275  0.00  0.00    -0.230 N 
ATOM      7  C   UNL     1     -35.635  20.592   2.874  0.00  0.00    +0.261 C 
ATOM      8  H   UNL     1     -37.654  20.708   2.453  0.00  0.00    +0.173 HD
BRANCH   7  10
ATOM      9  N   UNL     1     -35.890  23.915   5.512  0.00  0.00    -0.242 NA
ATOM     10  C   UNL     1     -35.723  21.755   3.796  0.00  0.00    +0.058 C 
ATOM     11  C   UNL     1     -36.246  22.937   3.329  0.00  0.00    +0.025 C 
ATOM     12  C   UNL     1     -35.282  21.613   5.090  0.00  0.00    +0.025 C 
ATOM     13  C   UNL     1     -36.308  23.990   4.228  0.00  0.00    +0.099 C 
ATOM     14  C   UNL     1     -35.387  22.725   5.911  0.00  0.00    +0.099 C 
ENDBRANCH   7  10
ENDBRANCH   2   6
BRANCH   3  15
ATOM     15  C   UNL     1     -36.652  18.058  -0.707  0.00  0.00    +0.202 C 
BRANCH  15  16
ATOM     16  P   UNL     1     -35.176  17.045  -0.492  0.00  0.00    +0.346 P 
ATOM     17  O   UNL     1     -34.441  16.777  -1.758  0.00  0.00    -0.258 OA
BRANCH  16  18
ATOM     18  O   UNL     1     -35.748  15.754   0.283  0.00  0.00    -0.323 OA
ATOM     19  H   UNL     1     -35.438  15.764   1.201  0.00  0.00    +0.220 HD
ENDBRANCH  16  18
BRANCH  16  20
ATOM     20  O   UNL     1     -34.363  17.848   0.643  0.00  0.00    -0.323 OA
ATOM     21  H   UNL     1     -33.413  17.803   0.453  0.00  0.00    +0.220 HD
ENDBRANCH  16  20
ENDBRANCH  15  16
ENDBRANCH   3  15
TORSDOF 6
ENDMDL
MODEL 3
REMARK VINA RESULT:      -5.2      5.120      7.328
REMARK  Name = 194303
REMARK  6 active torsions:
REMARK  status: ('A' for Active; 'I' for Inactive)
REMARK    1  A    between atoms: N_2  and  N_6
REMARK    2  A    between atoms: C_3  and  C_15
REMARK    3  A    between atoms: C_7  and  C_10
REMARK    4  A    between atoms: C_15  and  P_16
REMARK    5  A    between atoms: P_16  and  O_18
REMARK    6  A    between atoms: P_16  and  O_20
REMARK                            x       y       z     vdW  Elec       q    Type
REMARK                         _______ _______ _______ _____ _____    ______ ____
ROOT
ATOM      1  O   UNL     1     -34.663  21.622   5.460  0.00  0.00    -0.273 OA
ATOM      2  N   UNL     1     -36.356  22.311   4.029  0.00  0.00    -0.233 N 
ATOM      3  C   UNL     1     -35.520  22.433   5.121  0.00  0.00    +0.250 C 
ATOM      4  H   UNL     1     -37.019  23.012   3.826  0.00  0.00    +0.173 HD
ENDROOT
BRANCH   2   6
ATOM      5  O   UNL     1     -34.783  22.237   1.770  0.00  0.00    -0.269 OA
ATOM      6  N   UNL     1     -36.251  21.200   3.229  0.00  0.00    -0.230 N 
ATOM      7  C   UNL     1     -35.436  21.256   2.116  0.00  0.00    +0.261 C 
ATOM      8  H   UNL     1     -36.748  20.377   3.447  0.00  0.00    +0.173 HD
BRANCH   7  10
ATOM      9  N   UNL     1     -35.304  17.724  -0.245  0.00  0.00    -0.242 NA
ATOM     10  C   UNL     1     -35.390  20.021   1.289  0.00  0.00    +0.058 C 
ATOM     11  C   UNL     1     -34.191  19.365   1.140  0.00  0.00    +0.025 C 
ATOM     12  C   UNL     1     -36.546  19.571   0.700  0.00  0.00    +0.025 C 
ATOM     13  C   UNL     1     -34.201  18.218   0.361  0.00  0.00    +0.099 C 
ATOM     14  C   UNL     1     -36.452  18.415  -0.058  0.00  0.00    +0.099 C 
ENDBRANCH   7  10
ENDBRANCH   2   6
BRANCH   3  15
ATOM     15  C   UNL     1     -35.771  23.710   5.882  0.00  0.00    +0.202 C 
BRANCH  15  16
ATOM     16  P   UNL     1     -36.088  25.140   4.829  0.00  0.00    +0.346 P 
ATOM     17  O   UNL     1     -35.797  26.445   5.485  0.00  0.00    -0.258 OA
BRANCH  16  18
ATOM     18  O   UNL     1     -37.613  24.904   4.367  0.00  0.00    -0.323 OA
ATOM     19  H   UNL     1     -37.633  24.277   3.628  0.00  0.00    +0.220 HD
ENDBRANCH  16  18
BRANCH  16  20
ATOM     20  O   UNL     1     -35.228  24.801   3.510  0.00  0.00    -0.323 OA
ATOM     21  H   UNL     1     -35.530  23.960   3.134  0.00  0.00    +0.220 HD
ENDBRANCH  16  20
ENDBRANCH  15  16
ENDBRANCH   3  15
TORSDOF 6
ENDMDL
MODEL 4
REMARK VINA RESULT:      -5.1      6.168      8.360
REMARK  Name = 194303
REMARK  6 active torsions:
REMARK  status: ('A' for Active; 'I' for Inactive)
REMARK    1  A    between atoms: N_2  and  N_6
REMARK    2  A    between atoms: C_3  and  C_15
REMARK    3  A    between atoms: C_7  and  C_10
REMARK    4  A    between atoms: C_15  and  P_16
REMARK    5  A    between atoms: P_16  and  O_18
REMARK    6  A    between atoms: P_16  and  O_20
REMARK                            x       y       z     vdW  Elec       q    Type
REMARK                         _______ _______ _______ _____ _____    ______ ____
ROOT
ATOM      1  O   UNL     1     -39.242  26.911   1.349  0.00  0.00    -0.273 OA
ATOM      2  N   UNL     1     -39.387  25.933   3.450  0.00  0.00    -0.233 N 
ATOM      3  C   UNL     1     -39.886  26.352   2.232  0.00  0.00    +0.250 C 
ATOM      4  H   UNL     1     -39.974  25.490   4.105  0.00  0.00    +0.173 HD
ENDROOT
BRANCH   2   6
ATOM      5  O   UNL     1     -37.617  23.881   3.938  0.00  0.00    -0.269 OA
ATOM      6  N   UNL     1     -38.060  26.144   3.735  0.00  0.00    -0.230 N 
ATOM      7  C   UNL     1     -37.247  25.051   3.965  0.00  0.00    +0.261 C 
ATOM      8  H   UNL     1     -37.695  27.058   3.774  0.00  0.00    +0.173 HD
BRANCH   7  10
ATOM      9  N   UNL     1     -33.193  25.931   4.885  0.00  0.00    -0.242 NA
ATOM     10  C   UNL     1     -35.830  25.360   4.286  0.00  0.00    +0.058 C 
ATOM     11  C   UNL     1     -35.512  25.790   5.553  0.00  0.00    +0.025 C 
ATOM     12  C   UNL     1     -34.876  25.205   3.309  0.00  0.00    +0.025 C 
ATOM     13  C   UNL     1     -34.177  26.063   5.802  0.00  0.00    +0.099 C 
ATOM     14  C   UNL     1     -33.569  25.504   3.658  0.00  0.00    +0.099 C 
ENDBRANCH   7  10
ENDBRANCH   2   6
BRANCH   3  15
ATOM     15  C   UNL     1     -41.354  26.040   2.089  0.00  0.00    +0.202 C 
BRANCH  15  16
ATOM     16  P   UNL     1     -42.435  27.172   2.985  0.00  0.00    +0.346 P 
ATOM     17  O   UNL     1     -43.796  26.626   3.243  0.00  0.00    -0.258 OA
BRANCH  16  18
ATOM     18  O   UNL     1     -42.366  28.506   2.085  0.00  0.00    -0.323 OA
ATOM     19  H   UNL     1     -41.989  28.293   1.218  0.00  0.00    +0.220 HD
ENDBRANCH  16  18
BRANCH  16  20
ATOM     20  O   UNL     1     -41.559  27.537   4.286  0.00  0.00    -0.323 OA
ATOM     21  H   UNL     1     -40.876  28.183   4.045  0.00  0.00    +0.220 HD
ENDBRANCH  16  20
ENDBRANCH  15  16
ENDBRANCH   3  15
TORSDOF 6
ENDMDL
MODEL 5
REMARK VINA RESULT:      -5.1      3.197      6.799
REMARK  Name = 194303
REMARK  6 active torsions:
REMARK  status: ('A' for Active; 'I' for Inactive)
REMARK    1  A    between atoms: N_2  and  N_6
REMARK    2  A    between atoms: C_3  and  C_15
REMARK    3  A    between atoms: C_7  and  C_10
REMARK    4  A    between atoms: C_15  and  P_16
REMARK    5  A    between atoms: P_16  and  O_18
REMARK    6  A    between atoms: P_16  and  O_20
REMARK                            x       y       z     vdW  Elec       q    Type
REMARK                         _______ _______ _______ _____ _____    ______ ____
ROOT
ATOM      1  O   UNL     1     -32.871  25.553   3.406  0.00  0.00    -0.273 OA
ATOM      2  N   UNL     1     -34.005  26.976   4.849  0.00  0.00    -0.233 N 
ATOM      3  C   UNL     1     -33.817  25.800   4.149  0.00  0.00    +0.250 C 
ATOM      4  H   UNL     1     -34.796  27.093   5.426  0.00  0.00    +0.173 HD
ENDROOT
BRANCH   2   6
ATOM      5  O   UNL     1     -31.983  27.366   6.677  0.00  0.00    -0.269 OA
ATOM      6  N   UNL     1     -33.075  27.979   4.730  0.00  0.00    -0.230 N 
ATOM      7  C   UNL     1     -32.096  28.097   5.696  0.00  0.00    +0.261 C 
ATOM      8  H   UNL     1     -33.106  28.603   3.968  0.00  0.00    +0.173 HD
BRANCH   7  10
ATOM      9  N   UNL     1     -29.358  31.302   5.158  0.00  0.00    -0.242 NA
ATOM     10  C   UNL     1     -31.138  29.218   5.509  0.00  0.00    +0.058 C 
ATOM     11  C   UNL     1     -29.802  28.998   5.741  0.00  0.00    +0.025 C 
ATOM     12  C   UNL     1     -31.617  30.442   5.108  0.00  0.00    +0.025 C 
ATOM     13  C   UNL     1     -28.950  30.075   5.551  0.00  0.00    +0.099 C 
ATOM     14  C   UNL     1     -30.684  31.454   4.945  0.00  0.00    +0.099 C 
ENDBRANCH   7  10
ENDBRANCH   2   6
BRANCH   3  15
ATOM     15  C   UNL     1     -34.929  24.814   4.398  0.00  0.00    +0.202 C 
BRANCH  15  16
ATOM     16  P   UNL     1     -36.581  25.530   4.294  0.00  0.00    +0.346 P 
ATOM     17  O   UNL     1     -37.666  24.520   4.145  0.00  0.00    -0.258 OA
BRANCH  16  18
ATOM     18  O   UNL     1     -36.429  26.588   3.090  0.00  0.00    -0.323 OA
ATOM     19  H   UNL     1     -36.900  27.405   3.316  0.00  0.00    +0.220 HD
ENDBRANCH  16  18
BRANCH  16  20
ATOM     20  O   UNL     1     -36.647  26.451   5.613  0.00  0.00    -0.323 OA
ATOM     21  H   UNL     1     -35.801  26.402   6.085  0.00  0.00    +0.220 HD
ENDBRANCH  16  20
ENDBRANCH  15  16
ENDBRANCH   3  15
TORSDOF 6
ENDMDL
MODEL 6
REMARK VINA RESULT:      -5.1      7.842     10.311
REMARK  Name = 194303
REMARK  6 active torsions:
REMARK  status: ('A' for Active; 'I' for Inactive)
REMARK    1  A    between atoms: N_2  and  N_6
REMARK    2  A    between atoms: C_3  and  C_15
REMARK    3  A    between atoms: C_7  and  C_10
REMARK    4  A    between atoms: C_15  and  P_16
REMARK    5  A    between atoms: P_16  and  O_18
REMARK    6  A    between atoms: P_16  and  O_20
REMARK                            x       y       z     vdW  Elec       q    Type
REMARK                         _______ _______ _______ _____ _____    ______ ____
ROOT
ATOM      1  O   UNL     1     -35.722  20.632  -0.447  0.00  0.00    -0.273 OA
ATOM      2  N   UNL     1     -36.800  19.380   1.185  0.00  0.00    -0.233 N 
ATOM      3  C   UNL     1     -36.238  19.587  -0.059  0.00  0.00    +0.250 C 
ATOM      4  H   UNL     1     -37.194  18.507   1.417  0.00  0.00    +0.173 HD
ENDROOT
BRANCH   2   6
ATOM      5  O   UNL     1     -34.644  19.957   2.798  0.00  0.00    -0.269 OA
ATOM      6  N   UNL     1     -36.803  20.409   2.095  0.00  0.00    -0.230 N 
ATOM      7  C   UNL     1     -35.673  20.623   2.861  0.00  0.00    +0.261 C 
ATOM      8  H   UNL     1     -37.596  20.984   2.199  0.00  0.00    +0.173 HD
BRANCH   7  10
ATOM      9  N   UNL     1     -35.918  23.821   5.649  0.00  0.00    -0.242 NA
ATOM     10  C   UNL     1     -35.760  21.741   3.836  0.00  0.00    +0.058 C 
ATOM     11  C   UNL     1     -35.225  21.573   5.091  0.00  0.00    +0.025 C 
ATOM     12  C   UNL     1     -36.370  22.912   3.455  0.00  0.00    +0.025 C 
ATOM     13  C   UNL     1     -35.329  22.645   5.963  0.00  0.00    +0.099 C 
ATOM     14  C   UNL     1     -36.424  23.925   4.400  0.00  0.00    +0.099 C 
ENDBRANCH   7  10
ENDBRANCH   2   6
BRANCH   3  15
ATOM     15  C   UNL     1     -36.320  18.356  -0.924  0.00  0.00    +0.202 C 
BRANCH  15  16
ATOM     16  P   UNL     1     -37.867  17.444  -0.755  0.00  0.00    +0.346 P 
ATOM     17  O   UNL     1     -39.075  18.312  -0.711  0.00  0.00    -0.258 OA
BRANCH  16  18
ATOM     18  O   UNL     1     -37.598  16.537   0.549  0.00  0.00    -0.323 OA
ATOM     19  H   UNL     1     -37.986  16.966   1.326  0.00  0.00    +0.220 HD
ENDBRANCH  16  18
BRANCH  16  20
ATOM     20  O   UNL     1     -37.791  16.396  -1.977  0.00  0.00    -0.323 OA
ATOM     21  H   UNL     1     -36.862  16.226  -2.199  0.00  0.00    +0.220 HD
ENDBRANCH  16  20
ENDBRANCH  15  16
ENDBRANCH   3  15
TORSDOF 6
ENDMDL
MODEL 7
REMARK VINA RESULT:      -5.0      4.742      6.851
REMARK  Name = 194303
REMARK  6 active torsions:
REMARK  status: ('A' for Active; 'I' for Inactive)
REMARK    1  A    between atoms: N_2  and  N_6
REMARK    2  A    between atoms: C_3  and  C_15
REMARK    3  A    between atoms: C_7  and  C_10
REMARK    4  A    between atoms: C_15  and  P_16
REMARK    5  A    between atoms: P_16  and  O_18
REMARK    6  A    between atoms: P_16  and  O_20
REMARK                            x       y       z     vdW  Elec       q    Type
REMARK                         _______ _______ _______ _____ _____    ______ ____
ROOT
ATOM      1  O   UNL     1     -37.243  23.117   2.828  0.00  0.00    -0.273 OA
ATOM      2  N   UNL     1     -37.696  24.891   4.256  0.00  0.00    -0.233 N 
ATOM      3  C   UNL     1     -36.888  23.937   3.671  0.00  0.00    +0.250 C 
ATOM      4  H   UNL     1     -37.329  25.513   4.927  0.00  0.00    +0.173 HD
ENDROOT
BRANCH   2   6
ATOM      5  O   UNL     1     -38.635  26.674   2.379  0.00  0.00    -0.269 OA
ATOM      6  N   UNL     1     -39.017  24.962   3.890  0.00  0.00    -0.230 N 
ATOM      7  C   UNL     1     -39.395  25.888   2.938  0.00  0.00    +0.261 C 
ATOM      8  H   UNL     1     -39.683  24.362   4.299  0.00  0.00    +0.173 HD
BRANCH   7  10
ATOM      9  N   UNL     1     -43.539  25.971   1.999  0.00  0.00    -0.242 NA
ATOM     10  C   UNL     1     -40.844  25.918   2.609  0.00  0.00    +0.058 C 
ATOM     11  C   UNL     1     -41.301  25.179   1.544  0.00  0.00    +0.025 C 
ATOM     12  C   UNL     1     -41.687  26.682   3.380  0.00  0.00    +0.025 C 
ATOM     13  C   UNL     1     -42.660  25.239   1.279  0.00  0.00    +0.099 C 
ATOM     14  C   UNL     1     -43.029  26.675   3.034  0.00  0.00    +0.099 C 
ENDBRANCH   7  10
ENDBRANCH   2   6
BRANCH   3  15
ATOM     15  C   UNL     1     -35.473  24.004   4.188  0.00  0.00    +0.202 C 
BRANCH  15  16
ATOM     16  P   UNL     1     -34.853  25.683   4.408  0.00  0.00    +0.346 P 
ATOM     17  O   UNL     1     -35.187  26.279   5.731  0.00  0.00    -0.258 OA
BRANCH  16  18
ATOM     18  O   UNL     1     -35.443  26.447   3.118  0.00  0.00    -0.323 OA
ATOM     19  H   UNL     1     -34.713  26.824   2.604  0.00  0.00    +0.220 HD
ENDBRANCH  16  18
BRANCH  16  20
ATOM     20  O   UNL     1     -33.285  25.524   4.079  0.00  0.00    -0.323 OA
ATOM     21  H   UNL     1     -33.142  25.634   3.125  0.00  0.00    +0.220 HD
ENDBRANCH  16  20
ENDBRANCH  15  16
ENDBRANCH   3  15
TORSDOF 6
ENDMDL
MODEL 8
REMARK VINA RESULT:      -5.0      2.434      3.613
REMARK  Name = 194303
REMARK  6 active torsions:
REMARK  status: ('A' for Active; 'I' for Inactive)
REMARK    1  A    between atoms: N_2  and  N_6
REMARK    2  A    between atoms: C_3  and  C_15
REMARK    3  A    between atoms: C_7  and  C_10
REMARK    4  A    between atoms: C_15  and  P_16
REMARK    5  A    between atoms: P_16  and  O_18
REMARK    6  A    between atoms: P_16  and  O_20
REMARK                            x       y       z     vdW  Elec       q    Type
REMARK                         _______ _______ _______ _____ _____    ______ ____
ROOT
ATOM      1  O   UNL     1     -34.308  27.044   4.430  0.00  0.00    -0.273 OA
ATOM      2  N   UNL     1     -34.149  25.010   5.539  0.00  0.00    -0.233 N 
ATOM      3  C   UNL     1     -33.913  26.360   5.370  0.00  0.00    +0.250 C 
ATOM      4  H   UNL     1     -33.794  24.535   6.326  0.00  0.00    +0.173 HD
ENDROOT
BRANCH   2   6
ATOM      5  O   UNL     1     -34.772  22.336   5.750  0.00  0.00    -0.269 OA
ATOM      6  N   UNL     1     -34.885  24.338   4.594  0.00  0.00    -0.230 N 
ATOM      7  C   UNL     1     -35.149  22.997   4.786  0.00  0.00    +0.261 C 
ATOM      8  H   UNL     1     -35.219  24.807   3.794  0.00  0.00    +0.173 HD
BRANCH   7  10
ATOM      9  N   UNL     1     -37.394  21.102   1.714  0.00  0.00    -0.242 NA
ATOM     10  C   UNL     1     -35.933  22.335   3.711  0.00  0.00    +0.058 C 
ATOM     11  C   UNL     1     -35.489  21.138   3.203  0.00  0.00    +0.025 C 
ATOM     12  C   UNL     1     -37.082  22.937   3.258  0.00  0.00    +0.025 C 
ATOM     13  C   UNL     1     -36.256  20.560   2.203  0.00  0.00    +0.099 C 
ATOM     14  C   UNL     1     -37.779  22.280   2.256  0.00  0.00    +0.099 C 
ENDBRANCH   7  10
ENDBRANCH   2   6
BRANCH   3  15
ATOM     15  C   UNL     1     -33.094  26.933   6.498  0.00  0.00    +0.202 C 
BRANCH  15  16
ATOM     16  P   UNL     1     -31.848  28.124   5.968  0.00  0.00    +0.346 P 
ATOM     17  O   UNL     1     -32.260  29.544   6.148  0.00  0.00    -0.258 OA
BRANCH  16  18
ATOM     18  O   UNL     1     -31.542  27.662   4.456  0.00  0.00    -0.323 OA
ATOM     19  H   UNL     1     -32.010  26.833   4.271  0.00  0.00    +0.220 HD
ENDBRANCH  16  18
BRANCH  16  20
ATOM     20  O   UNL     1     -30.544  27.655   6.787  0.00  0.00    -0.323 OA
ATOM     21  H   UNL     1     -30.794  26.976   7.434  0.00  0.00    +0.220 HD
ENDBRANCH  16  20
ENDBRANCH  15  16
ENDBRANCH   3  15
TORSDOF 6
ENDMDL
MODEL 9
REMARK VINA RESULT:      -5.0      5.166      7.055
REMARK  Name = 194303
REMARK  6 active torsions:
REMARK  status: ('A' for Active; 'I' for Inactive)
REMARK    1  A    between atoms: N_2  and  N_6
REMARK    2  A    between atoms: C_3  and  C_15
REMARK    3  A    between atoms: C_7  and  C_10
REMARK    4  A    between atoms: C_15  and  P_16
REMARK    5  A    between atoms: P_16  and  O_18
REMARK    6  A    between atoms: P_16  and  O_20
REMARK                            x       y       z     vdW  Elec       q    Type
REMARK                         _______ _______ _______ _____ _____    ______ ____
ROOT
ATOM      1  O   UNL     1     -34.267  24.804   1.378  0.00  0.00    -0.273 OA
ATOM      2  N   UNL     1     -35.210  23.288   2.863  0.00  0.00    -0.233 N 
ATOM      3  C   UNL     1     -34.791  24.540   2.457  0.00  0.00    +0.250 C 
ATOM      4  H   UNL     1     -35.623  23.162   3.749  0.00  0.00    +0.173 HD
ENDROOT
BRANCH   2   6
ATOM      5  O   UNL     1     -35.349  20.670   3.705  0.00  0.00    -0.269 OA
ATOM      6  N   UNL     1     -35.044  22.221   2.014  0.00  0.00    -0.230 N 
ATOM      7  C   UNL     1     -35.132  20.942   2.527  0.00  0.00    +0.261 C 
ATOM      8  H   UNL     1     -34.866  22.367   1.056  0.00  0.00    +0.173 HD
BRANCH   7  10
ATOM      9  N   UNL     1     -34.530  17.792  -0.261  0.00  0.00    -0.242 NA
ATOM     10  C   UNL     1     -34.921  19.841   1.551  0.00  0.00    +0.058 C 
ATOM     11  C   UNL     1     -33.710  19.193   1.531  0.00  0.00    +0.025 C 
ATOM     12  C   UNL     1     -35.944  19.502   0.699  0.00  0.00    +0.025 C 
ATOM     13  C   UNL     1     -33.564  18.173   0.604  0.00  0.00    +0.099 C 
ATOM     14  C   UNL     1     -35.699  18.468  -0.190  0.00  0.00    +0.099 C 
ENDBRANCH   7  10
ENDBRANCH   2   6
BRANCH   3  15
ATOM     15  C   UNL     1     -35.051  25.588   3.508  0.00  0.00    +0.202 C 
BRANCH  15  16
ATOM     16  P   UNL     1     -36.341  25.139   4.686  0.00  0.00    +0.346 P 
ATOM     17  O   UNL     1     -37.565  24.575   4.052  0.00  0.00    -0.258 OA
BRANCH  16  18
ATOM     18  O   UNL     1     -36.541  26.502   5.523  0.00  0.00    -0.323 OA
ATOM     19  H   UNL     1     -36.328  26.342   6.455  0.00  0.00    +0.220 HD
ENDBRANCH  16  18
BRANCH  16  20
ATOM     20  O   UNL     1     -35.561  24.169   5.708  0.00  0.00    -0.323 OA
ATOM     21  H   UNL     1     -34.638  24.075   5.423  0.00  0.00    +0.220 HD
ENDBRANCH  16  20
ENDBRANCH  15  16
ENDBRANCH   3  15
TORSDOF 6
ENDMDL
