MODEL 1
REMARK VINA RESULT:      -7.3      0.000      0.000
REMARK  Name = 21602974
REMARK  4 active torsions:
REMARK  status: ('A' for Active; 'I' for Inactive)
REMARK    1  A    between atoms: C_5  and  C_37
REMARK    2  A    between atoms: C_9  and  O_32
REMARK    3  A    between atoms: C_14  and  O_34
REMARK    4  A    between atoms: C_18  and  C_27
REMARK                            x       y       z     vdW  Elec       q    Type
REMARK                         _______ _______ _______ _____ _____    ______ ____
ROOT
ATOM      1  O   UNL     1     -35.307  20.374  -1.009  0.00  0.00    -0.317 OA
ATOM      2  O   UNL     1     -37.283  19.650   0.109  0.00  0.00    -0.315 OA
ATOM      3  O   UNL     1     -37.439  20.621  -2.048  0.00  0.00    -0.315 OA
ATOM      4  O   UNL     1     -37.438  24.690   4.500  0.00  0.00    -0.293 OA
ATOM      5  C   UNL     1     -36.025  21.530   1.019  0.00  0.00    +0.109 C 
ATOM      6  C   UNL     1     -35.976  22.901   1.799  0.00  0.00    +0.048 C 
ATOM      7  C   UNL     1     -34.516  23.452   1.866  0.00  0.00    +0.028 C 
ATOM      8  C   UNL     1     -35.366  21.676  -0.391  0.00  0.00    +0.108 C 
ATOM      9  C   UNL     1     -34.402  24.802   2.628  0.00  0.00    +0.095 C 
ATOM     10  C   UNL     1     -35.062  24.804   4.030  0.00  0.00    +0.080 C 
ATOM     11  C   UNL     1     -37.441  20.925   0.776  0.00  0.00    +0.131 C 
ATOM     12  C   UNL     1     -33.870  23.542   0.465  0.00  0.00    +0.005 C 
ATOM     13  C   UNL     1     -33.944  22.234  -0.313  0.00  0.00    +0.028 C 
ATOM     14  C   UNL     1     -36.586  22.848   3.215  0.00  0.00    +0.168 C 
ATOM     15  C   UNL     1     -36.231  22.560  -1.333  0.00  0.00    +0.058 C 
ATOM     16  C   UNL     1     -37.615  21.933  -1.493  0.00  0.00    +0.125 C 
ATOM     17  C   UNL     1     -35.053  26.007   1.916  0.00  0.00    +0.028 C 
ATOM     18  C   UNL     1     -35.172  26.326   4.362  0.00  0.00    +0.034 C 
ATOM     19  C   UNL     1     -38.311  21.797  -0.137  0.00  0.00    +0.060 C 
ATOM     20  C   UNL     1     -36.464  24.181   3.941  0.00  0.00    +0.179 C 
ATOM     21  C   UNL     1     -35.536  26.965   3.012  0.00  0.00    +0.007 C 
ATOM     22  C   UNL     1     -36.632  19.832  -1.158  0.00  0.00    +0.296 C 
ATOM     23  C   UNL     1     -34.290  24.016   5.100  0.00  0.00    +0.010 C 
ATOM     24  C   UNL     1     -36.483  18.456  -1.788  0.00  0.00    +0.096 C 
ENDROOT
BRANCH  18  27
ATOM     25  O   UNL     1     -32.254  27.221   6.647  0.00  0.00    -0.418 OA
ATOM     26  O   UNL     1     -30.600  28.756   6.375  0.00  0.00    -0.244 OA
ATOM     27  C   UNL     1     -33.939  26.963   4.934  0.00  0.00    +0.016 C 
ATOM     28  C   UNL     1     -33.285  27.999   4.178  0.00  0.00    +0.006 C 
ATOM     29  C   UNL     1     -33.406  26.625   6.113  0.00  0.00    +0.179 C 
ATOM     30  C   UNL     1     -32.184  28.597   4.643  0.00  0.00    +0.082 C 
ATOM     31  C   UNL     1     -31.611  28.208   5.948  0.00  0.00    +0.346 C 
ENDBRANCH  18  27
BRANCH   9  32
ATOM     32  O   UNL     1     -33.003  25.086   2.798  0.00  0.00    -0.386 OA
ATOM     33  H   UNL     1     -32.891  25.742   3.504  0.00  0.00    +0.210 HD
ENDBRANCH   9  32
BRANCH  14  34
ATOM     34  O   UNL     1     -37.973  22.546   3.180  0.00  0.00    -0.377 OA
ATOM     35  H   UNL     1     -38.261  22.459   2.258  0.00  0.00    +0.211 HD
ENDBRANCH  14  34
BRANCH   5  37
ATOM     36  O   UNL     1     -35.555  20.250   3.025  0.00  0.00    -0.288 OA
ATOM     37  C   UNL     1     -35.283  20.495   1.854  0.00  0.00    +0.211 C 
ENDBRANCH   5  37
TORSDOF 4
ENDMDL
MODEL 2
REMARK VINA RESULT:      -6.9      2.370      8.308
REMARK  Name = 21602974
REMARK  4 active torsions:
REMARK  status: ('A' for Active; 'I' for Inactive)
REMARK    1  A    between atoms: C_5  and  C_37
REMARK    2  A    between atoms: C_9  and  O_32
REMARK    3  A    between atoms: C_14  and  O_34
REMARK    4  A    between atoms: C_18  and  C_27
REMARK                            x       y       z     vdW  Elec       q    Type
REMARK                         _______ _______ _______ _____ _____    ______ ____
ROOT
ATOM      1  O   UNL     1     -33.304  25.986   3.238  0.00  0.00    -0.317 OA
ATOM      2  O   UNL     1     -34.704  27.614   4.269  0.00  0.00    -0.315 OA
ATOM      3  O   UNL     1     -33.543  26.041   5.609  0.00  0.00    -0.315 OA
ATOM      4  O   UNL     1     -40.475  24.740   2.497  0.00  0.00    -0.293 OA
ATOM      5  C   UNL     1     -35.718  25.891   2.875  0.00  0.00    +0.109 C 
ATOM      6  C   UNL     1     -36.925  24.936   2.533  0.00  0.00    +0.048 C 
ATOM      7  C   UNL     1     -36.591  24.032   1.303  0.00  0.00    +0.028 C 
ATOM      8  C   UNL     1     -34.403  25.067   3.067  0.00  0.00    +0.108 C 
ATOM      9  C   UNL     1     -37.749  23.070   0.914  0.00  0.00    +0.095 C 
ATOM     10  C   UNL     1     -39.125  23.760   0.738  0.00  0.00    +0.080 C 
ATOM     11  C   UNL     1     -35.871  26.767   4.155  0.00  0.00    +0.131 C 
ATOM     12  C   UNL     1     -35.264  23.265   1.497  0.00  0.00    +0.005 C 
ATOM     13  C   UNL     1     -34.096  24.173   1.864  0.00  0.00    +0.028 C 
ATOM     14  C   UNL     1     -38.266  25.665   2.303  0.00  0.00    +0.168 C 
ATOM     15  C   UNL     1     -34.453  24.211   4.364  0.00  0.00    +0.058 C 
ATOM     16  C   UNL     1     -34.649  25.127   5.572  0.00  0.00    +0.125 C 
ATOM     17  C   UNL     1     -38.030  21.946   1.935  0.00  0.00    +0.028 C 
ATOM     18  C   UNL     1     -40.124  22.561   0.779  0.00  0.00    +0.034 C 
ATOM     19  C   UNL     1     -35.942  25.934   5.440  0.00  0.00    +0.060 C 
ATOM     20  C   UNL     1     -39.384  24.702   1.924  0.00  0.00    +0.179 C 
ATOM     21  C   UNL     1     -39.528  21.629   1.845  0.00  0.00    +0.007 C 
ATOM     22  C   UNL     1     -33.520  26.811   4.397  0.00  0.00    +0.296 C 
ATOM     23  C   UNL     1     -39.257  24.603  -0.540  0.00  0.00    +0.010 C 
ATOM     24  C   UNL     1     -32.338  27.765   4.492  0.00  0.00    +0.096 C 
ENDROOT
BRANCH  18  27
ATOM     25  O   UNL     1     -41.085  21.677  -2.804  0.00  0.00    -0.418 OA
ATOM     26  O   UNL     1     -40.789  19.745  -3.963  0.00  0.00    -0.244 OA
ATOM     27  C   UNL     1     -40.319  21.828  -0.517  0.00  0.00    +0.016 C 
ATOM     28  C   UNL     1     -39.855  20.468  -0.615  0.00  0.00    +0.006 C 
ATOM     29  C   UNL     1     -40.903  22.363  -1.594  0.00  0.00    +0.179 C 
ATOM     30  C   UNL     1     -40.005  19.771  -1.745  0.00  0.00    +0.082 C 
ATOM     31  C   UNL     1     -40.653  20.383  -2.925  0.00  0.00    +0.346 C 
ENDBRANCH  18  27
BRANCH   9  32
ATOM     32  O   UNL     1     -37.399  22.457  -0.339  0.00  0.00    -0.386 OA
ATOM     33  H   UNL     1     -36.442  22.298  -0.364  0.00  0.00    +0.210 HD
ENDBRANCH   9  32
BRANCH  14  34
ATOM     34  O   UNL     1     -38.707  26.337   3.474  0.00  0.00    -0.377 OA
ATOM     35  H   UNL     1     -38.159  27.123   3.620  0.00  0.00    +0.211 HD
ENDBRANCH  14  34
BRANCH   5  37
ATOM     36  O   UNL     1     -36.136  27.966   1.691  0.00  0.00    -0.288 OA
ATOM     37  C   UNL     1     -35.568  26.879   1.726  0.00  0.00    +0.211 C 
ENDBRANCH   5  37
TORSDOF 4
ENDMDL
MODEL 3
REMARK VINA RESULT:      -6.8      2.560      8.076
REMARK  Name = 21602974
REMARK  4 active torsions:
REMARK  status: ('A' for Active; 'I' for Inactive)
REMARK    1  A    between atoms: C_5  and  C_37
REMARK    2  A    between atoms: C_9  and  O_32
REMARK    3  A    between atoms: C_14  and  O_34
REMARK    4  A    between atoms: C_18  and  C_27
REMARK                            x       y       z     vdW  Elec       q    Type
REMARK                         _______ _______ _______ _____ _____    ______ ____
ROOT
ATOM      1  O   UNL     1     -32.274  29.407   0.988  0.00  0.00    -0.317 OA
ATOM      2  O   UNL     1     -32.223  29.993   3.297  0.00  0.00    -0.315 OA
ATOM      3  O   UNL     1     -30.280  29.114   2.262  0.00  0.00    -0.315 OA
ATOM      4  O   UNL     1     -35.822  24.759   5.384  0.00  0.00    -0.293 OA
ATOM      5  C   UNL     1     -33.621  28.131   2.577  0.00  0.00    +0.109 C 
ATOM      6  C   UNL     1     -34.293  26.730   2.853  0.00  0.00    +0.048 C 
ATOM      7  C   UNL     1     -35.095  26.240   1.605  0.00  0.00    +0.028 C 
ATOM      8  C   UNL     1     -32.752  28.077   1.278  0.00  0.00    +0.108 C 
ATOM      9  C   UNL     1     -35.785  24.864   1.819  0.00  0.00    +0.095 C 
ATOM     10  C   UNL     1     -36.645  24.770   3.104  0.00  0.00    +0.080 C 
ATOM     11  C   UNL     1     -32.692  28.684   3.699  0.00  0.00    +0.131 C 
ATOM     12  C   UNL     1     -34.228  26.242   0.326  0.00  0.00    +0.005 C 
ATOM     13  C   UNL     1     -33.544  27.579   0.068  0.00  0.00    +0.028 C 
ATOM     14  C   UNL     1     -35.191  26.692   4.107  0.00  0.00    +0.168 C 
ATOM     15  C   UNL     1     -31.484  27.200   1.479  0.00  0.00    +0.058 C 
ATOM     16  C   UNL     1     -30.643  27.772   2.620  0.00  0.00    +0.125 C 
ATOM     17  C   UNL     1     -34.819  23.665   1.935  0.00  0.00    +0.028 C 
ATOM     18  C   UNL     1     -36.847  23.232   3.277  0.00  0.00    +0.034 C 
ATOM     19  C   UNL     1     -31.447  27.816   3.921  0.00  0.00    +0.060 C 
ATOM     20  C   UNL     1     -35.855  25.334   4.295  0.00  0.00    +0.179 C 
ATOM     21  C   UNL     1     -35.494  22.639   2.855  0.00  0.00    +0.007 C 
ATOM     22  C   UNL     1     -31.471  29.896   2.078  0.00  0.00    +0.296 C 
ATOM     23  C   UNL     1     -37.972  25.542   3.041  0.00  0.00    +0.010 C 
ATOM     24  C   UNL     1     -31.030  31.305   1.709  0.00  0.00    +0.096 C 
ENDROOT
BRANCH  18  27
ATOM     25  O   UNL     1     -40.278  22.463   1.801  0.00  0.00    -0.418 OA
ATOM     26  O   UNL     1     -40.895  20.903   0.267  0.00  0.00    -0.244 OA
ATOM     27  C   UNL     1     -37.964  22.624   2.478  0.00  0.00    +0.016 C 
ATOM     28  C   UNL     1     -37.658  21.539   1.582  0.00  0.00    +0.006 C 
ATOM     29  C   UNL     1     -39.236  23.031   2.548  0.00  0.00    +0.179 C 
ATOM     30  C   UNL     1     -38.616  20.964   0.849  0.00  0.00    +0.082 C 
ATOM     31  C   UNL     1     -40.015  21.430   0.941  0.00  0.00    +0.346 C 
ENDBRANCH  18  27
BRANCH   9  32
ATOM     32  O   UNL     1     -36.648  24.633   0.692  0.00  0.00    -0.386 OA
ATOM     33  H   UNL     1     -37.125  23.798   0.817  0.00  0.00    +0.210 HD
ENDBRANCH   9  32
BRANCH  14  34
ATOM     34  O   UNL     1     -34.450  26.935   5.292  0.00  0.00    -0.377 OA
ATOM     35  H   UNL     1     -33.841  27.675   5.147  0.00  0.00    +0.211 HD
ENDBRANCH  14  34
BRANCH   5  37
ATOM     36  O   UNL     1     -35.064  29.928   3.331  0.00  0.00    -0.288 OA
ATOM     37  C   UNL     1     -34.736  29.159   2.434  0.00  0.00    +0.211 C 
ENDBRANCH   5  37
TORSDOF 4
ENDMDL
MODEL 4
REMARK VINA RESULT:      -6.7      4.028      6.623
REMARK  Name = 21602974
REMARK  4 active torsions:
REMARK  status: ('A' for Active; 'I' for Inactive)
REMARK    1  A    between atoms: C_5  and  C_37
REMARK    2  A    between atoms: C_9  and  O_32
REMARK    3  A    between atoms: C_14  and  O_34
REMARK    4  A    between atoms: C_18  and  C_27
REMARK                            x       y       z     vdW  Elec       q    Type
REMARK                         _______ _______ _______ _____ _____    ______ ____
ROOT
ATOM      1  O   UNL     1     -35.592  24.083   2.541  0.00  0.00    -0.317 OA
ATOM      2  O   UNL     1     -34.322  23.895   4.548  0.00  0.00    -0.315 OA
ATOM      3  O   UNL     1     -36.687  23.768   4.634  0.00  0.00    -0.315 OA
ATOM      4  O   UNL     1     -32.730  30.377   4.932  0.00  0.00    -0.293 OA
ATOM      5  C   UNL     1     -34.338  26.018   3.350  0.00  0.00    +0.109 C 
ATOM      6  C   UNL     1     -34.271  27.594   3.347  0.00  0.00    +0.048 C 
ATOM      7  C   UNL     1     -34.423  28.156   1.898  0.00  0.00    +0.028 C 
ATOM      8  C   UNL     1     -35.640  25.522   2.639  0.00  0.00    +0.108 C 
ATOM      9  C   UNL     1     -34.360  29.708   1.830  0.00  0.00    +0.095 C 
ATOM     10  C   UNL     1     -33.133  30.332   2.542  0.00  0.00    +0.080 C 
ATOM     11  C   UNL     1     -34.317  25.328   4.747  0.00  0.00    +0.131 C 
ATOM     12  C   UNL     1     -35.691  27.614   1.200  0.00  0.00    +0.005 C 
ATOM     13  C   UNL     1     -35.786  26.094   1.228  0.00  0.00    +0.028 C 
ATOM     14  C   UNL     1     -33.005  28.177   4.010  0.00  0.00    +0.168 C 
ATOM     15  C   UNL     1     -36.906  25.853   3.479  0.00  0.00    +0.058 C 
ATOM     16  C   UNL     1     -36.799  25.183   4.848  0.00  0.00    +0.125 C 
ATOM     17  C   UNL     1     -35.563  30.435   2.468  0.00  0.00    +0.028 C 
ATOM     18  C   UNL     1     -33.538  31.832   2.684  0.00  0.00    +0.034 C 
ATOM     19  C   UNL     1     -35.551  25.662   5.593  0.00  0.00    +0.060 C 
ATOM     20  C   UNL     1     -32.966  29.697   3.932  0.00  0.00    +0.179 C 
ATOM     21  C   UNL     1     -35.040  31.774   3.004  0.00  0.00    +0.007 C 
ATOM     22  C   UNL     1     -35.513  23.496   3.852  0.00  0.00    +0.296 C 
ATOM     23  C   UNL     1     -31.800  30.141   1.801  0.00  0.00    +0.010 C 
ATOM     24  C   UNL     1     -35.440  21.988   3.662  0.00  0.00    +0.096 C 
ENDROOT
BRANCH  18  27
ATOM     25  O   UNL     1     -31.851  33.654  -0.211  0.00  0.00    -0.418 OA
ATOM     26  O   UNL     1     -32.731  35.055  -1.769  0.00  0.00    -0.244 OA
ATOM     27  C   UNL     1     -33.286  32.696   1.481  0.00  0.00    +0.016 C 
ATOM     28  C   UNL     1     -34.395  33.405   0.899  0.00  0.00    +0.006 C 
ATOM     29  C   UNL     1     -32.085  32.848   0.913  0.00  0.00    +0.179 C 
ATOM     30  C   UNL     1     -34.225  34.186  -0.172  0.00  0.00    +0.082 C 
ATOM     31  C   UNL     1     -32.889  34.340  -0.785  0.00  0.00    +0.346 C 
ENDBRANCH  18  27
BRANCH   9  32
ATOM     32  O   UNL     1     -34.300  30.078   0.442  0.00  0.00    -0.386 OA
ATOM     33  H   UNL     1     -34.299  29.278  -0.106  0.00  0.00    +0.210 HD
ENDBRANCH   9  32
BRANCH  14  34
ATOM     34  O   UNL     1     -32.937  27.852   5.390  0.00  0.00    -0.377 OA
ATOM     35  H   UNL     1     -33.814  27.957   5.791  0.00  0.00    +0.211 HD
ENDBRANCH  14  34
BRANCH   5  37
ATOM     36  O   UNL     1     -31.956  25.779   2.962  0.00  0.00    -0.288 OA
ATOM     37  C   UNL     1     -33.102  25.500   2.626  0.00  0.00    +0.211 C 
ENDBRANCH   5  37
TORSDOF 4
ENDMDL
MODEL 5
REMARK VINA RESULT:      -6.5      2.638      4.318
REMARK  Name = 21602974
REMARK  4 active torsions:
REMARK  status: ('A' for Active; 'I' for Inactive)
REMARK    1  A    between atoms: C_5  and  C_37
REMARK    2  A    between atoms: C_9  and  O_32
REMARK    3  A    between atoms: C_14  and  O_34
REMARK    4  A    between atoms: C_18  and  C_27
REMARK                            x       y       z     vdW  Elec       q    Type
REMARK                         _______ _______ _______ _____ _____    ______ ____
ROOT
ATOM      1  O   UNL     1     -41.001  24.552   1.079  0.00  0.00    -0.317 OA
ATOM      2  O   UNL     1     -39.990  23.871  -0.968  0.00  0.00    -0.315 OA
ATOM      3  O   UNL     1     -41.030  22.260   0.425  0.00  0.00    -0.315 OA
ATOM      4  O   UNL     1     -33.686  24.478   1.176  0.00  0.00    -0.293 OA
ATOM      5  C   UNL     1     -38.576  24.719   0.828  0.00  0.00    +0.109 C 
ATOM      6  C   UNL     1     -37.205  24.729   1.608  0.00  0.00    +0.048 C 
ATOM      7  C   UNL     1     -37.260  25.712   2.820  0.00  0.00    +0.028 C 
ATOM      8  C   UNL     1     -39.760  24.414   1.803  0.00  0.00    +0.108 C 
ATOM      9  C   UNL     1     -35.933  25.770   3.627  0.00  0.00    +0.095 C 
ATOM     10  C   UNL     1     -34.669  26.021   2.766  0.00  0.00    +0.080 C 
ATOM     11  C   UNL     1     -38.699  23.692  -0.338  0.00  0.00    +0.131 C 
ATOM     12  C   UNL     1     -38.466  25.422   3.743  0.00  0.00    +0.005 C 
ATOM     13  C   UNL     1     -39.793  25.372   2.995  0.00  0.00    +0.028 C 
ATOM     14  C   UNL     1     -35.977  25.044   0.729  0.00  0.00    +0.168 C 
ATOM     15  C   UNL     1     -39.718  22.943   2.306  0.00  0.00    +0.058 C 
ATOM     16  C   UNL     1     -39.798  21.993   1.111  0.00  0.00    +0.125 C 
ATOM     17  C   UNL     1     -35.592  24.484   4.410  0.00  0.00    +0.028 C 
ATOM     18  C   UNL     1     -33.507  25.615   3.725  0.00  0.00    +0.034 C 
ATOM     19  C   UNL     1     -38.640  22.237   0.143  0.00  0.00    +0.060 C 
ATOM     20  C   UNL     1     -34.689  25.094   1.540  0.00  0.00    +0.179 C 
ATOM     21  C   UNL     1     -34.063  24.392   4.470  0.00  0.00    +0.007 C 
ATOM     22  C   UNL     1     -41.041  23.626  -0.021  0.00  0.00    +0.296 C 
ATOM     23  C   UNL     1     -34.533  27.458   2.238  0.00  0.00    +0.010 C 
ATOM     24  C   UNL     1     -42.360  23.852  -0.746  0.00  0.00    +0.096 C 
ENDROOT
BRANCH  18  27
ATOM     25  O   UNL     1     -32.895  27.610   6.917  0.00  0.00    -0.418 OA
ATOM     26  O   UNL     1     -31.801  29.578   7.225  0.00  0.00    -0.244 OA
ATOM     27  C   UNL     1     -33.061  26.670   4.697  0.00  0.00    +0.016 C 
ATOM     28  C   UNL     1     -32.319  27.798   4.197  0.00  0.00    +0.006 C 
ATOM     29  C   UNL     1     -33.313  26.625   6.009  0.00  0.00    +0.179 C 
ATOM     30  C   UNL     1     -31.899  28.763   5.020  0.00  0.00    +0.082 C 
ATOM     31  C   UNL     1     -32.187  28.693   6.468  0.00  0.00    +0.346 C 
ENDBRANCH  18  27
BRANCH   9  32
ATOM     32  O   UNL     1     -36.046  26.850   4.570  0.00  0.00    -0.386 OA
ATOM     33  H   UNL     1     -35.554  26.627   5.376  0.00  0.00    +0.210 HD
ENDBRANCH   9  32
BRANCH  14  34
ATOM     34  O   UNL     1     -35.775  24.053  -0.267  0.00  0.00    -0.377 OA
ATOM     35  H   UNL     1     -36.613  23.873  -0.719  0.00  0.00    +0.211 HD
ENDBRANCH  14  34
BRANCH   5  37
ATOM     36  O   UNL     1     -38.364  26.352  -0.951  0.00  0.00    -0.288 OA
ATOM     37  C   UNL     1     -38.753  26.086   0.181  0.00  0.00    +0.211 C 
ENDBRANCH   5  37
TORSDOF 4
ENDMDL
MODEL 6
REMARK VINA RESULT:      -6.5      1.992      8.004
REMARK  Name = 21602974
REMARK  4 active torsions:
REMARK  status: ('A' for Active; 'I' for Inactive)
REMARK    1  A    between atoms: C_5  and  C_37
REMARK    2  A    between atoms: C_9  and  O_32
REMARK    3  A    between atoms: C_14  and  O_34
REMARK    4  A    between atoms: C_18  and  C_27
REMARK                            x       y       z     vdW  Elec       q    Type
REMARK                         _______ _______ _______ _____ _____    ______ ____
ROOT
ATOM      1  O   UNL     1     -34.859  27.645   1.467  0.00  0.00    -0.317 OA
ATOM      2  O   UNL     1     -35.280  27.408   3.800  0.00  0.00    -0.315 OA
ATOM      3  O   UNL     1     -33.132  28.075   3.052  0.00  0.00    -0.315 OA
ATOM      4  O   UNL     1     -35.328  20.722   3.784  0.00  0.00    -0.293 OA
ATOM      5  C   UNL     1     -35.314  25.426   2.381  0.00  0.00    +0.109 C 
ATOM      6  C   UNL     1     -35.073  23.881   2.174  0.00  0.00    +0.048 C 
ATOM      7  C   UNL     1     -35.379  23.460   0.701  0.00  0.00    +0.028 C 
ATOM      8  C   UNL     1     -34.502  26.254   1.332  0.00  0.00    +0.108 C 
ATOM      9  C   UNL     1     -35.164  21.944   0.437  0.00  0.00    +0.095 C 
ATOM     10  C   UNL     1     -35.882  21.009   1.442  0.00  0.00    +0.080 C 
ATOM     11  C   UNL     1     -34.933  26.003   3.778  0.00  0.00    +0.131 C 
ATOM     12  C   UNL     1     -34.602  24.324  -0.317  0.00  0.00    +0.005 C 
ATOM     13  C   UNL     1     -34.797  25.821  -0.105  0.00  0.00    +0.028 C 
ATOM     14  C   UNL     1     -35.853  22.979   3.154  0.00  0.00    +0.168 C 
ATOM     15  C   UNL     1     -32.974  26.175   1.606  0.00  0.00    +0.058 C 
ATOM     16  C   UNL     1     -32.677  26.714   3.005  0.00  0.00    +0.125 C 
ATOM     17  C   UNL     1     -33.693  21.478   0.490  0.00  0.00    +0.028 C 
ATOM     18  C   UNL     1     -35.174  19.637   1.211  0.00  0.00    +0.034 C 
ATOM     19  C   UNL     1     -33.430  25.913   4.068  0.00  0.00    +0.060 C 
ATOM     20  C   UNL     1     -35.626  21.499   2.876  0.00  0.00    +0.179 C 
ATOM     21  C   UNL     1     -33.705  20.023   0.977  0.00  0.00    +0.007 C 
ATOM     22  C   UNL     1     -34.544  28.115   2.789  0.00  0.00    +0.296 C 
ATOM     23  C   UNL     1     -37.407  20.930   1.262  0.00  0.00    +0.010 C 
ATOM     24  C   UNL     1     -34.973  29.573   2.859  0.00  0.00    +0.096 C 
ENDROOT
BRANCH  18  27
ATOM     25  O   UNL     1     -37.447  17.641  -1.111  0.00  0.00    -0.418 OA
ATOM     26  O   UNL     1     -36.980  16.602  -3.077  0.00  0.00    -0.244 OA
ATOM     27  C   UNL     1     -35.694  18.816   0.066  0.00  0.00    +0.016 C 
ATOM     28  C   UNL     1     -34.781  18.441  -0.982  0.00  0.00    +0.006 C 
ATOM     29  C   UNL     1     -36.963  18.408  -0.041  0.00  0.00    +0.179 C 
ATOM     30  C   UNL     1     -35.193  17.710  -2.023  0.00  0.00    +0.082 C 
ATOM     31  C   UNL     1     -36.601  17.271  -2.122  0.00  0.00    +0.346 C 
ENDBRANCH  18  27
BRANCH   9  32
ATOM     32  O   UNL     1     -35.675  21.657  -0.876  0.00  0.00    -0.386 OA
ATOM     33  H   UNL     1     -36.129  20.800  -0.865  0.00  0.00    +0.210 HD
ENDBRANCH   9  32
BRANCH  14  34
ATOM     34  O   UNL     1     -35.452  23.192   4.498  0.00  0.00    -0.377 OA
ATOM     35  H   UNL     1     -36.213  23.490   5.020  0.00  0.00    +0.211 HD
ENDBRANCH  14  34
BRANCH   5  37
ATOM     36  O   UNL     1     -37.588  25.704   3.176  0.00  0.00    -0.288 OA
ATOM     37  C   UNL     1     -36.806  25.687   2.231  0.00  0.00    +0.211 C 
ENDBRANCH   5  37
TORSDOF 4
ENDMDL
MODEL 7
REMARK VINA RESULT:      -6.4      3.612      7.499
REMARK  Name = 21602974
REMARK  4 active torsions:
REMARK  status: ('A' for Active; 'I' for Inactive)
REMARK    1  A    between atoms: C_5  and  C_37
REMARK    2  A    between atoms: C_9  and  O_32
REMARK    3  A    between atoms: C_14  and  O_34
REMARK    4  A    between atoms: C_18  and  C_27
REMARK                            x       y       z     vdW  Elec       q    Type
REMARK                         _______ _______ _______ _____ _____    ______ ____
ROOT
ATOM      1  O   UNL     1     -39.765  25.320   0.368  0.00  0.00    -0.317 OA
ATOM      2  O   UNL     1     -39.966  25.015   2.722  0.00  0.00    -0.315 OA
ATOM      3  O   UNL     1     -38.989  27.000   1.870  0.00  0.00    -0.315 OA
ATOM      4  O   UNL     1     -35.044  20.518   3.227  0.00  0.00    -0.293 OA
ATOM      5  C   UNL     1     -38.463  23.567   1.463  0.00  0.00    +0.109 C 
ATOM      6  C   UNL     1     -37.148  22.700   1.371  0.00  0.00    +0.048 C 
ATOM      7  C   UNL     1     -36.982  22.088  -0.057  0.00  0.00    +0.028 C 
ATOM      8  C   UNL     1     -38.489  24.647   0.332  0.00  0.00    +0.108 C 
ATOM      9  C   UNL     1     -35.703  21.217  -0.209  0.00  0.00    +0.095 C 
ATOM     10  C   UNL     1     -35.533  20.132   0.884  0.00  0.00    +0.080 C 
ATOM     11  C   UNL     1     -38.691  24.333   2.800  0.00  0.00    +0.131 C 
ATOM     12  C   UNL     1     -37.060  23.169  -1.159  0.00  0.00    +0.005 C 
ATOM     13  C   UNL     1     -38.308  24.037  -1.059  0.00  0.00    +0.028 C 
ATOM     14  C   UNL     1     -37.043  21.590   2.437  0.00  0.00    +0.168 C 
ATOM     15  C   UNL     1     -37.417  25.747   0.572  0.00  0.00    +0.058 C 
ATOM     16  C   UNL     1     -37.675  26.426   1.917  0.00  0.00    +0.125 C 
ATOM     17  C   UNL     1     -34.374  22.001  -0.157  0.00  0.00    +0.028 C 
ATOM     18  C   UNL     1     -34.033  19.726   0.742  0.00  0.00    +0.034 C 
ATOM     19  C   UNL     1     -37.629  25.408   3.059  0.00  0.00    +0.060 C 
ATOM     20  C   UNL     1     -35.783  20.751   2.268  0.00  0.00    +0.179 C 
ATOM     21  C   UNL     1     -33.324  21.056   0.442  0.00  0.00    +0.007 C 
ATOM     22  C   UNL     1     -39.955  25.961   1.642  0.00  0.00    +0.296 C 
ATOM     23  C   UNL     1     -36.489  18.937   0.750  0.00  0.00    +0.010 C 
ATOM     24  C   UNL     1     -41.326  26.621   1.609  0.00  0.00    +0.096 C 
ENDROOT
BRANCH  18  27
ATOM     25  O   UNL     1     -33.920  16.517  -1.315  0.00  0.00    -0.418 OA
ATOM     26  O   UNL     1     -32.828  16.060  -3.255  0.00  0.00    -0.244 OA
ATOM     27  C   UNL     1     -33.726  18.712  -0.322  0.00  0.00    +0.016 C 
ATOM     28  C   UNL     1     -32.866  19.095  -1.412  0.00  0.00    +0.006 C 
ATOM     29  C   UNL     1     -34.206  17.464  -0.320  0.00  0.00    +0.179 C 
ATOM     30  C   UNL     1     -32.562  18.229  -2.383  0.00  0.00    +0.082 C 
ATOM     31  C   UNL     1     -33.105  16.855  -2.362  0.00  0.00    +0.346 C 
ENDBRANCH  18  27
BRANCH   9  32
ATOM     32  O   UNL     1     -35.781  20.553  -1.482  0.00  0.00    -0.386 OA
ATOM     33  H   UNL     1     -36.699  20.559  -1.793  0.00  0.00    +0.210 HD
ENDBRANCH   9  32
BRANCH  14  34
ATOM     34  O   UNL     1     -36.986  22.125   3.750  0.00  0.00    -0.377 OA
ATOM     35  H   UNL     1     -36.463  22.941   3.744  0.00  0.00    +0.211 HD
ENDBRANCH  14  34
BRANCH   5  37
ATOM     36  O   UNL     1     -40.063  21.923   2.250  0.00  0.00    -0.288 OA
ATOM     37  C   UNL     1     -39.650  22.623   1.331  0.00  0.00    +0.211 C 
ENDBRANCH   5  37
TORSDOF 4
ENDMDL
MODEL 8
REMARK VINA RESULT:      -6.4      1.440      1.961
REMARK  Name = 21602974
REMARK  4 active torsions:
REMARK  status: ('A' for Active; 'I' for Inactive)
REMARK    1  A    between atoms: C_5  and  C_37
REMARK    2  A    between atoms: C_9  and  O_32
REMARK    3  A    between atoms: C_14  and  O_34
REMARK    4  A    between atoms: C_18  and  C_27
REMARK                            x       y       z     vdW  Elec       q    Type
REMARK                         _______ _______ _______ _____ _____    ______ ____
ROOT
ATOM      1  O   UNL     1     -35.470  19.219  -1.852  0.00  0.00    -0.317 OA
ATOM      2  O   UNL     1     -37.439  18.290  -0.884  0.00  0.00    -0.315 OA
ATOM      3  O   UNL     1     -37.523  19.219  -3.063  0.00  0.00    -0.315 OA
ATOM      4  O   UNL     1     -38.506  23.320   3.390  0.00  0.00    -0.293 OA
ATOM      5  C   UNL     1     -36.475  20.306   0.091  0.00  0.00    +0.109 C 
ATOM      6  C   UNL     1     -36.640  21.680   0.848  0.00  0.00    +0.048 C 
ATOM      7  C   UNL     1     -35.260  22.390   1.022  0.00  0.00    +0.028 C 
ATOM      8  C   UNL     1     -35.722  20.512  -1.264  0.00  0.00    +0.108 C 
ATOM      9  C   UNL     1     -35.358  23.752   1.767  0.00  0.00    +0.095 C 
ATOM     10  C   UNL     1     -36.127  23.693   3.111  0.00  0.00    +0.080 C 
ATOM     11  C   UNL     1     -37.790  19.545  -0.255  0.00  0.00    +0.131 C 
ATOM     12  C   UNL     1     -34.515  22.539  -0.323  0.00  0.00    +0.005 C 
ATOM     13  C   UNL     1     -34.381  21.224  -1.082  0.00  0.00    +0.028 C 
ATOM     14  C   UNL     1     -37.355  21.573   2.211  0.00  0.00    +0.168 C 
ATOM     15  C   UNL     1     -36.598  21.286  -2.289  0.00  0.00    +0.058 C 
ATOM     16  C   UNL     1     -37.888  20.508  -2.548  0.00  0.00    +0.125 C 
ATOM     17  C   UNL     1     -36.077  24.871   0.983  0.00  0.00    +0.028 C 
ATOM     18  C   UNL     1     -36.430  25.195   3.405  0.00  0.00    +0.034 C 
ATOM     19  C   UNL     1     -38.673  20.307  -1.250  0.00  0.00    +0.060 C 
ATOM     20  C   UNL     1     -37.440  22.917   2.921  0.00  0.00    +0.179 C 
ATOM     21  C   UNL     1     -36.750  25.778   2.020  0.00  0.00    +0.007 C 
ATOM     22  C   UNL     1     -36.710  18.532  -2.098  0.00  0.00    +0.296 C 
ATOM     23  C   UNL     1     -35.363  23.004   4.253  0.00  0.00    +0.010 C 
ATOM     24  C   UNL     1     -36.360  17.175  -2.690  0.00  0.00    +0.096 C 
ENDROOT
BRANCH  18  27
ATOM     25  O   UNL     1     -33.682  27.742   4.117  0.00  0.00    -0.418 OA
ATOM     26  O   UNL     1     -32.354  27.988   5.945  0.00  0.00    -0.244 OA
ATOM     27  C   UNL     1     -35.326  25.970   4.064  0.00  0.00    +0.016 C 
ATOM     28  C   UNL     1     -34.892  25.571   5.378  0.00  0.00    +0.006 C 
ATOM     29  C   UNL     1     -34.714  27.018   3.501  0.00  0.00    +0.179 C 
ATOM     30  C   UNL     1     -33.913  26.227   6.007  0.00  0.00    +0.082 C 
ATOM     31  C   UNL     1     -33.251  27.383   5.367  0.00  0.00    +0.346 C 
ENDBRANCH  18  27
BRANCH   9  32
ATOM     32  O   UNL     1     -34.018  24.191   2.044  0.00  0.00    -0.386 OA
ATOM     33  H   UNL     1     -33.539  23.489   2.513  0.00  0.00    +0.210 HD
ENDBRANCH   9  32
BRANCH  14  34
ATOM     34  O   UNL     1     -38.692  21.118   2.069  0.00  0.00    -0.377 OA
ATOM     35  H   UNL     1     -39.301  21.865   2.177  0.00  0.00    +0.211 HD
ENDBRANCH  14  34
BRANCH   5  37
ATOM     36  O   UNL     1     -34.496  19.137   0.867  0.00  0.00    -0.288 OA
ATOM     37  C   UNL     1     -35.694  19.367   1.001  0.00  0.00    +0.211 C 
ENDBRANCH   5  37
TORSDOF 4
ENDMDL
MODEL 9
REMARK VINA RESULT:      -6.3      3.065      7.937
REMARK  Name = 21602974
REMARK  4 active torsions:
REMARK  status: ('A' for Active; 'I' for Inactive)
REMARK    1  A    between atoms: C_5  and  C_37
REMARK    2  A    between atoms: C_9  and  O_32
REMARK    3  A    between atoms: C_14  and  O_34
REMARK    4  A    between atoms: C_18  and  C_27
REMARK                            x       y       z     vdW  Elec       q    Type
REMARK                         _______ _______ _______ _____ _____    ______ ____
ROOT
ATOM      1  O   UNL     1     -37.089  24.661   1.672  0.00  0.00    -0.317 OA
ATOM      2  O   UNL     1     -37.506  23.238   3.537  0.00  0.00    -0.315 OA
ATOM      3  O   UNL     1     -36.273  25.240   3.836  0.00  0.00    -0.315 OA
ATOM      4  O   UNL     1     -33.111  18.522   1.765  0.00  0.00    -0.293 OA
ATOM      5  C   UNL     1     -36.058  22.447   1.743  0.00  0.00    +0.109 C 
ATOM      6  C   UNL     1     -34.833  21.587   1.245  0.00  0.00    +0.048 C 
ATOM      7  C   UNL     1     -34.615  21.764  -0.292  0.00  0.00    +0.028 C 
ATOM      8  C   UNL     1     -35.887  23.943   1.322  0.00  0.00    +0.108 C 
ATOM      9  C   UNL     1     -33.421  20.935  -0.843  0.00  0.00    +0.095 C 
ATOM     10  C   UNL     1     -33.447  19.436  -0.455  0.00  0.00    +0.080 C 
ATOM     11  C   UNL     1     -36.316  22.456   3.280  0.00  0.00    +0.131 C 
ATOM     12  C   UNL     1     -34.497  23.252  -0.689  0.00  0.00    +0.005 C 
ATOM     13  C   UNL     1     -35.657  24.101  -0.182  0.00  0.00    +0.028 C 
ATOM     14  C   UNL     1     -34.924  20.088   1.597  0.00  0.00    +0.168 C 
ATOM     15  C   UNL     1     -34.734  24.627   2.109  0.00  0.00    +0.058 C 
ATOM     16  C   UNL     1     -35.029  24.561   3.607  0.00  0.00    +0.125 C 
ATOM     17  C   UNL     1     -32.029  21.411  -0.375  0.00  0.00    +0.028 C 
ATOM     18  C   UNL     1     -31.988  18.971  -0.757  0.00  0.00    +0.034 C 
ATOM     19  C   UNL     1     -35.176  23.110   4.070  0.00  0.00    +0.060 C 
ATOM     20  C   UNL     1     -33.744  19.298   1.047  0.00  0.00    +0.179 C 
ATOM     21  C   UNL     1     -31.129  20.170  -0.323  0.00  0.00    +0.007 C 
ATOM     22  C   UNL     1     -37.315  24.590   3.091  0.00  0.00    +0.296 C 
ATOM     23  C   UNL     1     -34.504  18.602  -1.197  0.00  0.00    +0.010 C 
ATOM     24  C   UNL     1     -38.607  25.343   3.375  0.00  0.00    +0.096 C 
ENDROOT
BRANCH  18  27
ATOM     25  O   UNL     1     -32.063  17.282  -4.175  0.00  0.00    -0.418 OA
ATOM     26  O   UNL     1     -30.834  17.701  -6.041  0.00  0.00    -0.244 OA
ATOM     27  C   UNL     1     -31.700  18.603  -2.184  0.00  0.00    +0.016 C 
ATOM     28  C   UNL     1     -30.685  19.338  -2.893  0.00  0.00    +0.006 C 
ATOM     29  C   UNL     1     -32.332  17.626  -2.842  0.00  0.00    +0.179 C 
ATOM     30  C   UNL     1     -30.390  19.049  -4.164  0.00  0.00    +0.082 C 
ATOM     31  C   UNL     1     -31.103  17.966  -4.873  0.00  0.00    +0.346 C 
ENDBRANCH  18  27
BRANCH   9  32
ATOM     32  O   UNL     1     -33.462  21.020  -2.278  0.00  0.00    -0.386 OA
ATOM     33  H   UNL     1     -33.325  20.138  -2.657  0.00  0.00    +0.210 HD
ENDBRANCH   9  32
BRANCH  14  34
ATOM     34  O   UNL     1     -34.919  19.875   3.000  0.00  0.00    -0.377 OA
ATOM     35  H   UNL     1     -34.886  18.924   3.183  0.00  0.00    +0.211 HD
ENDBRANCH  14  34
BRANCH   5  37
ATOM     36  O   UNL     1     -38.044  21.055   1.707  0.00  0.00    -0.288 OA
ATOM     37  C   UNL     1     -37.319  21.857   1.127  0.00  0.00    +0.211 C 
ENDBRANCH   5  37
TORSDOF 4
ENDMDL
