MODEL 1
REMARK VINA RESULT:      -5.2      0.000      0.000
REMARK  Name = 54476371
REMARK  4 active torsions:
REMARK  status: ('A' for Active; 'I' for Inactive)
REMARK    1  A    between atoms: C_6  and  S_10
REMARK    2  A    between atoms: C_8  and  C_16
REMARK    3  A    between atoms: S_10  and  N_13
REMARK    4  A    between atoms: C_16  and  C_18
REMARK                            x       y       z     vdW  Elec       q    Type
REMARK                         _______ _______ _______ _____ _____    ______ ____
ROOT
ATOM      1  S   UNL     1     -35.312  25.890   5.339  0.00  0.00    -0.011 S 
ATOM      2  O   UNL     1     -31.102  27.827   4.645  0.00  0.00    -0.275 OA
ATOM      3  N   UNL     1     -33.201  27.496   5.642  0.00  0.00    -0.263 N 
ATOM      4  N   UNL     1     -34.047  24.785   3.404  0.00  0.00    -0.119 NA
ATOM      5  N   UNL     1     -33.207  25.775   3.884  0.00  0.00    -0.124 NA
ATOM      6  C   UNL     1     -35.178  24.737   4.075  0.00  0.00    +0.256 A 
ATOM      7  C   UNL     1     -33.745  26.426   4.892  0.00  0.00    +0.189 A 
ATOM      8  C   UNL     1     -31.961  28.105   5.475  0.00  0.00    +0.229 C 
ATOM      9  H   UNL     1     -33.768  27.852   6.364  0.00  0.00    +0.157 HD
ENDROOT
BRANCH   6  10
ATOM     10  S   UNL     1     -36.495  23.644   3.795  0.00  0.00    +0.081 S 
ATOM     11  O   UNL     1     -37.749  24.336   4.077  0.00  0.00    -0.151 OA
ATOM     12  O   UNL     1     -36.309  23.003   2.496  0.00  0.00    -0.151 OA
BRANCH  10  13
ATOM     13  N   UNL     1     -36.231  22.478   5.018  0.00  0.00    -0.202 NA
ATOM     14  H   UNL     1     -35.257  22.175   4.994  0.00  0.00    +0.144 HD
ATOM     15  H   UNL     1     -36.840  21.675   4.860  0.00  0.00    +0.144 HD
ENDBRANCH  10  13
ENDBRANCH   6  10
BRANCH   8  16
ATOM     16  C   UNL     1     -31.761  29.203   6.513  0.00  0.00    +0.103 C 
BRANCH  16  18
ATOM     17 CL   UNL     1     -30.549  31.230   5.141  0.00  0.00    -0.113 Cl
ATOM     18  C   UNL     1     -31.993  30.609   5.978  0.00  0.00    +0.104 C 
ENDBRANCH  16  18
ENDBRANCH   8  16
TORSDOF 4
ENDMDL
MODEL 2
REMARK VINA RESULT:      -5.0      1.687      1.729
REMARK  Name = 54476371
REMARK  4 active torsions:
REMARK  status: ('A' for Active; 'I' for Inactive)
REMARK    1  A    between atoms: C_6  and  S_10
REMARK    2  A    between atoms: C_8  and  C_16
REMARK    3  A    between atoms: S_10  and  N_13
REMARK    4  A    between atoms: C_16  and  C_18
REMARK                            x       y       z     vdW  Elec       q    Type
REMARK                         _______ _______ _______ _____ _____    ______ ____
ROOT
ATOM      1  S   UNL     1     -35.442  26.317   3.403  0.00  0.00    -0.011 S 
ATOM      2  O   UNL     1     -32.384  26.957   6.896  0.00  0.00    -0.275 OA
ATOM      3  N   UNL     1     -33.498  27.400   4.877  0.00  0.00    -0.263 N 
ATOM      4  N   UNL     1     -35.616  24.487   5.188  0.00  0.00    -0.119 NA
ATOM      5  N   UNL     1     -34.616  25.338   5.622  0.00  0.00    -0.124 NA
ATOM      6  C   UNL     1     -36.132  24.883   4.044  0.00  0.00    +0.256 A 
ATOM      7  C   UNL     1     -34.424  26.334   4.784  0.00  0.00    +0.189 A 
ATOM      8  C   UNL     1     -32.572  27.633   5.890  0.00  0.00    +0.229 C 
ATOM      9  H   UNL     1     -33.509  28.052   4.139  0.00  0.00    +0.157 HD
ENDROOT
BRANCH   6  10
ATOM     10  S   UNL     1     -37.405  24.099   3.163  0.00  0.00    +0.081 S 
ATOM     11  O   UNL     1     -38.686  24.485   3.744  0.00  0.00    -0.151 OA
ATOM     12  O   UNL     1     -37.180  24.297   1.733  0.00  0.00    -0.151 OA
BRANCH  10  13
ATOM     13  N   UNL     1     -37.110  22.456   3.535  0.00  0.00    -0.202 NA
ATOM     14  H   UNL     1     -36.775  21.973   2.702  0.00  0.00    +0.144 HD
ATOM     15  H   UNL     1     -37.975  22.020   3.856  0.00  0.00    +0.144 HD
ENDBRANCH  10  13
ENDBRANCH   6  10
BRANCH   8  16
ATOM     16  C   UNL     1     -31.786  28.910   5.612  0.00  0.00    +0.103 C 
BRANCH  16  18
ATOM     17 CL   UNL     1     -29.533  29.420   7.068  0.00  0.00    -0.113 Cl
ATOM     18  C   UNL     1     -31.291  29.616   6.867  0.00  0.00    +0.104 C 
ENDBRANCH  16  18
ENDBRANCH   8  16
TORSDOF 4
ENDMDL
MODEL 3
REMARK VINA RESULT:      -4.9      3.846      6.844
REMARK  Name = 54476371
REMARK  4 active torsions:
REMARK  status: ('A' for Active; 'I' for Inactive)
REMARK    1  A    between atoms: C_6  and  S_10
REMARK    2  A    between atoms: C_8  and  C_16
REMARK    3  A    between atoms: S_10  and  N_13
REMARK    4  A    between atoms: C_16  and  C_18
REMARK                            x       y       z     vdW  Elec       q    Type
REMARK                         _______ _______ _______ _____ _____    ______ ____
ROOT
ATOM      1  S   UNL     1     -33.486  26.671   3.764  0.00  0.00    -0.011 S 
ATOM      2  O   UNL     1     -36.244  23.227   5.341  0.00  0.00    -0.275 OA
ATOM      3  N   UNL     1     -35.171  24.600   3.769  0.00  0.00    -0.263 N 
ATOM      4  N   UNL     1     -33.514  26.550   6.323  0.00  0.00    -0.119 NA
ATOM      5  N   UNL     1     -34.350  25.536   5.891  0.00  0.00    -0.124 NA
ATOM      6  C   UNL     1     -32.997  27.219   5.314  0.00  0.00    +0.256 A 
ATOM      7  C   UNL     1     -34.425  25.489   4.579  0.00  0.00    +0.189 A 
ATOM      8  C   UNL     1     -36.002  23.565   4.187  0.00  0.00    +0.229 C 
ATOM      9  H   UNL     1     -35.093  24.730   2.796  0.00  0.00    +0.157 HD
ENDROOT
BRANCH   6  10
ATOM     10  S   UNL     1     -31.902  28.560   5.422  0.00  0.00    +0.081 S 
ATOM     11  O   UNL     1     -30.596  28.142   4.924  0.00  0.00    -0.151 OA
ATOM     12  O   UNL     1     -32.542  29.739   4.846  0.00  0.00    -0.151 OA
BRANCH  10  13
ATOM     13  N   UNL     1     -31.797  28.773   7.116  0.00  0.00    -0.202 NA
ATOM     14  H   UNL     1     -31.336  29.660   7.319  0.00  0.00    +0.144 HD
ATOM     15  H   UNL     1     -31.258  28.009   7.522  0.00  0.00    +0.144 HD
ENDBRANCH  10  13
ENDBRANCH   6  10
BRANCH   8  16
ATOM     16  C   UNL     1     -36.594  22.836   2.986  0.00  0.00    +0.103 C 
BRANCH  16  18
ATOM     17 CL   UNL     1     -35.247  20.481   2.672  0.00  0.00    -0.113 Cl
ATOM     18  C   UNL     1     -35.558  22.143   2.112  0.00  0.00    +0.104 C 
ENDBRANCH  16  18
ENDBRANCH   8  16
TORSDOF 4
ENDMDL
MODEL 4
REMARK VINA RESULT:      -4.9      5.049      7.396
REMARK  Name = 54476371
REMARK  4 active torsions:
REMARK  status: ('A' for Active; 'I' for Inactive)
REMARK    1  A    between atoms: C_6  and  S_10
REMARK    2  A    between atoms: C_8  and  C_16
REMARK    3  A    between atoms: S_10  and  N_13
REMARK    4  A    between atoms: C_16  and  C_18
REMARK                            x       y       z     vdW  Elec       q    Type
REMARK                         _______ _______ _______ _____ _____    ______ ____
ROOT
ATOM      1  S   UNL     1     -34.538  24.260   2.827  0.00  0.00    -0.011 S 
ATOM      2  O   UNL     1     -36.357  19.957   2.465  0.00  0.00    -0.275 OA
ATOM      3  N   UNL     1     -35.054  21.818   1.878  0.00  0.00    -0.263 N 
ATOM      4  N   UNL     1     -36.135  23.720   4.756  0.00  0.00    -0.119 NA
ATOM      5  N   UNL     1     -36.122  22.592   3.955  0.00  0.00    -0.124 NA
ATOM      6  C   UNL     1     -35.351  24.665   4.282  0.00  0.00    +0.256 A 
ATOM      7  C   UNL     1     -35.330  22.741   2.916  0.00  0.00    +0.189 A 
ATOM      8  C   UNL     1     -35.568  20.534   1.726  0.00  0.00    +0.229 C 
ATOM      9  H   UNL     1     -34.427  22.122   1.182  0.00  0.00    +0.157 HD
ENDROOT
BRANCH   6  10
ATOM     10  S   UNL     1     -35.084  26.229   4.983  0.00  0.00    +0.081 S 
ATOM     11  O   UNL     1     -34.184  26.086   6.123  0.00  0.00    -0.151 OA
ATOM     12  O   UNL     1     -34.747  27.172   3.920  0.00  0.00    -0.151 OA
BRANCH  10  13
ATOM     13  N   UNL     1     -36.646  26.607   5.567  0.00  0.00    -0.202 NA
ATOM     14  H   UNL     1     -37.200  25.754   5.637  0.00  0.00    +0.144 HD
ATOM     15  H   UNL     1     -37.102  27.257   4.926  0.00  0.00    +0.144 HD
ENDBRANCH  10  13
ENDBRANCH   6  10
BRANCH   8  16
ATOM     16  C   UNL     1     -34.989  19.871   0.481  0.00  0.00    +0.103 C 
BRANCH  16  18
ATOM     17 CL   UNL     1     -32.940  18.415   1.549  0.00  0.00    -0.113 Cl
ATOM     18  C   UNL     1     -33.472  19.748   0.495  0.00  0.00    +0.104 C 
ENDBRANCH  16  18
ENDBRANCH   8  16
TORSDOF 4
ENDMDL
MODEL 5
REMARK VINA RESULT:      -4.8      6.642      7.685
REMARK  Name = 54476371
REMARK  4 active torsions:
REMARK  status: ('A' for Active; 'I' for Inactive)
REMARK    1  A    between atoms: C_6  and  S_10
REMARK    2  A    between atoms: C_8  and  C_16
REMARK    3  A    between atoms: S_10  and  N_13
REMARK    4  A    between atoms: C_16  and  C_18
REMARK                            x       y       z     vdW  Elec       q    Type
REMARK                         _______ _______ _______ _____ _____    ______ ____
ROOT
ATOM      1  S   UNL     1     -38.288  22.410   1.912  0.00  0.00    -0.011 S 
ATOM      2  O   UNL     1     -40.259  26.385   3.422  0.00  0.00    -0.275 OA
ATOM      3  N   UNL     1     -40.009  24.440   2.132  0.00  0.00    -0.263 N 
ATOM      4  N   UNL     1     -36.936  23.506   3.793  0.00  0.00    -0.119 NA
ATOM      5  N   UNL     1     -38.025  24.334   3.584  0.00  0.00    -0.124 NA
ATOM      6  C   UNL     1     -36.952  22.466   2.987  0.00  0.00    +0.256 A 
ATOM      7  C   UNL     1     -38.809  23.879   2.631  0.00  0.00    +0.189 A 
ATOM      8  C   UNL     1     -40.632  25.614   2.545  0.00  0.00    +0.229 C 
ATOM      9  H   UNL     1     -40.453  23.942   1.408  0.00  0.00    +0.157 HD
ENDROOT
BRANCH   6  10
ATOM     10  S   UNL     1     -35.775  21.193   2.926  0.00  0.00    +0.081 S 
ATOM     11  O   UNL     1     -34.848  21.461   1.832  0.00  0.00    -0.151 OA
ATOM     12  O   UNL     1     -35.248  20.972   4.270  0.00  0.00    -0.151 OA
BRANCH  10  13
ATOM     13  N   UNL     1     -36.749  19.854   2.499  0.00  0.00    -0.202 NA
ATOM     14  H   UNL     1     -36.189  19.177   1.981  0.00  0.00    +0.144 HD
ATOM     15  H   UNL     1     -37.525  20.169   1.918  0.00  0.00    +0.144 HD
ENDBRANCH  10  13
ENDBRANCH   6  10
BRANCH   8  16
ATOM     16  C   UNL     1     -41.920  25.839   1.762  0.00  0.00    +0.103 C 
BRANCH  16  18
ATOM     17 CL   UNL     1     -43.703  26.701   3.642  0.00  0.00    -0.113 Cl
ATOM     18  C   UNL     1     -42.710  27.061   2.209  0.00  0.00    +0.104 C 
ENDBRANCH  16  18
ENDBRANCH   8  16
TORSDOF 4
ENDMDL
MODEL 6
REMARK VINA RESULT:      -4.8      1.422      1.457
REMARK  Name = 54476371
REMARK  4 active torsions:
REMARK  status: ('A' for Active; 'I' for Inactive)
REMARK    1  A    between atoms: C_6  and  S_10
REMARK    2  A    between atoms: C_8  and  C_16
REMARK    3  A    between atoms: S_10  and  N_13
REMARK    4  A    between atoms: C_16  and  C_18
REMARK                            x       y       z     vdW  Elec       q    Type
REMARK                         _______ _______ _______ _____ _____    ______ ____
ROOT
ATOM      1  S   UNL     1     -35.407  26.492   3.782  0.00  0.00    -0.011 S 
ATOM      2  O   UNL     1     -31.281  27.727   5.628  0.00  0.00    -0.275 OA
ATOM      3  N   UNL     1     -33.352  28.009   4.561  0.00  0.00    -0.263 N 
ATOM      4  N   UNL     1     -34.131  24.482   4.728  0.00  0.00    -0.119 NA
ATOM      5  N   UNL     1     -33.321  25.580   4.956  0.00  0.00    -0.124 NA
ATOM      6  C   UNL     1     -35.250  24.818   4.123  0.00  0.00    +0.256 A 
ATOM      7  C   UNL     1     -33.868  26.691   4.512  0.00  0.00    +0.189 A 
ATOM      8  C   UNL     1     -32.137  28.425   5.095  0.00  0.00    +0.229 C 
ATOM      9  H   UNL     1     -33.920  28.712   4.169  0.00  0.00    +0.157 HD
ENDROOT
BRANCH   6  10
ATOM     10  S   UNL     1     -36.532  23.745   3.658  0.00  0.00    +0.081 S 
ATOM     11  O   UNL     1     -37.810  24.368   3.987  0.00  0.00    -0.151 OA
ATOM     12  O   UNL     1     -36.292  23.286   2.292  0.00  0.00    -0.151 OA
BRANCH  10  13
ATOM     13  N   UNL     1     -36.275  22.433   4.724  0.00  0.00    -0.202 NA
ATOM     14  H   UNL     1     -35.660  21.751   4.281  0.00  0.00    +0.144 HD
ATOM     15  H   UNL     1     -37.169  21.993   4.944  0.00  0.00    +0.144 HD
ENDBRANCH  10  13
ENDBRANCH   6  10
BRANCH   8  16
ATOM     16  C   UNL     1     -31.985  29.936   4.964  0.00  0.00    +0.103 C 
BRANCH  16  18
ATOM     17 CL   UNL     1     -33.881  31.225   3.482  0.00  0.00    -0.113 Cl
ATOM     18  C   UNL     1     -32.272  30.467   3.567  0.00  0.00    +0.104 C 
ENDBRANCH  16  18
ENDBRANCH   8  16
TORSDOF 4
ENDMDL
MODEL 7
REMARK VINA RESULT:      -4.8      6.436      7.292
REMARK  Name = 54476371
REMARK  4 active torsions:
REMARK  status: ('A' for Active; 'I' for Inactive)
REMARK    1  A    between atoms: C_6  and  S_10
REMARK    2  A    between atoms: C_8  and  C_16
REMARK    3  A    between atoms: S_10  and  N_13
REMARK    4  A    between atoms: C_16  and  C_18
REMARK                            x       y       z     vdW  Elec       q    Type
REMARK                         _______ _______ _______ _____ _____    ______ ____
ROOT
ATOM      1  S   UNL     1     -37.532  23.755   1.115  0.00  0.00    -0.011 S 
ATOM      2  O   UNL     1     -35.318  20.663   3.853  0.00  0.00    -0.275 OA
ATOM      3  N   UNL     1     -35.998  21.700   1.861  0.00  0.00    -0.263 N 
ATOM      4  N   UNL     1     -37.992  24.163   3.602  0.00  0.00    -0.119 NA
ATOM      5  N   UNL     1     -37.147  23.068   3.553  0.00  0.00    -0.124 NA
ATOM      6  C   UNL     1     -38.270  24.619   2.400  0.00  0.00    +0.256 A 
ATOM      7  C   UNL     1     -36.831  22.750   2.317  0.00  0.00    +0.189 A 
ATOM      8  C   UNL     1     -35.321  20.759   2.631  0.00  0.00    +0.229 C 
ATOM      9  H   UNL     1     -35.886  21.628   0.885  0.00  0.00    +0.157 HD
ENDROOT
BRANCH   6  10
ATOM     10  S   UNL     1     -39.287  25.973   2.023  0.00  0.00    +0.081 S 
ATOM     11  O   UNL     1     -38.447  27.094   1.617  0.00  0.00    -0.151 OA
ATOM     12  O   UNL     1     -40.359  25.526   1.137  0.00  0.00    -0.151 OA
BRANCH  10  13
ATOM     13  N   UNL     1     -39.962  26.325   3.555  0.00  0.00    -0.202 NA
ATOM     14  H   UNL     1     -40.486  27.197   3.503  0.00  0.00    +0.144 HD
ATOM     15  H   UNL     1     -39.214  26.417   4.242  0.00  0.00    +0.144 HD
ENDBRANCH  10  13
ENDBRANCH   6  10
BRANCH   8  16
ATOM     16  C   UNL     1     -34.514  19.821   1.741  0.00  0.00    +0.103 C 
BRANCH  16  18
ATOM     17 CL   UNL     1     -32.062  19.814   0.538  0.00  0.00    -0.113 Cl
ATOM     18  C   UNL     1     -33.684  20.535   0.683  0.00  0.00    +0.104 C 
ENDBRANCH  16  18
ENDBRANCH   8  16
TORSDOF 4
ENDMDL
MODEL 8
REMARK VINA RESULT:      -4.8      5.262      6.449
REMARK  Name = 54476371
REMARK  4 active torsions:
REMARK  status: ('A' for Active; 'I' for Inactive)
REMARK    1  A    between atoms: C_6  and  S_10
REMARK    2  A    between atoms: C_8  and  C_16
REMARK    3  A    between atoms: S_10  and  N_13
REMARK    4  A    between atoms: C_16  and  C_18
REMARK                            x       y       z     vdW  Elec       q    Type
REMARK                         _______ _______ _______ _____ _____    ______ ____
ROOT
ATOM      1  S   UNL     1     -39.798  24.363   2.869  0.00  0.00    -0.011 S 
ATOM      2  O   UNL     1     -35.856  26.498   4.235  0.00  0.00    -0.275 OA
ATOM      3  N   UNL     1     -37.489  24.815   4.132  0.00  0.00    -0.263 N 
ATOM      4  N   UNL     1     -39.496  26.646   1.746  0.00  0.00    -0.119 NA
ATOM      5  N   UNL     1     -38.394  26.485   2.567  0.00  0.00    -0.124 NA
ATOM      6  C   UNL     1     -40.307  25.612   1.809  0.00  0.00    +0.256 A 
ATOM      7  C   UNL     1     -38.427  25.337   3.210  0.00  0.00    +0.189 A 
ATOM      8  C   UNL     1     -36.308  25.408   4.569  0.00  0.00    +0.229 C 
ATOM      9  H   UNL     1     -37.697  23.929   4.508  0.00  0.00    +0.157 HD
ENDROOT
BRANCH   6  10
ATOM     10  S   UNL     1     -41.795  25.417   0.939  0.00  0.00    +0.081 S 
ATOM     11  O   UNL     1     -42.906  25.743   1.827  0.00  0.00    -0.151 OA
ATOM     12  O   UNL     1     -41.683  26.102  -0.346  0.00  0.00    -0.151 OA
BRANCH  10  13
ATOM     13  N   UNL     1     -41.801  23.730   0.656  0.00  0.00    -0.202 NA
ATOM     14  H   UNL     1     -41.643  23.238   1.534  0.00  0.00    +0.144 HD
ATOM     15  H   UNL     1     -41.061  23.494  -0.005  0.00  0.00    +0.144 HD
ENDBRANCH  10  13
ENDBRANCH   6  10
BRANCH   8  16
ATOM     16  C   UNL     1     -35.579  24.491   5.545  0.00  0.00    +0.103 C 
BRANCH  16  18
ATOM     17 CL   UNL     1     -35.561  21.913   6.444  0.00  0.00    -0.113 Cl
ATOM     18  C   UNL     1     -35.472  23.047   5.074  0.00  0.00    +0.104 C 
ENDBRANCH  16  18
ENDBRANCH   8  16
TORSDOF 4
ENDMDL
MODEL 9
REMARK VINA RESULT:      -4.7      3.672      6.807
REMARK  Name = 54476371
REMARK  4 active torsions:
REMARK  status: ('A' for Active; 'I' for Inactive)
REMARK    1  A    between atoms: C_6  and  S_10
REMARK    2  A    between atoms: C_8  and  C_16
REMARK    3  A    between atoms: S_10  and  N_13
REMARK    4  A    between atoms: C_16  and  C_18
REMARK                            x       y       z     vdW  Elec       q    Type
REMARK                         _______ _______ _______ _____ _____    ______ ____
ROOT
ATOM      1  S   UNL     1     -33.458  26.354   3.578  0.00  0.00    -0.011 S 
ATOM      2  O   UNL     1     -36.464  23.060   5.020  0.00  0.00    -0.275 OA
ATOM      3  N   UNL     1     -35.162  24.299   3.510  0.00  0.00    -0.263 N 
ATOM      4  N   UNL     1     -33.839  26.435   6.110  0.00  0.00    -0.119 NA
ATOM      5  N   UNL     1     -34.625  25.395   5.647  0.00  0.00    -0.124 NA
ATOM      6  C   UNL     1     -33.178  27.019   5.134  0.00  0.00    +0.256 A 
ATOM      7  C   UNL     1     -34.519  25.245   4.345  0.00  0.00    +0.189 A 
ATOM      8  C   UNL     1     -36.059  23.305   3.889  0.00  0.00    +0.229 C 
ATOM      9  H   UNL     1     -34.948  24.351   2.550  0.00  0.00    +0.157 HD
ENDROOT
BRANCH   6  10
ATOM     10  S   UNL     1     -32.086  28.358   5.288  0.00  0.00    +0.081 S 
ATOM     11  O   UNL     1     -30.805  27.992   4.692  0.00  0.00    -0.151 OA
ATOM     12  O   UNL     1     -32.762  29.572   4.838  0.00  0.00    -0.151 OA
BRANCH  10  13
ATOM     13  N   UNL     1     -31.893  28.442   6.985  0.00  0.00    -0.202 NA
ATOM     14  H   UNL     1     -32.502  27.757   7.431  0.00  0.00    +0.144 HD
ATOM     15  H   UNL     1     -32.138  29.377   7.310  0.00  0.00    +0.144 HD
ENDBRANCH  10  13
ENDBRANCH   6  10
BRANCH   8  16
ATOM     16  C   UNL     1     -36.492  22.486   2.678  0.00  0.00    +0.103 C 
BRANCH  16  18
ATOM     17 CL   UNL     1     -38.734  24.045   2.626  0.00  0.00    -0.113 Cl
ATOM     18  C   UNL     1     -38.001  22.429   2.478  0.00  0.00    +0.104 C 
ENDBRANCH  16  18
ENDBRANCH   8  16
TORSDOF 4
ENDMDL
