MODEL 1
REMARK VINA RESULT:      -5.3      0.000      0.000
REMARK  Name = 20083434
REMARK  6 active torsions:
REMARK  status: ('A' for Active; 'I' for Inactive)
REMARK    1  A    between atoms: N_3  and  C_17
REMARK    2  A    between atoms: N_4  and  C_9
REMARK    3  A    between atoms: N_4  and  N_10
REMARK    4  A    between atoms: N_10  and  C_13
REMARK    5  A    between atoms: C_13  and  N_14
REMARK    6  A    between atoms: C_17  and  C_18
REMARK                            x       y       z     vdW  Elec       q    Type
REMARK                         _______ _______ _______ _____ _____    ______ ____
ROOT
ATOM      1  S   UNL     1     -36.241  26.288   2.334  0.00  0.00    -0.095 S 
ATOM      2  O   UNL     1     -33.345  25.062   4.586  0.00  0.00    -0.274 OA
ATOM      3  N   UNL     1     -35.662  24.859   4.399  0.00  0.00    -0.252 N 
ATOM      4  C   UNL     1     -34.475  26.206   2.785  0.00  0.00    +0.111 C 
ATOM      5  C   UNL     1     -34.406  25.318   4.022  0.00  0.00    +0.236 C 
ATOM      6  C   UNL     1     -33.685  25.574   1.641  0.00  0.00    +0.020 C 
ATOM      7  C   UNL     1     -33.967  27.607   3.115  0.00  0.00    +0.020 C 
ATOM      8  C   UNL     1     -36.733  25.261   3.640  0.00  0.00    +0.220 C 
ENDROOT
BRANCH   8   9
ATOM      9  N   UNL     1     -37.970  24.950   3.820  0.00  0.00    -0.101 NA
BRANCH   9  10
ATOM     10  N   UNL     1     -38.829  25.972   3.586  0.00  0.00    -0.242 N 
ATOM     11  H   UNL     1     -38.516  26.900   3.698  0.00  0.00    +0.170 HD
BRANCH  10  13
ATOM     12  S   UNL     1     -40.429  24.835   1.813  0.00  0.00    -0.018 S 
ATOM     13  C   UNL     1     -40.134  25.739   3.196  0.00  0.00    +0.146 C 
BRANCH  13  14
ATOM     14  N   UNL     1     -41.099  26.296   4.020  0.00  0.00    -0.314 N 
ATOM     15  C   UNL     1     -42.256  27.059   3.594  0.00  0.00    +0.110 C 
ATOM     16  H   UNL     1     -40.989  26.159   4.987  0.00  0.00    +0.149 HD
ENDBRANCH  13  14
ENDBRANCH  10  13
ENDBRANCH   9  10
ENDBRANCH   8   9
BRANCH   3  17
ATOM     17  C   UNL     1     -35.836  23.989   5.553  0.00  0.00    +0.118 C 
BRANCH  17  18
ATOM     18  C   UNL     1     -35.431  22.587   5.199  0.00  0.00    -0.024 C 
ATOM     19  C   UNL     1     -35.629  22.158   3.773  0.00  0.00    +0.028 C 
ATOM     20  C   UNL     1     -34.884  21.765   6.108  0.00  0.00    -0.007 C 
ENDBRANCH  17  18
ENDBRANCH   3  17
TORSDOF 6
ENDMDL
MODEL 2
REMARK VINA RESULT:      -5.3      1.466      2.082
REMARK  Name = 20083434
REMARK  6 active torsions:
REMARK  status: ('A' for Active; 'I' for Inactive)
REMARK    1  A    between atoms: N_3  and  C_17
REMARK    2  A    between atoms: N_4  and  C_9
REMARK    3  A    between atoms: N_4  and  N_10
REMARK    4  A    between atoms: N_10  and  C_13
REMARK    5  A    between atoms: C_13  and  N_14
REMARK    6  A    between atoms: C_17  and  C_18
REMARK                            x       y       z     vdW  Elec       q    Type
REMARK                         _______ _______ _______ _____ _____    ______ ____
ROOT
ATOM      1  S   UNL     1     -36.472  26.281   2.445  0.00  0.00    -0.095 S 
ATOM      2  O   UNL     1     -33.348  25.152   4.428  0.00  0.00    -0.274 OA
ATOM      3  N   UNL     1     -35.660  24.830   4.414  0.00  0.00    -0.252 N 
ATOM      4  C   UNL     1     -34.674  26.281   2.756  0.00  0.00    +0.111 C 
ATOM      5  C   UNL     1     -34.462  25.365   3.955  0.00  0.00    +0.236 C 
ATOM      6  C   UNL     1     -33.945  25.724   1.535  0.00  0.00    +0.020 C 
ATOM      7  C   UNL     1     -34.214  27.699   3.088  0.00  0.00    +0.020 C 
ATOM      8  C   UNL     1     -36.806  25.194   3.753  0.00  0.00    +0.220 C 
ENDROOT
BRANCH   8   9
ATOM      9  N   UNL     1     -38.008  24.813   4.018  0.00  0.00    -0.101 NA
BRANCH   9  10
ATOM     10  N   UNL     1     -38.492  23.893   3.148  0.00  0.00    -0.242 N 
ATOM     11  H   UNL     1     -37.958  23.089   2.951  0.00  0.00    +0.170 HD
BRANCH  10  13
ATOM     12  S   UNL     1     -40.491  25.548   2.637  0.00  0.00    -0.018 S 
ATOM     13  C   UNL     1     -39.717  24.062   2.533  0.00  0.00    +0.146 C 
BRANCH  13  14
ATOM     14  N   UNL     1     -40.196  22.945   1.867  0.00  0.00    -0.314 N 
ATOM     15  C   UNL     1     -39.647  21.604   1.930  0.00  0.00    +0.110 C 
ATOM     16  H   UNL     1     -40.987  23.075   1.297  0.00  0.00    +0.149 HD
ENDBRANCH  13  14
ENDBRANCH  10  13
ENDBRANCH   9  10
ENDBRANCH   8   9
BRANCH   3  17
ATOM     17  C   UNL     1     -35.697  23.921   5.551  0.00  0.00    +0.118 C 
BRANCH  17  18
ATOM     18  C   UNL     1     -35.382  22.525   5.097  0.00  0.00    -0.024 C 
ATOM     19  C   UNL     1     -34.901  21.558   6.142  0.00  0.00    +0.028 C 
ATOM     20  C   UNL     1     -35.556  22.147   3.822  0.00  0.00    -0.007 C 
ENDBRANCH  17  18
ENDBRANCH   3  17
TORSDOF 6
ENDMDL
MODEL 3
REMARK VINA RESULT:      -5.1      3.575      5.360
REMARK  Name = 20083434
REMARK  6 active torsions:
REMARK  status: ('A' for Active; 'I' for Inactive)
REMARK    1  A    between atoms: N_3  and  C_17
REMARK    2  A    between atoms: N_4  and  C_9
REMARK    3  A    between atoms: N_4  and  N_10
REMARK    4  A    between atoms: N_10  and  C_13
REMARK    5  A    between atoms: C_13  and  N_14
REMARK    6  A    between atoms: C_17  and  C_18
REMARK                            x       y       z     vdW  Elec       q    Type
REMARK                         _______ _______ _______ _____ _____    ______ ____
ROOT
ATOM      1  S   UNL     1     -38.351  22.554   2.250  0.00  0.00    -0.095 S 
ATOM      2  O   UNL     1     -36.864  26.010   3.153  0.00  0.00    -0.274 OA
ATOM      3  N   UNL     1     -36.261  23.755   3.161  0.00  0.00    -0.252 N 
ATOM      4  C   UNL     1     -38.459  24.371   2.377  0.00  0.00    +0.111 C 
ATOM      5  C   UNL     1     -37.117  24.826   2.938  0.00  0.00    +0.236 C 
ATOM      6  C   UNL     1     -38.676  24.968   0.988  0.00  0.00    +0.020 C 
ATOM      7  C   UNL     1     -39.586  24.750   3.335  0.00  0.00    +0.020 C 
ATOM      8  C   UNL     1     -36.731  22.500   2.863  0.00  0.00    +0.220 C 
ENDROOT
BRANCH   8   9
ATOM      9  N   UNL     1     -36.101  21.385   2.995  0.00  0.00    -0.101 NA
BRANCH   9  10
ATOM     10  N   UNL     1     -36.727  20.333   2.415  0.00  0.00    -0.242 N 
ATOM     11  H   UNL     1     -37.625  20.073   2.727  0.00  0.00    +0.170 HD
BRANCH  10  13
ATOM     12  S   UNL     1     -34.484  19.789   1.123  0.00  0.00    -0.018 S 
ATOM     13  C   UNL     1     -36.131  19.616   1.395  0.00  0.00    +0.146 C 
BRANCH  13  14
ATOM     14  N   UNL     1     -36.987  18.797   0.677  0.00  0.00    -0.314 N 
ATOM     15  C   UNL     1     -37.899  19.214  -0.371  0.00  0.00    +0.110 C 
ATOM     16  H   UNL     1     -36.975  17.839   0.899  0.00  0.00    +0.149 HD
ENDBRANCH  13  14
ENDBRANCH  10  13
ENDBRANCH   9  10
ENDBRANCH   8   9
BRANCH   3  17
ATOM     17  C   UNL     1     -34.920  23.955   3.692  0.00  0.00    +0.118 C 
BRANCH  17  18
ATOM     18  C   UNL     1     -34.981  24.119   5.183  0.00  0.00    -0.024 C 
ATOM     19  C   UNL     1     -35.188  22.876   6.000  0.00  0.00    +0.028 C 
ATOM     20  C   UNL     1     -34.821  25.319   5.763  0.00  0.00    -0.007 C 
ENDBRANCH  17  18
ENDBRANCH   3  17
TORSDOF 6
ENDMDL
MODEL 4
REMARK VINA RESULT:      -5.0      2.778      4.763
REMARK  Name = 20083434
REMARK  6 active torsions:
REMARK  status: ('A' for Active; 'I' for Inactive)
REMARK    1  A    between atoms: N_3  and  C_17
REMARK    2  A    between atoms: N_4  and  C_9
REMARK    3  A    between atoms: N_4  and  N_10
REMARK    4  A    between atoms: N_10  and  C_13
REMARK    5  A    between atoms: C_13  and  N_14
REMARK    6  A    between atoms: C_17  and  C_18
REMARK                            x       y       z     vdW  Elec       q    Type
REMARK                         _______ _______ _______ _____ _____    ______ ____
ROOT
ATOM      1  S   UNL     1     -37.633  26.410   1.987  0.00  0.00    -0.095 S 
ATOM      2  O   UNL     1     -37.477  22.789   3.342  0.00  0.00    -0.274 OA
ATOM      3  N   UNL     1     -36.105  24.663   3.108  0.00  0.00    -0.252 N 
ATOM      4  C   UNL     1     -38.389  24.787   2.338  0.00  0.00    +0.111 C 
ATOM      5  C   UNL     1     -37.292  23.951   2.985  0.00  0.00    +0.236 C 
ATOM      6  C   UNL     1     -39.554  24.966   3.309  0.00  0.00    +0.020 C 
ATOM      7  C   UNL     1     -38.841  24.141   1.030  0.00  0.00    +0.020 C 
ATOM      8  C   UNL     1     -36.095  25.955   2.643  0.00  0.00    +0.220 C 
ENDROOT
BRANCH   8   9
ATOM      9  N   UNL     1     -35.104  26.778   2.664  0.00  0.00    -0.101 NA
BRANCH   9  10
ATOM     10  N   UNL     1     -35.399  27.971   3.235  0.00  0.00    -0.242 N 
ATOM     11  H   UNL     1     -36.136  28.025   3.886  0.00  0.00    +0.170 HD
BRANCH  10  13
ATOM     12  S   UNL     1     -33.196  28.969   2.163  0.00  0.00    -0.018 S 
ATOM     13  C   UNL     1     -34.687  29.113   2.920  0.00  0.00    +0.146 C 
BRANCH  13  14
ATOM     14  N   UNL     1     -35.302  30.302   3.275  0.00  0.00    -0.314 N 
ATOM     15  C   UNL     1     -36.004  31.207   2.384  0.00  0.00    +0.110 C 
ATOM     16  H   UNL     1     -35.259  30.558   4.224  0.00  0.00    +0.149 HD
ENDBRANCH  13  14
ENDBRANCH  10  13
ENDBRANCH   9  10
ENDBRANCH   8   9
BRANCH   3  17
ATOM     17  C   UNL     1     -34.920  24.063   3.705  0.00  0.00    +0.118 C 
BRANCH  17  18
ATOM     18  C   UNL     1     -35.010  24.137   5.202  0.00  0.00    -0.024 C 
ATOM     19  C   UNL     1     -35.212  22.844   5.939  0.00  0.00    +0.028 C 
ATOM     20  C   UNL     1     -34.880  25.302   5.855  0.00  0.00    -0.007 C 
ENDBRANCH  17  18
ENDBRANCH   3  17
TORSDOF 6
ENDMDL
MODEL 5
REMARK VINA RESULT:      -4.9      5.228      7.165
REMARK  Name = 20083434
REMARK  6 active torsions:
REMARK  status: ('A' for Active; 'I' for Inactive)
REMARK    1  A    between atoms: N_3  and  C_17
REMARK    2  A    between atoms: N_4  and  C_9
REMARK    3  A    between atoms: N_4  and  N_10
REMARK    4  A    between atoms: N_10  and  C_13
REMARK    5  A    between atoms: C_13  and  N_14
REMARK    6  A    between atoms: C_17  and  C_18
REMARK                            x       y       z     vdW  Elec       q    Type
REMARK                         _______ _______ _______ _____ _____    ______ ____
ROOT
ATOM      1  S   UNL     1     -36.891  20.081   0.744  0.00  0.00    -0.095 S 
ATOM      2  O   UNL     1     -34.447  17.455  -0.705  0.00  0.00    -0.274 OA
ATOM      3  N   UNL     1     -34.534  19.067   0.981  0.00  0.00    -0.252 N 
ATOM      4  C   UNL     1     -36.465  18.753  -0.432  0.00  0.00    +0.111 C 
ATOM      5  C   UNL     1     -35.040  18.337  -0.087  0.00  0.00    +0.236 C 
ATOM      6  C   UNL     1     -37.417  17.575  -0.238  0.00  0.00    +0.020 C 
ATOM      7  C   UNL     1     -36.524  19.296  -1.858  0.00  0.00    +0.020 C 
ATOM      8  C   UNL     1     -35.352  20.017   1.539  0.00  0.00    +0.220 C 
ENDROOT
BRANCH   8   9
ATOM      9  N   UNL     1     -35.076  20.794   2.529  0.00  0.00    -0.101 NA
BRANCH   9  10
ATOM     10  N   UNL     1     -36.166  21.201   3.224  0.00  0.00    -0.242 N 
ATOM     11  H   UNL     1     -36.909  20.570   3.367  0.00  0.00    +0.170 HD
BRANCH  10  13
ATOM     12  S   UNL     1     -36.379  23.779   2.674  0.00  0.00    -0.018 S 
ATOM     13  C   UNL     1     -36.256  22.482   3.733  0.00  0.00    +0.146 C 
BRANCH  13  14
ATOM     14  N   UNL     1     -36.236  22.565   5.115  0.00  0.00    -0.314 N 
ATOM     15  C   UNL     1     -35.365  21.827   6.009  0.00  0.00    +0.110 C 
ATOM     16  H   UNL     1     -36.875  23.187   5.531  0.00  0.00    +0.149 HD
ENDBRANCH  13  14
ENDBRANCH  10  13
ENDBRANCH   9  10
ENDBRANCH   8   9
BRANCH   3  17
ATOM     17  C   UNL     1     -33.189  18.834   1.488  0.00  0.00    +0.118 C 
BRANCH  17  18
ATOM     18  C   UNL     1     -32.180  19.426   0.547  0.00  0.00    -0.024 C 
ATOM     19  C   UNL     1     -32.472  20.798   0.007  0.00  0.00    +0.028 C 
ATOM     20  C   UNL     1     -31.050  18.775   0.230  0.00  0.00    -0.007 C 
ENDBRANCH  17  18
ENDBRANCH   3  17
TORSDOF 6
ENDMDL
MODEL 6
REMARK VINA RESULT:      -4.9      3.396      5.929
REMARK  Name = 20083434
REMARK  6 active torsions:
REMARK  status: ('A' for Active; 'I' for Inactive)
REMARK    1  A    between atoms: N_3  and  C_17
REMARK    2  A    between atoms: N_4  and  C_9
REMARK    3  A    between atoms: N_4  and  N_10
REMARK    4  A    between atoms: N_10  and  C_13
REMARK    5  A    between atoms: C_13  and  N_14
REMARK    6  A    between atoms: C_17  and  C_18
REMARK                            x       y       z     vdW  Elec       q    Type
REMARK                         _______ _______ _______ _____ _____    ______ ____
ROOT
ATOM      1  S   UNL     1     -38.736  25.790   2.858  0.00  0.00    -0.095 S 
ATOM      2  O   UNL     1     -41.424  23.730   0.988  0.00  0.00    -0.274 OA
ATOM      3  N   UNL     1     -39.478  23.403   2.234  0.00  0.00    -0.252 N 
ATOM      4  C   UNL     1     -40.263  25.655   1.868  0.00  0.00    +0.111 C 
ATOM      5  C   UNL     1     -40.473  24.164   1.635  0.00  0.00    +0.236 C 
ATOM      6  C   UNL     1     -41.435  26.234   2.656  0.00  0.00    +0.020 C 
ATOM      7  C   UNL     1     -40.071  26.375   0.534  0.00  0.00    +0.020 C 
ATOM      8  C   UNL     1     -38.492  24.075   2.912  0.00  0.00    +0.220 C 
ENDROOT
BRANCH   8   9
ATOM      9  N   UNL     1     -37.488  23.560   3.533  0.00  0.00    -0.101 NA
BRANCH   9  10
ATOM     10  N   UNL     1     -36.944  24.380   4.464  0.00  0.00    -0.242 N 
ATOM     11  H   UNL     1     -37.356  25.258   4.634  0.00  0.00    +0.170 HD
BRANCH  10  13
ATOM     12  S   UNL     1     -34.454  24.983   5.124  0.00  0.00    -0.018 S 
ATOM     13  C   UNL     1     -35.821  24.010   5.179  0.00  0.00    +0.146 C 
BRANCH  13  14
ATOM     14  N   UNL     1     -35.945  22.830   5.895  0.00  0.00    -0.314 N 
ATOM     15  C   UNL     1     -35.062  21.682   5.821  0.00  0.00    +0.110 C 
ATOM     16  H   UNL     1     -36.707  22.765   6.514  0.00  0.00    +0.149 HD
ENDBRANCH  13  14
ENDBRANCH  10  13
ENDBRANCH   9  10
ENDBRANCH   8   9
BRANCH   3  17
ATOM     17  C   UNL     1     -39.480  21.949   2.146  0.00  0.00    +0.118 C 
BRANCH  17  18
ATOM     18  C   UNL     1     -38.594  21.506   1.018  0.00  0.00    -0.024 C 
ATOM     19  C   UNL     1     -37.306  20.826   1.386  0.00  0.00    +0.028 C 
ATOM     20  C   UNL     1     -38.954  21.677  -0.264  0.00  0.00    -0.007 C 
ENDBRANCH  17  18
ENDBRANCH   3  17
TORSDOF 6
ENDMDL
MODEL 7
REMARK VINA RESULT:      -4.8      2.797      5.097
REMARK  Name = 20083434
REMARK  6 active torsions:
REMARK  status: ('A' for Active; 'I' for Inactive)
REMARK    1  A    between atoms: N_3  and  C_17
REMARK    2  A    between atoms: N_4  and  C_9
REMARK    3  A    between atoms: N_4  and  N_10
REMARK    4  A    between atoms: N_10  and  C_13
REMARK    5  A    between atoms: C_13  and  N_14
REMARK    6  A    between atoms: C_17  and  C_18
REMARK                            x       y       z     vdW  Elec       q    Type
REMARK                         _______ _______ _______ _____ _____    ______ ____
ROOT
ATOM      1  S   UNL     1     -35.163  25.815   1.733  0.00  0.00    -0.095 S 
ATOM      2  O   UNL     1     -38.140  24.347   3.721  0.00  0.00    -0.274 OA
ATOM      3  N   UNL     1     -35.854  24.744   3.973  0.00  0.00    -0.252 N 
ATOM      4  C   UNL     1     -36.925  25.370   1.902  0.00  0.00    +0.111 C 
ATOM      5  C   UNL     1     -37.065  24.761   3.292  0.00  0.00    +0.236 C 
ATOM      6  C   UNL     1     -37.782  26.629   1.792  0.00  0.00    +0.020 C 
ATOM      7  C   UNL     1     -37.296  24.341   0.837  0.00  0.00    +0.020 C 
ATOM      8  C   UNL     1     -34.757  25.249   3.320  0.00  0.00    +0.220 C 
ENDROOT
BRANCH   8   9
ATOM      9  N   UNL     1     -33.553  25.326   3.771  0.00  0.00    -0.101 NA
BRANCH   9  10
ATOM     10  N   UNL     1     -32.903  26.456   3.402  0.00  0.00    -0.242 N 
ATOM     11  H   UNL     1     -32.333  26.443   2.599  0.00  0.00    +0.170 HD
BRANCH  10  13
ATOM     12  S   UNL     1     -33.127  29.090   3.321  0.00  0.00    -0.018 S 
ATOM     13  C   UNL     1     -33.022  27.623   4.131  0.00  0.00    +0.146 C 
BRANCH  13  14
ATOM     14  N   UNL     1     -33.045  27.456   5.506  0.00  0.00    -0.314 N 
ATOM     15  C   UNL     1     -32.090  27.997   6.454  0.00  0.00    +0.110 C 
ATOM     16  H   UNL     1     -33.780  26.917   5.875  0.00  0.00    +0.149 HD
ENDBRANCH  13  14
ENDBRANCH  10  13
ENDBRANCH   9  10
ENDBRANCH   8   9
BRANCH   3  17
ATOM     17  C   UNL     1     -35.752  24.210   5.324  0.00  0.00    +0.118 C 
BRANCH  17  18
ATOM     18  C   UNL     1     -35.510  22.729   5.269  0.00  0.00    -0.024 C 
ATOM     19  C   UNL     1     -35.321  22.019   6.579  0.00  0.00    +0.028 C 
ATOM     20  C   UNL     1     -35.499  22.064   4.104  0.00  0.00    -0.007 C 
ENDBRANCH  17  18
ENDBRANCH   3  17
TORSDOF 6
ENDMDL
MODEL 8
REMARK VINA RESULT:      -4.8      2.868      4.467
REMARK  Name = 20083434
REMARK  6 active torsions:
REMARK  status: ('A' for Active; 'I' for Inactive)
REMARK    1  A    between atoms: N_3  and  C_17
REMARK    2  A    between atoms: N_4  and  C_9
REMARK    3  A    between atoms: N_4  and  N_10
REMARK    4  A    between atoms: N_10  and  C_13
REMARK    5  A    between atoms: C_13  and  N_14
REMARK    6  A    between atoms: C_17  and  C_18
REMARK                            x       y       z     vdW  Elec       q    Type
REMARK                         _______ _______ _______ _____ _____    ______ ____
ROOT
ATOM      1  S   UNL     1     -34.195  22.419   0.586  0.00  0.00    -0.095 S 
ATOM      2  O   UNL     1     -36.386  20.129   2.805  0.00  0.00    -0.274 OA
ATOM      3  N   UNL     1     -35.671  22.348   2.697  0.00  0.00    -0.252 N 
ATOM      4  C   UNL     1     -34.948  20.806   0.987  0.00  0.00    +0.111 C 
ATOM      5  C   UNL     1     -35.753  21.032   2.261  0.00  0.00    +0.236 C 
ATOM      6  C   UNL     1     -35.873  20.378  -0.149  0.00  0.00    +0.020 C 
ATOM      7  C   UNL     1     -33.847  19.777   1.236  0.00  0.00    +0.020 C 
ATOM      8  C   UNL     1     -34.906  23.212   1.954  0.00  0.00    +0.220 C 
ENDROOT
BRANCH   8   9
ATOM      9  N   UNL     1     -34.702  24.463   2.184  0.00  0.00    -0.101 NA
BRANCH   9  10
ATOM     10  N   UNL     1     -35.757  25.254   1.870  0.00  0.00    -0.242 N 
ATOM     11  H   UNL     1     -36.303  25.038   1.079  0.00  0.00    +0.170 HD
BRANCH  10  13
ATOM     12  S   UNL     1     -34.996  27.636   2.732  0.00  0.00    -0.018 S 
ATOM     13  C   UNL     1     -36.080  26.357   2.636  0.00  0.00    +0.146 C 
BRANCH  13  14
ATOM     14  N   UNL     1     -37.311  26.292   3.267  0.00  0.00    -0.314 N 
ATOM     15  C   UNL     1     -38.562  25.865   2.671  0.00  0.00    +0.110 C 
ATOM     16  H   UNL     1     -37.339  26.561   4.213  0.00  0.00    +0.149 HD
ENDBRANCH  13  14
ENDBRANCH  10  13
ENDBRANCH   9  10
ENDBRANCH   8   9
BRANCH   3  17
ATOM     17  C   UNL     1     -36.368  22.794   3.896  0.00  0.00    +0.118 C 
BRANCH  17  18
ATOM     18  C   UNL     1     -35.431  22.769   5.069  0.00  0.00    -0.024 C 
ATOM     19  C   UNL     1     -34.881  24.087   5.533  0.00  0.00    +0.028 C 
ATOM     20  C   UNL     1     -35.128  21.623   5.698  0.00  0.00    -0.007 C 
ENDBRANCH  17  18
ENDBRANCH   3  17
TORSDOF 6
ENDMDL
MODEL 9
REMARK VINA RESULT:      -4.8      4.388      6.710
REMARK  Name = 20083434
REMARK  6 active torsions:
REMARK  status: ('A' for Active; 'I' for Inactive)
REMARK    1  A    between atoms: N_3  and  C_17
REMARK    2  A    between atoms: N_4  and  C_9
REMARK    3  A    between atoms: N_4  and  N_10
REMARK    4  A    between atoms: N_10  and  C_13
REMARK    5  A    between atoms: C_13  and  N_14
REMARK    6  A    between atoms: C_17  and  C_18
REMARK                            x       y       z     vdW  Elec       q    Type
REMARK                         _______ _______ _______ _____ _____    ______ ____
ROOT
ATOM      1  S   UNL     1     -37.123  20.911   1.182  0.00  0.00    -0.095 S 
ATOM      2  O   UNL     1     -38.090  23.847   3.507  0.00  0.00    -0.274 OA
ATOM      3  N   UNL     1     -36.455  22.193   3.315  0.00  0.00    -0.252 N 
ATOM      4  C   UNL     1     -38.196  22.311   1.647  0.00  0.00    +0.111 C 
ATOM      5  C   UNL     1     -37.595  22.885   2.925  0.00  0.00    +0.236 C 
ATOM      6  C   UNL     1     -38.174  23.361   0.539  0.00  0.00    +0.020 C 
ATOM      7  C   UNL     1     -39.611  21.803   1.914  0.00  0.00    +0.020 C 
ATOM      8  C   UNL     1     -36.060  21.137   2.531  0.00  0.00    +0.220 C 
ENDROOT
BRANCH   8   9
ATOM      9  N   UNL     1     -35.040  20.373   2.717  0.00  0.00    -0.101 NA
BRANCH   9  10
ATOM     10  N   UNL     1     -34.774  19.554   1.670  0.00  0.00    -0.242 N 
ATOM     11  H   UNL     1     -35.489  18.977   1.316  0.00  0.00    +0.170 HD
BRANCH  10  13
ATOM     12  S   UNL     1     -32.563  18.150   1.306  0.00  0.00    -0.018 S 
ATOM     13  C   UNL     1     -33.520  19.512   1.092  0.00  0.00    +0.146 C 
BRANCH  13  14
ATOM     14  N   UNL     1     -33.171  20.640   0.368  0.00  0.00    -0.314 N 
ATOM     15  C   UNL     1     -31.908  20.872  -0.306  0.00  0.00    +0.110 C 
ATOM     16  H   UNL     1     -33.846  21.352   0.304  0.00  0.00    +0.149 HD
ENDBRANCH  13  14
ENDBRANCH  10  13
ENDBRANCH   9  10
ENDBRANCH   8   9
BRANCH   3  17
ATOM     17  C   UNL     1     -35.710  22.571   4.507  0.00  0.00    +0.118 C 
BRANCH  17  18
ATOM     18  C   UNL     1     -35.113  23.937   4.323  0.00  0.00    -0.024 C 
ATOM     19  C   UNL     1     -35.261  24.907   5.461  0.00  0.00    +0.028 C 
ATOM     20  C   UNL     1     -34.445  24.265   3.206  0.00  0.00    -0.007 C 
ENDBRANCH  17  18
ENDBRANCH   3  17
TORSDOF 6
ENDMDL
