MODEL 1
REMARK VINA RESULT:      -6.2      0.000      0.000
REMARK  Name = 191262
REMARK  14 active torsions:
REMARK  status: ('A' for Active; 'I' for Inactive)
REMARK    1  A    between atoms: C_1  and  C_6
REMARK    2  A    between atoms: C_1  and  N_21
REMARK    3  A    between atoms: C_7  and  C_9
REMARK    4  A    between atoms: C_9  and  N_10
REMARK    5  A    between atoms: C_9  and  C_14
REMARK    6  A    between atoms: C_14  and  C_15
REMARK    7  A    between atoms: N_21  and  C_24
REMARK    8  A    between atoms: C_24  and  C_26
REMARK    9  A    between atoms: C_24  and  C_29
REMARK   10  A    between atoms: C_26  and  C_28
REMARK   11  A    between atoms: C_29  and  C_30
REMARK   12  A    between atoms: C_30  and  C_31
REMARK   13  A    between atoms: C_31  and  C_32
REMARK   14  A    between atoms: C_32  and  N_33
REMARK                            x       y       z     vdW  Elec       q    Type
REMARK                         _______ _______ _______ _____ _____    ______ ____
ROOT
ATOM      1  C   UNL     1     -36.308  24.939   4.432  0.00  0.00    +0.018 C 
ATOM      2  C   UNL     1     -35.838  25.981   5.439  0.00  0.00    -0.014 C 
ENDROOT
BRANCH   1   6
ATOM      3  O   UNL     1     -35.317  23.293   5.913  0.00  0.00    -0.277 OA
ATOM      4  O   UNL     1     -35.072  20.740   4.794  0.00  0.00    -0.277 OA
ATOM      5  N   UNL     1     -35.940  22.642   3.765  0.00  0.00    -0.259 N 
ATOM      6  C   UNL     1     -35.790  23.556   4.811  0.00  0.00    +0.208 C 
ATOM      7  C   UNL     1     -35.574  21.296   3.819  0.00  0.00    +0.208 C 
ATOM      8  H   UNL     1     -36.335  22.972   2.926  0.00  0.00    +0.157 HD
BRANCH   7   9
ATOM      9  C   UNL     1     -35.835  20.574   2.497  0.00  0.00    +0.018 C 
BRANCH   9  10
ATOM     10  N   UNL     1     -37.267  20.702   2.216  0.00  0.00    +0.388 N 
ATOM     11  H   UNL     1     -37.800  20.469   3.053  0.00  0.00    -0.089 HD
ATOM     12  H   UNL     1     -37.523  20.066   1.461  0.00  0.00    -0.089 HD
ATOM     13  H   UNL     1     -37.473  21.661   1.937  0.00  0.00    -0.089 HD
ENDBRANCH   9  10
BRANCH   9  14
ATOM     14  C   UNL     1     -35.005  21.188   1.360  0.00  0.00    +0.013 C 
BRANCH  14  15
ATOM     15  C   UNL     1     -33.776  20.378   1.019  0.00  0.00    -0.024 C 
ATOM     16  C   UNL     1     -33.620  19.094   1.542  0.00  0.00    -0.004 C 
ATOM     17  C   UNL     1     -32.798  20.912   0.180  0.00  0.00    -0.004 C 
ATOM     18  C   UNL     1     -32.486  18.345   1.228  0.00  0.00    -0.000 C 
ATOM     19  C   UNL     1     -31.664  20.164  -0.135  0.00  0.00    -0.000 C 
ATOM     20  C   UNL     1     -31.508  18.880   0.388  0.00  0.00    -0.000 C 
ENDBRANCH  14  15
ENDBRANCH   9  14
ENDBRANCH   7   9
ENDBRANCH   1   6
BRANCH   1  21
ATOM     21  N   UNL     1     -37.760  24.881   4.380  0.00  0.00    +0.397 N 
ATOM     22  H   UNL     1     -38.062  23.917   4.519  0.00  0.00    -0.083 HD
ATOM     23  H   UNL     1     -38.139  25.482   5.112  0.00  0.00    -0.083 HD
BRANCH  21  24
ATOM     24  C   UNL     1     -38.251  25.354   3.086  0.00  0.00    -0.000 C 
BRANCH  24  26
ATOM     25  O   UNL     1     -38.762  23.062   2.504  0.00  0.00    -0.297 OA
ATOM     26  C   UNL     1     -39.095  24.247   2.451  0.00  0.00    +0.147 C 
BRANCH  26  28
ATOM     27 CL   UNL     1     -41.135  26.002   2.710  0.00  0.00    -0.105 Cl
ATOM     28  C   UNL     1     -40.379  24.697   1.782  0.00  0.00    +0.157 C 
ENDBRANCH  26  28
ENDBRANCH  24  26
BRANCH  24  29
ATOM     29  C   UNL     1     -37.100  25.801   2.173  0.00  0.00    -0.014 C 
BRANCH  29  30
ATOM     30  C   UNL     1     -37.371  27.099   1.400  0.00  0.00    -0.004 C 
BRANCH  30  31
ATOM     31  C   UNL     1     -36.108  27.938   1.163  0.00  0.00    -0.024 C 
BRANCH  31  32
ATOM     32  C   UNL     1     -35.047  27.855   2.264  0.00  0.00    -0.086 C 
BRANCH  32  33
ATOM     33  N   UNL     1     -35.217  28.899   3.266  0.00  0.00    +0.380 N 
ATOM     34  H   UNL     1     -35.982  28.650   3.892  0.00  0.00    -0.089 HD
ATOM     35  H   UNL     1     -35.431  29.783   2.803  0.00  0.00    -0.089 HD
ATOM     36  H   UNL     1     -34.356  28.997   3.803  0.00  0.00    -0.089 HD
ENDBRANCH  32  33
ENDBRANCH  31  32
ENDBRANCH  30  31
ENDBRANCH  29  30
ENDBRANCH  24  29
ENDBRANCH  21  24
ENDBRANCH   1  21
TORSDOF 14
ENDMDL
MODEL 2
REMARK VINA RESULT:      -5.8      2.653      3.638
REMARK  Name = 191262
REMARK  14 active torsions:
REMARK  status: ('A' for Active; 'I' for Inactive)
REMARK    1  A    between atoms: C_1  and  C_6
REMARK    2  A    between atoms: C_1  and  N_21
REMARK    3  A    between atoms: C_7  and  C_9
REMARK    4  A    between atoms: C_9  and  N_10
REMARK    5  A    between atoms: C_9  and  C_14
REMARK    6  A    between atoms: C_14  and  C_15
REMARK    7  A    between atoms: N_21  and  C_24
REMARK    8  A    between atoms: C_24  and  C_26
REMARK    9  A    between atoms: C_24  and  C_29
REMARK   10  A    between atoms: C_26  and  C_28
REMARK   11  A    between atoms: C_29  and  C_30
REMARK   12  A    between atoms: C_30  and  C_31
REMARK   13  A    between atoms: C_31  and  C_32
REMARK   14  A    between atoms: C_32  and  N_33
REMARK                            x       y       z     vdW  Elec       q    Type
REMARK                         _______ _______ _______ _____ _____    ______ ____
ROOT
ATOM      1  C   UNL     1     -35.566  23.680   4.870  0.00  0.00    +0.018 C 
ATOM      2  C   UNL     1     -35.307  22.748   6.048  0.00  0.00    -0.014 C 
ENDROOT
BRANCH   1   6
ATOM      3  O   UNL     1     -37.695  23.461   3.727  0.00  0.00    -0.277 OA
ATOM      4  O   UNL     1     -37.788  21.377   1.862  0.00  0.00    -0.277 OA
ATOM      5  N   UNL     1     -35.981  21.968   3.211  0.00  0.00    -0.259 N 
ATOM      6  C   UNL     1     -36.550  23.047   3.893  0.00  0.00    +0.208 C 
ATOM      7  C   UNL     1     -36.631  21.201   2.241  0.00  0.00    +0.208 C 
ATOM      8  H   UNL     1     -35.052  21.731   3.430  0.00  0.00    +0.157 HD
BRANCH   7   9
ATOM      9  C   UNL     1     -35.747  20.073   1.711  0.00  0.00    +0.018 C 
BRANCH   9  10
ATOM     10  N   UNL     1     -36.638  19.083   1.102  0.00  0.00    +0.388 N 
ATOM     11  H   UNL     1     -36.264  18.148   1.255  0.00  0.00    -0.089 HD
ATOM     12  H   UNL     1     -36.710  19.261   0.100  0.00  0.00    -0.089 HD
ATOM     13  H   UNL     1     -37.563  19.152   1.526  0.00  0.00    -0.089 HD
ENDBRANCH   9  10
BRANCH   9  14
ATOM     14  C   UNL     1     -34.740  20.599   0.678  0.00  0.00    +0.013 C 
BRANCH  14  15
ATOM     15  C   UNL     1     -33.425  19.855   0.700  0.00  0.00    -0.024 C 
ATOM     16  C   UNL     1     -33.311  18.661   1.413  0.00  0.00    -0.004 C 
ATOM     17  C   UNL     1     -32.326  20.359   0.005  0.00  0.00    -0.004 C 
ATOM     18  C   UNL     1     -32.099  17.973   1.433  0.00  0.00    -0.000 C 
ATOM     19  C   UNL     1     -31.113  19.671   0.024  0.00  0.00    -0.000 C 
ATOM     20  C   UNL     1     -30.999  18.477   0.737  0.00  0.00    -0.000 C 
ENDBRANCH  14  15
ENDBRANCH   9  14
ENDBRANCH   7   9
ENDBRANCH   1   6
BRANCH   1  21
ATOM     21  N   UNL     1     -36.122  24.946   5.319  0.00  0.00    +0.397 N 
ATOM     22  H   UNL     1     -37.051  25.066   4.915  0.00  0.00    -0.083 HD
ATOM     23  H   UNL     1     -36.177  24.938   6.338  0.00  0.00    -0.083 HD
BRANCH  21  24
ATOM     24  C   UNL     1     -35.272  26.061   4.905  0.00  0.00    -0.000 C 
BRANCH  24  26
ATOM     25  O   UNL     1     -36.586  26.523   2.926  0.00  0.00    -0.297 OA
ATOM     26  C   UNL     1     -35.474  26.298   3.407  0.00  0.00    +0.147 C 
BRANCH  26  28
ATOM     27 CL   UNL     1     -34.062  24.711   1.735  0.00  0.00    -0.105 Cl
ATOM     28  C   UNL     1     -34.218  26.270   2.560  0.00  0.00    +0.157 C 
ENDBRANCH  26  28
ENDBRANCH  24  26
BRANCH  24  29
ATOM     29  C   UNL     1     -33.799  25.811   5.259  0.00  0.00    -0.014 C 
BRANCH  29  30
ATOM     30  C   UNL     1     -33.201  26.828   6.240  0.00  0.00    -0.004 C 
BRANCH  30  31
ATOM     31  C   UNL     1     -32.391  27.933   5.548  0.00  0.00    -0.024 C 
BRANCH  31  32
ATOM     32  C   UNL     1     -31.201  28.474   6.344  0.00  0.00    -0.086 C 
BRANCH  32  33
ATOM     33  N   UNL     1     -31.626  29.267   7.491  0.00  0.00    +0.380 N 
ATOM     34  H   UNL     1     -31.397  28.770   8.351  0.00  0.00    -0.089 HD
ATOM     35  H   UNL     1     -32.634  29.419   7.444  0.00  0.00    -0.089 HD
ATOM     36  H   UNL     1     -31.146  30.166   7.479  0.00  0.00    -0.089 HD
ENDBRANCH  32  33
ENDBRANCH  31  32
ENDBRANCH  30  31
ENDBRANCH  29  30
ENDBRANCH  24  29
ENDBRANCH  21  24
ENDBRANCH   1  21
TORSDOF 14
ENDMDL
MODEL 3
REMARK VINA RESULT:      -5.7      1.287      2.042
REMARK  Name = 191262
REMARK  14 active torsions:
REMARK  status: ('A' for Active; 'I' for Inactive)
REMARK    1  A    between atoms: C_1  and  C_6
REMARK    2  A    between atoms: C_1  and  N_21
REMARK    3  A    between atoms: C_7  and  C_9
REMARK    4  A    between atoms: C_9  and  N_10
REMARK    5  A    between atoms: C_9  and  C_14
REMARK    6  A    between atoms: C_14  and  C_15
REMARK    7  A    between atoms: N_21  and  C_24
REMARK    8  A    between atoms: C_24  and  C_26
REMARK    9  A    between atoms: C_24  and  C_29
REMARK   10  A    between atoms: C_26  and  C_28
REMARK   11  A    between atoms: C_29  and  C_30
REMARK   12  A    between atoms: C_30  and  C_31
REMARK   13  A    between atoms: C_31  and  C_32
REMARK   14  A    between atoms: C_32  and  N_33
REMARK                            x       y       z     vdW  Elec       q    Type
REMARK                         _______ _______ _______ _____ _____    ______ ____
ROOT
ATOM      1  C   UNL     1     -35.428  25.000   4.105  0.00  0.00    +0.018 C 
ATOM      2  C   UNL     1     -36.155  25.835   5.152  0.00  0.00    -0.014 C 
ENDROOT
BRANCH   1   6
ATOM      3  O   UNL     1     -34.842  23.316   5.751  0.00  0.00    -0.277 OA
ATOM      4  O   UNL     1     -35.077  20.683   4.834  0.00  0.00    -0.277 OA
ATOM      5  N   UNL     1     -35.507  22.629   3.626  0.00  0.00    -0.259 N 
ATOM      6  C   UNL     1     -35.214  23.578   4.609  0.00  0.00    +0.208 C 
ATOM      7  C   UNL     1     -35.422  21.246   3.796  0.00  0.00    +0.208 C 
ATOM      8  H   UNL     1     -35.798  22.962   2.746  0.00  0.00    +0.157 HD
BRANCH   7   9
ATOM      9  C   UNL     1     -35.777  20.485   2.519  0.00  0.00    +0.018 C 
BRANCH   9  10
ATOM     10  N   UNL     1     -37.218  20.638   2.316  0.00  0.00    +0.388 N 
ATOM     11  H   UNL     1     -37.661  19.720   2.311  0.00  0.00    -0.089 HD
ATOM     12  H   UNL     1     -37.389  21.103   1.425  0.00  0.00    -0.089 HD
ATOM     13  H   UNL     1     -37.610  21.200   3.072  0.00  0.00    -0.089 HD
ENDBRANCH   9  10
BRANCH   9  14
ATOM     14  C   UNL     1     -35.000  21.038   1.314  0.00  0.00    +0.013 C 
BRANCH  14  15
ATOM     15  C   UNL     1     -33.740  20.261   1.014  0.00  0.00    -0.024 C 
ATOM     16  C   UNL     1     -33.563  18.984   1.548  0.00  0.00    -0.004 C 
ATOM     17  C   UNL     1     -32.754  20.819   0.201  0.00  0.00    -0.004 C 
ATOM     18  C   UNL     1     -32.401  18.266   1.271  0.00  0.00    -0.000 C 
ATOM     19  C   UNL     1     -31.590  20.101  -0.077  0.00  0.00    -0.000 C 
ATOM     20  C   UNL     1     -31.414  18.824   0.457  0.00  0.00    -0.000 C 
ENDBRANCH  14  15
ENDBRANCH   9  14
ENDBRANCH   7   9
ENDBRANCH   1   6
BRANCH   1  21
ATOM     21  N   UNL     1     -36.192  24.933   2.869  0.00  0.00    +0.397 N 
ATOM     22  H   UNL     1     -35.662  25.383   2.123  0.00  0.00    -0.083 HD
ATOM     23  H   UNL     1     -36.363  23.953   2.642  0.00  0.00    -0.083 HD
BRANCH  21  24
ATOM     24  C   UNL     1     -37.479  25.611   3.018  0.00  0.00    -0.000 C 
BRANCH  24  26
ATOM     25  O   UNL     1     -38.330  23.347   3.077  0.00  0.00    -0.297 OA
ATOM     26  C   UNL     1     -38.580  24.553   3.104  0.00  0.00    +0.147 C 
BRANCH  26  28
ATOM     27 CL   UNL     1     -40.887  24.911   1.740  0.00  0.00    -0.105 Cl
ATOM     28  C   UNL     1     -39.993  25.082   3.259  0.00  0.00    +0.157 C 
ENDBRANCH  26  28
ENDBRANCH  24  26
BRANCH  24  29
ATOM     29  C   UNL     1     -37.726  26.612   1.880  0.00  0.00    -0.014 C 
BRANCH  29  30
ATOM     30  C   UNL     1     -37.008  26.269   0.567  0.00  0.00    -0.004 C 
BRANCH  30  31
ATOM     31  C   UNL     1     -37.847  25.388  -0.369  0.00  0.00    -0.024 C 
BRANCH  31  32
ATOM     32  C   UNL     1     -37.404  23.927  -0.470  0.00  0.00    -0.086 C 
BRANCH  32  33
ATOM     33  N   UNL     1     -38.447  23.008  -0.032  0.00  0.00    +0.380 N 
ATOM     34  H   UNL     1     -38.949  23.414   0.758  0.00  0.00    -0.089 HD
ATOM     35  H   UNL     1     -38.024  22.124   0.252  0.00  0.00    -0.089 HD
ATOM     36  H   UNL     1     -39.098  22.843  -0.800  0.00  0.00    -0.089 HD
ENDBRANCH  32  33
ENDBRANCH  31  32
ENDBRANCH  30  31
ENDBRANCH  29  30
ENDBRANCH  24  29
ENDBRANCH  21  24
ENDBRANCH   1  21
TORSDOF 14
ENDMDL
MODEL 4
REMARK VINA RESULT:      -5.7      1.750      3.325
REMARK  Name = 191262
REMARK  14 active torsions:
REMARK  status: ('A' for Active; 'I' for Inactive)
REMARK    1  A    between atoms: C_1  and  C_6
REMARK    2  A    between atoms: C_1  and  N_21
REMARK    3  A    between atoms: C_7  and  C_9
REMARK    4  A    between atoms: C_9  and  N_10
REMARK    5  A    between atoms: C_9  and  C_14
REMARK    6  A    between atoms: C_14  and  C_15
REMARK    7  A    between atoms: N_21  and  C_24
REMARK    8  A    between atoms: C_24  and  C_26
REMARK    9  A    between atoms: C_24  and  C_29
REMARK   10  A    between atoms: C_26  and  C_28
REMARK   11  A    between atoms: C_29  and  C_30
REMARK   12  A    between atoms: C_30  and  C_31
REMARK   13  A    between atoms: C_31  and  C_32
REMARK   14  A    between atoms: C_32  and  N_33
REMARK                            x       y       z     vdW  Elec       q    Type
REMARK                         _______ _______ _______ _____ _____    ______ ____
ROOT
ATOM      1  C   UNL     1     -36.423  24.868   4.318  0.00  0.00    +0.018 C 
ATOM      2  C   UNL     1     -36.048  25.947   5.327  0.00  0.00    -0.014 C 
ENDROOT
BRANCH   1   6
ATOM      3  O   UNL     1     -35.394  23.303   5.861  0.00  0.00    -0.277 OA
ATOM      4  O   UNL     1     -35.031  20.732   4.817  0.00  0.00    -0.277 OA
ATOM      5  N   UNL     1     -35.955  22.570   3.721  0.00  0.00    -0.259 N 
ATOM      6  C   UNL     1     -35.859  23.518   4.744  0.00  0.00    +0.208 C 
ATOM      7  C   UNL     1     -35.538  21.241   3.819  0.00  0.00    +0.208 C 
ATOM      8  H   UNL     1     -36.348  22.862   2.867  0.00  0.00    +0.157 HD
BRANCH   7   9
ATOM      9  C   UNL     1     -35.748  20.474   2.514  0.00  0.00    +0.018 C 
BRANCH   9  10
ATOM     10  N   UNL     1     -37.182  20.520   2.217  0.00  0.00    +0.388 N 
ATOM     11  H   UNL     1     -37.501  21.488   2.231  0.00  0.00    -0.089 HD
ATOM     12  H   UNL     1     -37.692  19.984   2.920  0.00  0.00    -0.089 HD
ATOM     13  H   UNL     1     -37.351  20.118   1.296  0.00  0.00    -0.089 HD
ENDBRANCH   9  10
BRANCH   9  14
ATOM     14  C   UNL     1     -34.941  21.102   1.368  0.00  0.00    +0.013 C 
BRANCH  14  15
ATOM     15  C   UNL     1     -33.702  20.312   1.013  0.00  0.00    -0.024 C 
ATOM     16  C   UNL     1     -33.526  19.026   1.524  0.00  0.00    -0.004 C 
ATOM     17  C   UNL     1     -32.738  20.867   0.173  0.00  0.00    -0.004 C 
ATOM     18  C   UNL     1     -32.384  18.295   1.196  0.00  0.00    -0.000 C 
ATOM     19  C   UNL     1     -31.595  20.137  -0.156  0.00  0.00    -0.000 C 
ATOM     20  C   UNL     1     -31.419  18.851   0.355  0.00  0.00    -0.000 C 
ENDBRANCH  14  15
ENDBRANCH   9  14
ENDBRANCH   7   9
ENDBRANCH   1   6
BRANCH   1  21
ATOM     21  N   UNL     1     -37.868  24.741   4.204  0.00  0.00    +0.397 N 
ATOM     22  H   UNL     1     -38.165  23.880   4.663  0.00  0.00    -0.083 HD
ATOM     23  H   UNL     1     -38.305  25.549   4.647  0.00  0.00    -0.083 HD
BRANCH  21  24
ATOM     24  C   UNL     1     -38.274  24.700   2.800  0.00  0.00    -0.000 C 
BRANCH  24  26
ATOM     25  O   UNL     1     -39.714  26.644   2.809  0.00  0.00    -0.297 OA
ATOM     26  C   UNL     1     -38.694  26.107   2.373  0.00  0.00    +0.147 C 
BRANCH  26  28
ATOM     27 CL   UNL     1     -36.689  25.641   0.621  0.00  0.00    -0.105 Cl
ATOM     28  C   UNL     1     -37.760  26.810   1.408  0.00  0.00    +0.157 C 
ENDBRANCH  26  28
ENDBRANCH  24  26
BRANCH  24  29
ATOM     29  C   UNL     1     -39.386  23.667   2.564  0.00  0.00    -0.014 C 
BRANCH  29  30
ATOM     30  C   UNL     1     -39.455  23.127   1.128  0.00  0.00    -0.004 C 
BRANCH  30  31
ATOM     31  C   UNL     1     -40.534  23.809   0.277  0.00  0.00    -0.024 C 
BRANCH  31  32
ATOM     32  C   UNL     1     -41.491  22.864  -0.454  0.00  0.00    -0.086 C 
BRANCH  32  33
ATOM     33  N   UNL     1     -41.305  21.477  -0.047  0.00  0.00    +0.380 N 
ATOM     34  H   UNL     1     -40.368  21.169  -0.305  0.00  0.00    -0.089 HD
ATOM     35  H   UNL     1     -41.997  20.890  -0.516  0.00  0.00    -0.089 HD
ATOM     36  H   UNL     1     -41.423  21.400   0.963  0.00  0.00    -0.089 HD
ENDBRANCH  32  33
ENDBRANCH  31  32
ENDBRANCH  30  31
ENDBRANCH  29  30
ENDBRANCH  24  29
ENDBRANCH  21  24
ENDBRANCH   1  21
TORSDOF 14
ENDMDL
MODEL 5
REMARK VINA RESULT:      -5.6      2.381      3.763
REMARK  Name = 191262
REMARK  14 active torsions:
REMARK  status: ('A' for Active; 'I' for Inactive)
REMARK    1  A    between atoms: C_1  and  C_6
REMARK    2  A    between atoms: C_1  and  N_21
REMARK    3  A    between atoms: C_7  and  C_9
REMARK    4  A    between atoms: C_9  and  N_10
REMARK    5  A    between atoms: C_9  and  C_14
REMARK    6  A    between atoms: C_14  and  C_15
REMARK    7  A    between atoms: N_21  and  C_24
REMARK    8  A    between atoms: C_24  and  C_26
REMARK    9  A    between atoms: C_24  and  C_29
REMARK   10  A    between atoms: C_26  and  C_28
REMARK   11  A    between atoms: C_29  and  C_30
REMARK   12  A    between atoms: C_30  and  C_31
REMARK   13  A    between atoms: C_31  and  C_32
REMARK   14  A    between atoms: C_32  and  N_33
REMARK                            x       y       z     vdW  Elec       q    Type
REMARK                         _______ _______ _______ _____ _____    ______ ____
ROOT
ATOM      1  C   UNL     1     -38.057  25.300   3.265  0.00  0.00    +0.018 C 
ATOM      2  C   UNL     1     -36.967  25.554   2.230  0.00  0.00    -0.014 C 
ENDROOT
BRANCH   1   6
ATOM      3  O   UNL     1     -40.144  24.099   2.969  0.00  0.00    -0.277 OA
ATOM      4  O   UNL     1     -39.858  21.563   1.822  0.00  0.00    -0.277 OA
ATOM      5  N   UNL     1     -38.155  23.076   2.317  0.00  0.00    -0.259 N 
ATOM      6  C   UNL     1     -38.921  24.115   2.852  0.00  0.00    +0.208 C 
ATOM      7  C   UNL     1     -38.666  21.869   1.836  0.00  0.00    +0.208 C 
ATOM      8  H   UNL     1     -37.180  23.205   2.275  0.00  0.00    +0.157 HD
BRANCH   7   9
ATOM      9  C   UNL     1     -37.564  20.928   1.350  0.00  0.00    +0.018 C 
BRANCH   9  10
ATOM     10  N   UNL     1     -38.179  20.010   0.390  0.00  0.00    +0.388 N 
ATOM     11  H   UNL     1     -37.511  19.793  -0.349  0.00  0.00    -0.089 HD
ATOM     12  H   UNL     1     -39.006  20.447  -0.017  0.00  0.00    -0.089 HD
ATOM     13  H   UNL     1     -38.449  19.150   0.867  0.00  0.00    -0.089 HD
ENDBRANCH   9  10
BRANCH   9  14
ATOM     14  C   UNL     1     -36.421  21.713   0.690  0.00  0.00    +0.013 C 
BRANCH  14  15
ATOM     15  C   UNL     1     -35.104  20.973   0.710  0.00  0.00    -0.024 C 
ATOM     16  C   UNL     1     -34.902  19.934   1.620  0.00  0.00    -0.004 C 
ATOM     17  C   UNL     1     -34.092  21.324  -0.182  0.00  0.00    -0.004 C 
ATOM     18  C   UNL     1     -33.687  19.249   1.639  0.00  0.00    -0.000 C 
ATOM     19  C   UNL     1     -32.876  20.640  -0.163  0.00  0.00    -0.000 C 
ATOM     20  C   UNL     1     -32.674  19.602   0.747  0.00  0.00    -0.000 C 
ENDBRANCH  14  15
ENDBRANCH   9  14
ENDBRANCH   7   9
ENDBRANCH   1   6
BRANCH   1  21
ATOM     21  N   UNL     1     -37.481  25.010   4.568  0.00  0.00    +0.397 N 
ATOM     22  H   UNL     1     -37.807  25.705   5.240  0.00  0.00    -0.083 HD
ATOM     23  H   UNL     1     -37.771  24.075   4.855  0.00  0.00    -0.083 HD
BRANCH  21  24
ATOM     24  C   UNL     1     -36.020  25.049   4.510  0.00  0.00    -0.000 C 
BRANCH  24  26
ATOM     25  O   UNL     1     -35.065  23.053   3.531  0.00  0.00    -0.297 OA
ATOM     26  C   UNL     1     -35.492  23.614   4.542  0.00  0.00    +0.147 C 
BRANCH  26  28
ATOM     27 CL   UNL     1     -34.995  21.248   5.751  0.00  0.00    -0.105 Cl
ATOM     28  C   UNL     1     -35.499  22.939   5.899  0.00  0.00    +0.157 C 
ENDBRANCH  26  28
ENDBRANCH  24  26
BRANCH  24  29
ATOM     29  C   UNL     1     -35.432  25.908   5.639  0.00  0.00    -0.014 C 
BRANCH  29  30
ATOM     30  C   UNL     1     -33.922  26.157   5.526  0.00  0.00    -0.004 C 
BRANCH  30  31
ATOM     31  C   UNL     1     -33.529  26.927   4.259  0.00  0.00    -0.024 C 
BRANCH  31  32
ATOM     32  C   UNL     1     -32.454  28.000   4.447  0.00  0.00    -0.086 C 
BRANCH  32  33
ATOM     33  N   UNL     1     -32.358  28.439   5.834  0.00  0.00    +0.380 N 
ATOM     34  H   UNL     1     -31.475  28.119   6.232  0.00  0.00    -0.089 HD
ATOM     35  H   UNL     1     -33.133  28.048   6.369  0.00  0.00    -0.089 HD
ATOM     36  H   UNL     1     -32.399  29.457   5.871  0.00  0.00    -0.089 HD
ENDBRANCH  32  33
ENDBRANCH  31  32
ENDBRANCH  30  31
ENDBRANCH  29  30
ENDBRANCH  24  29
ENDBRANCH  21  24
ENDBRANCH   1  21
TORSDOF 14
ENDMDL
MODEL 6
REMARK VINA RESULT:      -5.6      2.473      3.828
REMARK  Name = 191262
REMARK  14 active torsions:
REMARK  status: ('A' for Active; 'I' for Inactive)
REMARK    1  A    between atoms: C_1  and  C_6
REMARK    2  A    between atoms: C_1  and  N_21
REMARK    3  A    between atoms: C_7  and  C_9
REMARK    4  A    between atoms: C_9  and  N_10
REMARK    5  A    between atoms: C_9  and  C_14
REMARK    6  A    between atoms: C_14  and  C_15
REMARK    7  A    between atoms: N_21  and  C_24
REMARK    8  A    between atoms: C_24  and  C_26
REMARK    9  A    between atoms: C_24  and  C_29
REMARK   10  A    between atoms: C_26  and  C_28
REMARK   11  A    between atoms: C_29  and  C_30
REMARK   12  A    between atoms: C_30  and  C_31
REMARK   13  A    between atoms: C_31  and  C_32
REMARK   14  A    between atoms: C_32  and  N_33
REMARK                            x       y       z     vdW  Elec       q    Type
REMARK                         _______ _______ _______ _____ _____    ______ ____
ROOT
ATOM      1  C   UNL     1     -35.258  23.406   4.993  0.00  0.00    +0.018 C 
ATOM      2  C   UNL     1     -35.232  22.585   6.276  0.00  0.00    -0.014 C 
ENDROOT
BRANCH   1   6
ATOM      3  O   UNL     1     -37.439  23.324   3.932  0.00  0.00    -0.277 OA
ATOM      4  O   UNL     1     -37.689  21.342   1.973  0.00  0.00    -0.277 OA
ATOM      5  N   UNL     1     -35.807  21.797   3.272  0.00  0.00    -0.259 N 
ATOM      6  C   UNL     1     -36.305  22.861   4.029  0.00  0.00    +0.208 C 
ATOM      7  C   UNL     1     -36.525  21.105   2.294  0.00  0.00    +0.208 C 
ATOM      8  H   UNL     1     -34.880  21.514   3.440  0.00  0.00    +0.157 HD
BRANCH   7   9
ATOM      9  C   UNL     1     -35.709  19.972   1.673  0.00  0.00    +0.018 C 
BRANCH   9  10
ATOM     10  N   UNL     1     -36.661  19.056   1.041  0.00  0.00    +0.388 N 
ATOM     11  H   UNL     1     -36.474  19.009   0.040  0.00  0.00    -0.089 HD
ATOM     12  H   UNL     1     -37.611  19.394   1.195  0.00  0.00    -0.089 HD
ATOM     13  H   UNL     1     -36.561  18.127   1.449  0.00  0.00    -0.089 HD
ENDBRANCH   9  10
BRANCH   9  14
ATOM     14  C   UNL     1     -34.712  20.513   0.637  0.00  0.00    +0.013 C 
BRANCH  14  15
ATOM     15  C   UNL     1     -33.382  19.797   0.662  0.00  0.00    -0.024 C 
ATOM     16  C   UNL     1     -32.287  20.336  -0.014  0.00  0.00    -0.004 C 
ATOM     17  C   UNL     1     -33.248  18.600   1.363  0.00  0.00    -0.004 C 
ATOM     18  C   UNL     1     -31.058  19.677   0.011  0.00  0.00    -0.000 C 
ATOM     19  C   UNL     1     -32.019  17.940   1.388  0.00  0.00    -0.000 C 
ATOM     20  C   UNL     1     -30.924  18.479   0.712  0.00  0.00    -0.000 C 
ENDBRANCH  14  15
ENDBRANCH   9  14
ENDBRANCH   7   9
ENDBRANCH   1   6
BRANCH   1  21
ATOM     21  N   UNL     1     -35.578  24.797   5.271  0.00  0.00    +0.397 N 
ATOM     22  H   UNL     1     -36.591  24.916   5.263  0.00  0.00    -0.083 HD
ATOM     23  H   UNL     1     -35.198  25.045   6.185  0.00  0.00    -0.083 HD
BRANCH  21  24
ATOM     24  C   UNL     1     -34.985  25.676   4.264  0.00  0.00    -0.000 C 
BRANCH  24  26
ATOM     25  O   UNL     1     -33.756  26.590   6.136  0.00  0.00    -0.297 OA
ATOM     26  C   UNL     1     -33.848  26.465   4.914  0.00  0.00    +0.147 C 
BRANCH  26  28
ATOM     27 CL   UNL     1     -33.109  28.788   3.743  0.00  0.00    -0.105 Cl
ATOM     28  C   UNL     1     -32.825  27.054   3.962  0.00  0.00    +0.157 C 
ENDBRANCH  26  28
ENDBRANCH  24  26
BRANCH  24  29
ATOM     29  C   UNL     1     -36.038  26.596   3.627  0.00  0.00    -0.014 C 
BRANCH  29  30
ATOM     30  C   UNL     1     -36.468  26.183   2.212  0.00  0.00    -0.004 C 
BRANCH  30  31
ATOM     31  C   UNL     1     -37.971  26.365   1.960  0.00  0.00    -0.024 C 
BRANCH  31  32
ATOM     32  C   UNL     1     -38.570  25.462   0.879  0.00  0.00    -0.086 C 
BRANCH  32  33
ATOM     33  N   UNL     1     -38.072  24.095   0.971  0.00  0.00    +0.380 N 
ATOM     34  H   UNL     1     -38.812  23.445   0.706  0.00  0.00    -0.089 HD
ATOM     35  H   UNL     1     -37.780  23.904   1.930  0.00  0.00    -0.089 HD
ATOM     36  H   UNL     1     -37.277  23.980   0.344  0.00  0.00    -0.089 HD
ENDBRANCH  32  33
ENDBRANCH  31  32
ENDBRANCH  30  31
ENDBRANCH  29  30
ENDBRANCH  24  29
ENDBRANCH  21  24
ENDBRANCH   1  21
TORSDOF 14
ENDMDL
MODEL 7
REMARK VINA RESULT:      -5.6      2.695      4.486
REMARK  Name = 191262
REMARK  14 active torsions:
REMARK  status: ('A' for Active; 'I' for Inactive)
REMARK    1  A    between atoms: C_1  and  C_6
REMARK    2  A    between atoms: C_1  and  N_21
REMARK    3  A    between atoms: C_7  and  C_9
REMARK    4  A    between atoms: C_9  and  N_10
REMARK    5  A    between atoms: C_9  and  C_14
REMARK    6  A    between atoms: C_14  and  C_15
REMARK    7  A    between atoms: N_21  and  C_24
REMARK    8  A    between atoms: C_24  and  C_26
REMARK    9  A    between atoms: C_24  and  C_29
REMARK   10  A    between atoms: C_26  and  C_28
REMARK   11  A    between atoms: C_29  and  C_30
REMARK   12  A    between atoms: C_30  and  C_31
REMARK   13  A    between atoms: C_31  and  C_32
REMARK   14  A    between atoms: C_32  and  N_33
REMARK                            x       y       z     vdW  Elec       q    Type
REMARK                         _______ _______ _______ _____ _____    ______ ____
ROOT
ATOM      1  C   UNL     1     -34.117  25.319   1.459  0.00  0.00    +0.018 C 
ATOM      2  C   UNL     1     -33.465  24.600   0.284  0.00  0.00    -0.014 C 
ENDROOT
BRANCH   1   6
ATOM      3  O   UNL     1     -36.399  25.134   2.264  0.00  0.00    -0.277 OA
ATOM      4  O   UNL     1     -37.284  22.503   2.614  0.00  0.00    -0.277 OA
ATOM      5  N   UNL     1     -35.179  23.186   1.882  0.00  0.00    -0.259 N 
ATOM      6  C   UNL     1     -35.363  24.571   1.920  0.00  0.00    +0.208 C 
ATOM      7  C   UNL     1     -36.146  22.240   2.229  0.00  0.00    +0.208 C 
ATOM      8  H   UNL     1     -34.301  22.852   1.587  0.00  0.00    +0.157 HD
BRANCH   7   9
ATOM      9  C   UNL     1     -35.620  20.809   2.114  0.00  0.00    +0.018 C 
BRANCH   9  10
ATOM     10  N   UNL     1     -36.734  19.917   2.443  0.00  0.00    +0.388 N 
ATOM     11  H   UNL     1     -37.585  20.257   1.997  0.00  0.00    -0.089 HD
ATOM     12  H   UNL     1     -36.865  19.896   3.454  0.00  0.00    -0.089 HD
ATOM     13  H   UNL     1     -36.526  18.977   2.108  0.00  0.00    -0.089 HD
ENDBRANCH   9  10
BRANCH   9  14
ATOM     14  C   UNL     1     -35.103  20.525   0.695  0.00  0.00    +0.013 C 
BRANCH  14  15
ATOM     15  C   UNL     1     -33.720  19.914   0.680  0.00  0.00    -0.024 C 
ATOM     16  C   UNL     1     -33.487  18.702   1.329  0.00  0.00    -0.004 C 
ATOM     17  C   UNL     1     -32.679  20.561   0.015  0.00  0.00    -0.004 C 
ATOM     18  C   UNL     1     -32.212  18.137   1.315  0.00  0.00    -0.000 C 
ATOM     19  C   UNL     1     -31.404  19.996   0.000  0.00  0.00    -0.000 C 
ATOM     20  C   UNL     1     -31.170  18.784   0.650  0.00  0.00    -0.000 C 
ENDBRANCH  14  15
ENDBRANCH   9  14
ENDBRANCH   7   9
ENDBRANCH   1   6
BRANCH   1  21
ATOM     21  N   UNL     1     -33.202  25.414   2.585  0.00  0.00    +0.397 N 
ATOM     22  H   UNL     1     -33.136  24.504   3.041  0.00  0.00    -0.083 HD
ATOM     23  H   UNL     1     -32.287  25.706   2.241  0.00  0.00    -0.083 HD
BRANCH  21  24
ATOM     24  C   UNL     1     -33.674  26.402   3.554  0.00  0.00    -0.000 C 
BRANCH  24  26
ATOM     25  O   UNL     1     -31.517  27.461   3.838  0.00  0.00    -0.297 OA
ATOM     26  C   UNL     1     -32.709  27.588   3.551  0.00  0.00    +0.147 C 
BRANCH  26  28
ATOM     27 CL   UNL     1     -34.999  28.725   2.671  0.00  0.00    -0.105 Cl
ATOM     28  C   UNL     1     -33.303  28.921   3.141  0.00  0.00    +0.157 C 
ENDBRANCH  26  28
ENDBRANCH  24  26
BRANCH  24  29
ATOM     29  C   UNL     1     -33.834  25.789   4.954  0.00  0.00    -0.014 C 
BRANCH  29  30
ATOM     30  C   UNL     1     -35.240  25.934   5.552  0.00  0.00    -0.004 C 
BRANCH  30  31
ATOM     31  C   UNL     1     -36.028  24.617   5.570  0.00  0.00    -0.024 C 
BRANCH  31  32
ATOM     32  C   UNL     1     -35.183  23.345   5.667  0.00  0.00    -0.086 C 
BRANCH  32  33
ATOM     33  N   UNL     1     -36.001  22.140   5.633  0.00  0.00    +0.380 N 
ATOM     34  H   UNL     1     -36.501  22.042   6.516  0.00  0.00    -0.089 HD
ATOM     35  H   UNL     1     -35.403  21.327   5.488  0.00  0.00    -0.089 HD
ATOM     36  H   UNL     1     -36.673  22.208   4.868  0.00  0.00    -0.089 HD
ENDBRANCH  32  33
ENDBRANCH  31  32
ENDBRANCH  30  31
ENDBRANCH  29  30
ENDBRANCH  24  29
ENDBRANCH  21  24
ENDBRANCH   1  21
TORSDOF 14
ENDMDL
MODEL 8
REMARK VINA RESULT:      -5.5      2.851      3.941
REMARK  Name = 191262
REMARK  14 active torsions:
REMARK  status: ('A' for Active; 'I' for Inactive)
REMARK    1  A    between atoms: C_1  and  C_6
REMARK    2  A    between atoms: C_1  and  N_21
REMARK    3  A    between atoms: C_7  and  C_9
REMARK    4  A    between atoms: C_9  and  N_10
REMARK    5  A    between atoms: C_9  and  C_14
REMARK    6  A    between atoms: C_14  and  C_15
REMARK    7  A    between atoms: N_21  and  C_24
REMARK    8  A    between atoms: C_24  and  C_26
REMARK    9  A    between atoms: C_24  and  C_29
REMARK   10  A    between atoms: C_26  and  C_28
REMARK   11  A    between atoms: C_29  and  C_30
REMARK   12  A    between atoms: C_30  and  C_31
REMARK   13  A    between atoms: C_31  and  C_32
REMARK   14  A    between atoms: C_32  and  N_33
REMARK                            x       y       z     vdW  Elec       q    Type
REMARK                         _______ _______ _______ _____ _____    ______ ____
ROOT
ATOM      1  C   UNL     1     -36.302  24.953   3.033  0.00  0.00    +0.018 C 
ATOM      2  C   UNL     1     -37.002  24.541   1.744  0.00  0.00    -0.014 C 
ENDROOT
BRANCH   1   6
ATOM      3  O   UNL     1     -35.928  23.774   5.120  0.00  0.00    -0.277 OA
ATOM      4  O   UNL     1     -35.448  21.033   4.820  0.00  0.00    -0.277 OA
ATOM      5  N   UNL     1     -35.842  22.580   3.121  0.00  0.00    -0.259 N 
ATOM      6  C   UNL     1     -36.001  23.732   3.894  0.00  0.00    +0.208 C 
ATOM      7  C   UNL     1     -35.576  21.305   3.627  0.00  0.00    +0.208 C 
ATOM      8  H   UNL     1     -35.923  22.672   2.144  0.00  0.00    +0.157 HD
BRANCH   7   9
ATOM      9  C   UNL     1     -35.422  20.265   2.518  0.00  0.00    +0.018 C 
BRANCH   9  10
ATOM     10  N   UNL     1     -36.771  19.832   2.148  0.00  0.00    +0.388 N 
ATOM     11  H   UNL     1     -37.414  20.031   2.914  0.00  0.00    -0.089 HD
ATOM     12  H   UNL     1     -36.767  18.830   1.959  0.00  0.00    -0.089 HD
ATOM     13  H   UNL     1     -37.072  20.334   1.313  0.00  0.00    -0.089 HD
ENDBRANCH   9  10
BRANCH   9  14
ATOM     14  C   UNL     1     -34.693  20.858   1.303  0.00  0.00    +0.013 C 
BRANCH  14  15
ATOM     15  C   UNL     1     -33.421  20.119   0.956  0.00  0.00    -0.024 C 
ATOM     16  C   UNL     1     -33.198  18.839   1.463  0.00  0.00    -0.004 C 
ATOM     17  C   UNL     1     -32.472  20.716   0.127  0.00  0.00    -0.004 C 
ATOM     18  C   UNL     1     -32.025  18.156   1.143  0.00  0.00    -0.000 C 
ATOM     19  C   UNL     1     -31.298  20.034  -0.193  0.00  0.00    -0.000 C 
ATOM     20  C   UNL     1     -31.075  18.753   0.314  0.00  0.00    -0.000 C 
ENDBRANCH  14  15
ENDBRANCH   9  14
ENDBRANCH   7   9
ENDBRANCH   1   6
BRANCH   1  21
ATOM     21  N   UNL     1     -35.046  25.630   2.750  0.00  0.00    +0.397 N 
ATOM     22  H   UNL     1     -34.279  24.964   2.843  0.00  0.00    -0.083 HD
ATOM     23  H   UNL     1     -35.079  26.002   1.800  0.00  0.00    -0.083 HD
BRANCH  21  24
ATOM     24  C   UNL     1     -34.833  26.738   3.680  0.00  0.00    -0.000 C 
BRANCH  24  26
ATOM     25  O   UNL     1     -35.776  28.504   2.322  0.00  0.00    -0.297 OA
ATOM     26  C   UNL     1     -34.780  28.041   2.881  0.00  0.00    +0.147 C 
BRANCH  26  28
ATOM     27 CL   UNL     1     -33.578  30.383   3.498  0.00  0.00    -0.105 Cl
ATOM     28  C   UNL     1     -33.436  28.742   2.849  0.00  0.00    +0.157 C 
ENDBRANCH  26  28
ENDBRANCH  24  26
BRANCH  24  29
ATOM     29  C   UNL     1     -33.571  26.528   4.530  0.00  0.00    -0.014 C 
BRANCH  29  30
ATOM     30  C   UNL     1     -33.839  26.360   6.032  0.00  0.00    -0.004 C 
BRANCH  30  31
ATOM     31  C   UNL     1     -32.811  27.082   6.914  0.00  0.00    -0.024 C 
BRANCH  31  32
ATOM     32  C   UNL     1     -32.001  28.178   6.217  0.00  0.00    -0.086 C 
BRANCH  32  33
ATOM     33  N   UNL     1     -30.600  28.163   6.621  0.00  0.00    +0.380 N 
ATOM     34  H   UNL     1     -30.202  29.094   6.505  0.00  0.00    -0.089 HD
ATOM     35  H   UNL     1     -30.087  27.498   6.042  0.00  0.00    -0.089 HD
ATOM     36  H   UNL     1     -30.532  27.883   7.600  0.00  0.00    -0.089 HD
ENDBRANCH  32  33
ENDBRANCH  31  32
ENDBRANCH  30  31
ENDBRANCH  29  30
ENDBRANCH  24  29
ENDBRANCH  21  24
ENDBRANCH   1  21
TORSDOF 14
ENDMDL
MODEL 9
REMARK VINA RESULT:      -5.4      5.035      9.900
REMARK  Name = 191262
REMARK  14 active torsions:
REMARK  status: ('A' for Active; 'I' for Inactive)
REMARK    1  A    between atoms: C_1  and  C_6
REMARK    2  A    between atoms: C_1  and  N_21
REMARK    3  A    between atoms: C_7  and  C_9
REMARK    4  A    between atoms: C_9  and  N_10
REMARK    5  A    between atoms: C_9  and  C_14
REMARK    6  A    between atoms: C_14  and  C_15
REMARK    7  A    between atoms: N_21  and  C_24
REMARK    8  A    between atoms: C_24  and  C_26
REMARK    9  A    between atoms: C_24  and  C_29
REMARK   10  A    between atoms: C_26  and  C_28
REMARK   11  A    between atoms: C_29  and  C_30
REMARK   12  A    between atoms: C_30  and  C_31
REMARK   13  A    between atoms: C_31  and  C_32
REMARK   14  A    between atoms: C_32  and  N_33
REMARK                            x       y       z     vdW  Elec       q    Type
REMARK                         _______ _______ _______ _____ _____    ______ ____
ROOT
ATOM      1  C   UNL     1     -35.478  27.229   2.627  0.00  0.00    +0.018 C 
ATOM      2  C   UNL     1     -36.477  27.044   1.491  0.00  0.00    -0.014 C 
ENDROOT
BRANCH   1   6
ATOM      3  O   UNL     1     -34.240  29.102   3.548  0.00  0.00    -0.277 OA
ATOM      4  O   UNL     1     -35.024  31.597   2.553  0.00  0.00    -0.277 OA
ATOM      5  N   UNL     1     -35.921  29.521   1.989  0.00  0.00    -0.259 N 
ATOM      6  C   UNL     1     -35.127  28.703   2.797  0.00  0.00    +0.208 C 
ATOM      7  C   UNL     1     -35.822  30.912   1.915  0.00  0.00    +0.208 C 
ATOM      8  H   UNL     1     -36.601  29.083   1.429  0.00  0.00    +0.157 HD
BRANCH   7   9
ATOM      9  C   UNL     1     -36.857  31.514   0.965  0.00  0.00    +0.018 C 
BRANCH   9  10
ATOM     10  N   UNL     1     -37.494  30.397   0.265  0.00  0.00    +0.388 N 
ATOM     11  H   UNL     1     -38.412  30.221   0.670  0.00  0.00    -0.089 HD
ATOM     12  H   UNL     1     -36.916  29.562   0.359  0.00  0.00    -0.089 HD
ATOM     13  H   UNL     1     -37.597  30.630  -0.723  0.00  0.00    -0.089 HD
ENDBRANCH   9  10
BRANCH   9  14
ATOM     14  C   UNL     1     -37.902  32.334   1.736  0.00  0.00    +0.013 C 
BRANCH  14  15
ATOM     15  C   UNL     1     -37.785  33.821   1.495  0.00  0.00    -0.024 C 
ATOM     16  C   UNL     1     -38.678  34.700   2.109  0.00  0.00    -0.004 C 
ATOM     17  C   UNL     1     -36.782  34.316   0.662  0.00  0.00    -0.004 C 
ATOM     18  C   UNL     1     -38.570  36.072   1.888  0.00  0.00    -0.000 C 
ATOM     19  C   UNL     1     -36.673  35.689   0.440  0.00  0.00    -0.000 C 
ATOM     20  C   UNL     1     -37.566  36.567   1.054  0.00  0.00    -0.000 C 
ENDBRANCH  14  15
ENDBRANCH   9  14
ENDBRANCH   7   9
ENDBRANCH   1   6
BRANCH   1  21
ATOM     21  N   UNL     1     -36.022  26.743   3.885  0.00  0.00    +0.397 N 
ATOM     22  H   UNL     1     -36.029  27.505   4.563  0.00  0.00    -0.083 HD
ATOM     23  H   UNL     1     -36.971  26.404   3.723  0.00  0.00    -0.083 HD
BRANCH  21  24
ATOM     24  C   UNL     1     -35.214  25.643   4.409  0.00  0.00    -0.000 C 
BRANCH  24  26
ATOM     25  O   UNL     1     -37.334  24.485   4.543  0.00  0.00    -0.297 OA
ATOM     26  C   UNL     1     -36.104  24.407   4.547  0.00  0.00    +0.147 C 
BRANCH  26  28
ATOM     27 CL   UNL     1     -35.540  22.421   6.293  0.00  0.00    -0.105 Cl
ATOM     28  C   UNL     1     -35.379  23.080   4.657  0.00  0.00    +0.157 C 
ENDBRANCH  26  28
ENDBRANCH  24  26
BRANCH  24  29
ATOM     29  C   UNL     1     -34.536  26.021   5.734  0.00  0.00    -0.014 C 
BRANCH  29  30
ATOM     30  C   UNL     1     -33.133  26.623   5.580  0.00  0.00    -0.004 C 
BRANCH  30  31
ATOM     31  C   UNL     1     -32.652  27.367   6.833  0.00  0.00    -0.024 C 
BRANCH  31  32
ATOM     32  C   UNL     1     -31.829  28.631   6.573  0.00  0.00    -0.086 C 
BRANCH  32  33
ATOM     33  N   UNL     1     -31.603  29.396   7.792  0.00  0.00    +0.380 N 
ATOM     34  H   UNL     1     -32.006  28.900   8.586  0.00  0.00    -0.089 HD
ATOM     35  H   UNL     1     -32.044  30.312   7.705  0.00  0.00    -0.089 HD
ATOM     36  H   UNL     1     -30.601  29.514   7.938  0.00  0.00    -0.089 HD
ENDBRANCH  32  33
ENDBRANCH  31  32
ENDBRANCH  30  31
ENDBRANCH  29  30
ENDBRANCH  24  29
ENDBRANCH  21  24
ENDBRANCH   1  21
TORSDOF 14
ENDMDL
