MODEL 1
REMARK VINA RESULT:      -7.1      0.000      0.000
REMARK  Name = 54678401
REMARK  6 active torsions:
REMARK  status: ('A' for Active; 'I' for Inactive)
REMARK    1  A    between atoms: C_4  and  O_31
REMARK    2  A    between atoms: C_5  and  N_27
REMARK    3  A    between atoms: C_9  and  O_33
REMARK    4  A    between atoms: C_12  and  C_24
REMARK    5  A    between atoms: C_14  and  O_35
REMARK    6  A    between atoms: C_19  and  O_37
REMARK                            x       y       z     vdW  Elec       q    Type
REMARK                         _______ _______ _______ _____ _____    ______ ____
ROOT
ATOM      1  O   UNL     1     -36.323  25.359   5.749  0.00  0.00    -0.288 OA
ATOM      2  O   UNL     1     -37.098  21.899   0.290  0.00  0.00    -0.293 OA
ATOM      3  C   UNL     1     -36.767  24.991   2.162  0.00  0.00    +0.031 C 
ATOM      4  C   UNL     1     -36.830  24.407   3.583  0.00  0.00    +0.192 C 
ATOM      5  C   UNL     1     -37.572  24.073   1.223  0.00  0.00    +0.009 C 
ATOM      6  C   UNL     1     -35.310  25.193   1.697  0.00  0.00    +0.028 C 
ATOM      7  C   UNL     1     -34.460  25.902   2.715  0.00  0.00    -0.020 A 
ATOM      8  C   UNL     1     -36.006  25.245   4.566  0.00  0.00    +0.206 C 
ATOM      9  C   UNL     1     -36.441  22.943   3.643  0.00  0.00    +0.149 C 
ATOM     10  C   UNL     1     -34.778  25.917   4.073  0.00  0.00    +0.067 A 
ATOM     11  C   UNL     1     -37.043  22.645   1.268  0.00  0.00    +0.161 C 
ATOM     12  C   UNL     1     -36.499  22.122   2.571  0.00  0.00    +0.118 C 
ATOM     13  C   UNL     1     -33.278  26.531   2.288  0.00  0.00    -0.025 A 
ATOM     14  C   UNL     1     -33.944  26.573   4.990  0.00  0.00    +0.139 A 
ATOM     15  C   UNL     1     -32.430  27.192   3.192  0.00  0.00    +0.002 A 
ATOM     16  C   UNL     1     -32.770  27.214   4.563  0.00  0.00    +0.067 A 
ATOM     17  C   UNL     1     -32.911  26.480   0.831  0.00  0.00    +0.031 C 
ATOM     18  C   UNL     1     -31.255  27.830   2.765  0.00  0.00    -0.000 C 
ATOM     19  C   UNL     1     -31.924  27.875   5.469  0.00  0.00    +0.136 C 
ATOM     20  C   UNL     1     -30.425  28.482   3.677  0.00  0.00    +0.003 C 
ATOM     21  C   UNL     1     -30.760  28.505   5.028  0.00  0.00    +0.037 C 
ENDROOT
BRANCH  12  24
ATOM     22  O   UNL     1     -34.948  20.423   3.095  0.00  0.00    -0.270 OA
ATOM     23  N   UNL     1     -36.988  19.827   2.190  0.00  0.00    -0.325 N 
ATOM     24  C   UNL     1     -36.053  20.720   2.652  0.00  0.00    +0.248 C 
ATOM     25  H   UNL     1     -36.793  18.862   2.199  0.00  0.00    +0.145 HD
ATOM     26  H   UNL     1     -37.852  20.151   1.850  0.00  0.00    +0.145 HD
ENDBRANCH  12  24
BRANCH   5  27
ATOM     27  N   UNL     1     -37.572  24.526  -0.167  0.00  0.00    +0.390 N 
ATOM     28  C   UNL     1     -37.526  25.987  -0.229  0.00  0.00    -0.100 C 
ATOM     29  C   UNL     1     -38.753  24.022  -0.869  0.00  0.00    -0.100 C 
ATOM     30  H   UNL     1     -36.740  24.157  -0.627  0.00  0.00    -0.079 HD
ENDBRANCH   5  27
BRANCH   4  31
ATOM     31  O   UNL     1     -38.175  24.486   4.073  0.00  0.00    -0.373 OA
ATOM     32  H   UNL     1     -38.249  25.227   4.695  0.00  0.00    +0.211 HD
ENDBRANCH   4  31
BRANCH   9  33
ATOM     33  O   UNL     1     -36.041  22.536   4.904  0.00  0.00    -0.507 OA
ATOM     34  H   UNL     1     -36.656  22.132   5.484  0.00  0.00    +0.292 HD
ENDBRANCH   9  33
BRANCH  14  35
ATOM     35  O   UNL     1     -34.269  26.576   6.318  0.00  0.00    -0.505 OA
ATOM     36  H   UNL     1     -33.592  26.561   6.967  0.00  0.00    +0.292 HD
ENDBRANCH  14  35
BRANCH  19  37
ATOM     37  O   UNL     1     -32.175  27.947   6.810  0.00  0.00    -0.505 OA
ATOM     38  H   UNL     1     -32.230  27.162   7.318  0.00  0.00    +0.292 HD
ENDBRANCH  19  37
TORSDOF 6
ENDMDL
MODEL 2
REMARK VINA RESULT:      -6.8      2.869      6.560
REMARK  Name = 54678401
REMARK  6 active torsions:
REMARK  status: ('A' for Active; 'I' for Inactive)
REMARK    1  A    between atoms: C_4  and  O_31
REMARK    2  A    between atoms: C_5  and  N_27
REMARK    3  A    between atoms: C_9  and  O_33
REMARK    4  A    between atoms: C_12  and  C_24
REMARK    5  A    between atoms: C_14  and  O_35
REMARK    6  A    between atoms: C_19  and  O_37
REMARK                            x       y       z     vdW  Elec       q    Type
REMARK                         _______ _______ _______ _____ _____    ______ ____
ROOT
ATOM      1  O   UNL     1     -36.950  24.613   4.299  0.00  0.00    -0.288 OA
ATOM      2  O   UNL     1     -34.476  29.555   0.858  0.00  0.00    -0.293 OA
ATOM      3  C   UNL     1     -34.226  26.518   2.831  0.00  0.00    +0.031 C 
ATOM      4  C   UNL     1     -35.695  26.410   3.274  0.00  0.00    +0.192 C 
ATOM      5  C   UNL     1     -33.892  28.006   2.614  0.00  0.00    +0.009 C 
ATOM      6  C   UNL     1     -33.946  25.653   1.585  0.00  0.00    +0.028 C 
ATOM      7  C   UNL     1     -34.471  24.250   1.711  0.00  0.00    -0.020 A 
ATOM      8  C   UNL     1     -36.113  24.949   3.461  0.00  0.00    +0.206 C 
ATOM      9  C   UNL     1     -36.650  27.146   2.353  0.00  0.00    +0.149 C 
ATOM     10  C   UNL     1     -35.504  23.916   2.586  0.00  0.00    +0.067 A 
ATOM     11  C   UNL     1     -34.833  28.636   1.595  0.00  0.00    +0.161 C 
ATOM     12  C   UNL     1     -36.259  28.154   1.543  0.00  0.00    +0.118 C 
ATOM     13  C   UNL     1     -33.933  23.250   0.884  0.00  0.00    -0.025 A 
ATOM     14  C   UNL     1     -35.977  22.598   2.655  0.00  0.00    +0.139 A 
ATOM     15  C   UNL     1     -34.395  21.925   0.938  0.00  0.00    +0.002 A 
ATOM     16  C   UNL     1     -35.431  21.594   1.838  0.00  0.00    +0.067 A 
ATOM     17  C   UNL     1     -32.848  23.617  -0.091  0.00  0.00    +0.031 C 
ATOM     18  C   UNL     1     -33.850  20.923   0.119  0.00  0.00    -0.000 C 
ATOM     19  C   UNL     1     -35.894  20.269   1.896  0.00  0.00    +0.136 C 
ATOM     20  C   UNL     1     -34.321  19.611   0.188  0.00  0.00    +0.003 C 
ATOM     21  C   UNL     1     -35.342  19.285   1.075  0.00  0.00    +0.037 C 
ENDROOT
BRANCH  12  24
ATOM     22  O   UNL     1     -37.611  29.943   0.810  0.00  0.00    -0.270 OA
ATOM     23  N   UNL     1     -37.551  28.007  -0.448  0.00  0.00    -0.325 N 
ATOM     24  C   UNL     1     -37.203  28.803   0.615  0.00  0.00    +0.248 C 
ATOM     25  H   UNL     1     -38.177  28.343  -1.129  0.00  0.00    +0.145 HD
ATOM     26  H   UNL     1     -37.175  27.101  -0.527  0.00  0.00    +0.145 HD
ENDBRANCH  12  24
BRANCH   5  27
ATOM     27  N   UNL     1     -32.515  28.231   2.176  0.00  0.00    +0.390 N 
ATOM     28  C   UNL     1     -31.626  27.215   2.742  0.00  0.00    -0.100 C 
ATOM     29  C   UNL     1     -32.068  29.570   2.560  0.00  0.00    -0.100 C 
ATOM     30  H   UNL     1     -32.483  28.157   1.160  0.00  0.00    -0.079 HD
ENDBRANCH   5  27
BRANCH   4  31
ATOM     31  O   UNL     1     -35.848  27.004   4.569  0.00  0.00    -0.373 OA
ATOM     32  H   UNL     1     -35.757  26.320   5.251  0.00  0.00    +0.211 HD
ENDBRANCH   4  31
BRANCH   9  33
ATOM     33  O   UNL     1     -37.954  26.690   2.444  0.00  0.00    -0.507 OA
ATOM     34  H   UNL     1     -38.526  26.755   1.705  0.00  0.00    +0.292 HD
ENDBRANCH   9  33
BRANCH  14  35
ATOM     35  O   UNL     1     -36.993  22.287   3.517  0.00  0.00    -0.505 OA
ATOM     36  H   UNL     1     -37.692  22.896   3.656  0.00  0.00    +0.292 HD
ENDBRANCH  14  35
BRANCH  19  37
ATOM     37  O   UNL     1     -36.891  19.861   2.736  0.00  0.00    -0.505 OA
ATOM     38  H   UNL     1     -36.965  18.956   2.967  0.00  0.00    +0.292 HD
ENDBRANCH  19  37
TORSDOF 6
ENDMDL
MODEL 3
REMARK VINA RESULT:      -6.7      3.218      7.659
REMARK  Name = 54678401
REMARK  6 active torsions:
REMARK  status: ('A' for Active; 'I' for Inactive)
REMARK    1  A    between atoms: C_4  and  O_31
REMARK    2  A    between atoms: C_5  and  N_27
REMARK    3  A    between atoms: C_9  and  O_33
REMARK    4  A    between atoms: C_12  and  C_24
REMARK    5  A    between atoms: C_14  and  O_35
REMARK    6  A    between atoms: C_19  and  O_37
REMARK                            x       y       z     vdW  Elec       q    Type
REMARK                         _______ _______ _______ _____ _____    ______ ____
ROOT
ATOM      1  O   UNL     1     -40.277  23.518   2.199  0.00  0.00    -0.288 OA
ATOM      2  O   UNL     1     -34.926  27.034   3.374  0.00  0.00    -0.293 OA
ATOM      3  C   UNL     1     -36.978  24.050   3.624  0.00  0.00    +0.031 C 
ATOM      4  C   UNL     1     -38.267  24.605   2.996  0.00  0.00    +0.192 C 
ATOM      5  C   UNL     1     -36.221  25.215   4.289  0.00  0.00    +0.009 C 
ATOM      6  C   UNL     1     -36.122  23.295   2.587  0.00  0.00    +0.028 C 
ATOM      7  C   UNL     1     -36.913  22.303   1.779  0.00  0.00    -0.020 A 
ATOM      8  C   UNL     1     -39.049  23.505   2.270  0.00  0.00    +0.206 C 
ATOM      9  C   UNL     1     -38.024  25.798   2.093  0.00  0.00    +0.149 C 
ATOM     10  C   UNL     1     -38.294  22.408   1.615  0.00  0.00    +0.067 A 
ATOM     11  C   UNL     1     -35.925  26.321   3.283  0.00  0.00    +0.161 C 
ATOM     12  C   UNL     1     -36.926  26.581   2.189  0.00  0.00    +0.118 C 
ATOM     13  C   UNL     1     -36.230  21.263   1.128  0.00  0.00    -0.025 A 
ATOM     14  C   UNL     1     -38.989  21.472   0.835  0.00  0.00    +0.139 A 
ATOM     15  C   UNL     1     -36.908  20.318   0.341  0.00  0.00    +0.002 A 
ATOM     16  C   UNL     1     -38.308  20.424   0.194  0.00  0.00    +0.067 A 
ATOM     17  C   UNL     1     -34.735  21.174   1.268  0.00  0.00    +0.031 C 
ATOM     18  C   UNL     1     -36.226  19.272  -0.302  0.00  0.00    -0.000 C 
ATOM     19  C   UNL     1     -38.990  19.479  -0.591  0.00  0.00    +0.136 C 
ATOM     20  C   UNL     1     -36.918  18.342  -1.078  0.00  0.00    +0.003 C 
ATOM     21  C   UNL     1     -38.298  18.445  -1.222  0.00  0.00    +0.037 C 
ENDROOT
BRANCH  12  24
ATOM     22  O   UNL     1     -37.523  28.585   1.095  0.00  0.00    -0.270 OA
ATOM     23  N   UNL     1     -35.483  27.617   0.609  0.00  0.00    -0.325 N 
ATOM     24  C   UNL     1     -36.693  27.695   1.253  0.00  0.00    +0.248 C 
ATOM     25  H   UNL     1     -35.225  28.311  -0.039  0.00  0.00    +0.145 HD
ATOM     26  H   UNL     1     -34.875  26.866   0.796  0.00  0.00    +0.145 HD
ENDBRANCH  12  24
BRANCH   5  27
ATOM     27  N   UNL     1     -34.964  24.806   4.914  0.00  0.00    +0.390 N 
ATOM     28  C   UNL     1     -35.122  23.514   5.582  0.00  0.00    -0.100 C 
ATOM     29  C   UNL     1     -34.512  25.821   5.866  0.00  0.00    -0.100 C 
ATOM     30  H   UNL     1     -34.258  24.707   4.185  0.00  0.00    -0.079 HD
ENDBRANCH   5  27
BRANCH   4  31
ATOM     31  O   UNL     1     -39.148  25.057   4.031  0.00  0.00    -0.373 OA
ATOM     32  H   UNL     1     -39.175  24.398   4.743  0.00  0.00    +0.211 HD
ENDBRANCH   4  31
BRANCH   9  33
ATOM     33  O   UNL     1     -39.043  26.009   1.180  0.00  0.00    -0.507 OA
ATOM     34  H   UNL     1     -39.937  25.969   1.458  0.00  0.00    +0.292 HD
ENDBRANCH   9  33
BRANCH  14  35
ATOM     35  O   UNL     1     -40.343  21.590   0.682  0.00  0.00    -0.505 OA
ATOM     36  H   UNL     1     -40.772  21.166  -0.035  0.00  0.00    +0.292 HD
ENDBRANCH  14  35
BRANCH  19  37
ATOM     37  O   UNL     1     -40.341  19.504  -0.787  0.00  0.00    -0.505 OA
ATOM     38  H   UNL     1     -40.906  19.825  -0.111  0.00  0.00    +0.292 HD
ENDBRANCH  19  37
TORSDOF 6
ENDMDL
MODEL 4
REMARK VINA RESULT:      -6.7      1.812      2.544
REMARK  Name = 54678401
REMARK  6 active torsions:
REMARK  status: ('A' for Active; 'I' for Inactive)
REMARK    1  A    between atoms: C_4  and  O_31
REMARK    2  A    between atoms: C_5  and  N_27
REMARK    3  A    between atoms: C_9  and  O_33
REMARK    4  A    between atoms: C_12  and  C_24
REMARK    5  A    between atoms: C_14  and  O_35
REMARK    6  A    between atoms: C_19  and  O_37
REMARK                            x       y       z     vdW  Elec       q    Type
REMARK                         _______ _______ _______ _____ _____    ______ ____
ROOT
ATOM      1  O   UNL     1     -36.411  22.622   4.565  0.00  0.00    -0.288 OA
ATOM      2  O   UNL     1     -35.404  19.981  -1.299  0.00  0.00    -0.293 OA
ATOM      3  C   UNL     1     -36.477  22.635   0.932  0.00  0.00    +0.031 C 
ATOM      4  C   UNL     1     -36.367  21.874   2.264  0.00  0.00    +0.192 C 
ATOM      5  C   UNL     1     -36.781  21.619  -0.185  0.00  0.00    +0.009 C 
ATOM      6  C   UNL     1     -35.212  23.471   0.652  0.00  0.00    +0.028 C 
ATOM      7  C   UNL     1     -34.784  24.306   1.827  0.00  0.00    -0.020 A 
ATOM      8  C   UNL     1     -36.015  22.820   3.417  0.00  0.00    +0.206 C 
ATOM      9  C   UNL     1     -35.412  20.698   2.201  0.00  0.00    +0.149 C 
ATOM     10  C   UNL     1     -35.150  23.993   3.137  0.00  0.00    +0.067 A 
ATOM     11  C   UNL     1     -35.713  20.534  -0.244  0.00  0.00    +0.161 C 
ATOM     12  C   UNL     1     -35.070  20.090   1.043  0.00  0.00    +0.118 C 
ATOM     13  C   UNL     1     -33.948  25.412   1.603  0.00  0.00    -0.025 A 
ATOM     14  C   UNL     1     -34.710  24.787   4.205  0.00  0.00    +0.139 A 
ATOM     15  C   UNL     1     -33.497  26.218   2.661  0.00  0.00    +0.002 A 
ATOM     16  C   UNL     1     -33.885  25.901   3.981  0.00  0.00    +0.067 A 
ATOM     17  C   UNL     1     -33.517  25.726   0.197  0.00  0.00    +0.031 C 
ATOM     18  C   UNL     1     -32.669  27.330   2.436  0.00  0.00    -0.000 C 
ATOM     19  C   UNL     1     -33.436  26.706   5.041  0.00  0.00    +0.136 C 
ATOM     20  C   UNL     1     -32.232  28.120   3.499  0.00  0.00    +0.003 C 
ATOM     21  C   UNL     1     -32.615  27.809   4.800  0.00  0.00    +0.037 C 
ENDROOT
BRANCH  12  24
ATOM     22  O   UNL     1     -32.930  19.155   1.379  0.00  0.00    -0.270 OA
ATOM     23  N   UNL     1     -34.613  17.810   0.549  0.00  0.00    -0.325 N 
ATOM     24  C   UNL     1     -34.089  18.990   1.014  0.00  0.00    +0.248 C 
ATOM     25  H   UNL     1     -34.044  17.009   0.488  0.00  0.00    +0.145 HD
ATOM     26  H   UNL     1     -35.558  17.765   0.276  0.00  0.00    +0.145 HD
ENDBRANCH  12  24
BRANCH   5  27
ATOM     27  N   UNL     1     -36.896  22.231  -1.507  0.00  0.00    +0.390 N 
ATOM     28  C   UNL     1     -37.452  23.580  -1.400  0.00  0.00    -0.100 C 
ATOM     29  C   UNL     1     -37.729  21.405  -2.383  0.00  0.00    -0.100 C 
ATOM     30  H   UNL     1     -35.964  22.298  -1.915  0.00  0.00    -0.079 HD
ENDBRANCH   5  27
BRANCH   4  31
ATOM     31  O   UNL     1     -37.648  21.333   2.613  0.00  0.00    -0.373 OA
ATOM     32  H   UNL     1     -38.268  21.474   1.880  0.00  0.00    +0.211 HD
ENDBRANCH   4  31
BRANCH   9  33
ATOM     33  O   UNL     1     -34.945  20.308   3.444  0.00  0.00    -0.507 OA
ATOM     34  H   UNL     1     -35.086  20.855   4.191  0.00  0.00    +0.292 HD
ENDBRANCH   9  33
BRANCH  14  35
ATOM     35  O   UNL     1     -35.076  24.465   5.483  0.00  0.00    -0.505 OA
ATOM     36  H   UNL     1     -35.318  25.141   6.086  0.00  0.00    +0.292 HD
ENDBRANCH  14  35
BRANCH  19  37
ATOM     37  O   UNL     1     -33.763  26.475   6.347  0.00  0.00    -0.505 OA
ATOM     38  H   UNL     1     -33.518  27.093   7.007  0.00  0.00    +0.292 HD
ENDBRANCH  19  37
TORSDOF 6
ENDMDL
MODEL 5
REMARK VINA RESULT:      -6.5      2.090      3.164
REMARK  Name = 54678401
REMARK  6 active torsions:
REMARK  status: ('A' for Active; 'I' for Inactive)
REMARK    1  A    between atoms: C_4  and  O_31
REMARK    2  A    between atoms: C_5  and  N_27
REMARK    3  A    between atoms: C_9  and  O_33
REMARK    4  A    between atoms: C_12  and  C_24
REMARK    5  A    between atoms: C_14  and  O_35
REMARK    6  A    between atoms: C_19  and  O_37
REMARK                            x       y       z     vdW  Elec       q    Type
REMARK                         _______ _______ _______ _____ _____    ______ ____
ROOT
ATOM      1  O   UNL     1     -33.383  27.434   4.899  0.00  0.00    -0.288 OA
ATOM      2  O   UNL     1     -37.736  22.893   3.220  0.00  0.00    -0.293 OA
ATOM      3  C   UNL     1     -35.826  25.931   2.669  0.00  0.00    +0.031 C 
ATOM      4  C   UNL     1     -35.190  26.059   4.063  0.00  0.00    +0.192 C 
ATOM      5  C   UNL     1     -37.177  25.206   2.815  0.00  0.00    +0.009 C 
ATOM      6  C   UNL     1     -34.876  25.231   1.675  0.00  0.00    +0.028 C 
ATOM      7  C   UNL     1     -33.484  25.801   1.690  0.00  0.00    -0.020 A 
ATOM      8  C   UNL     1     -33.815  26.729   3.988  0.00  0.00    +0.206 C 
ATOM      9  C   UNL     1     -35.124  24.741   4.810  0.00  0.00    +0.149 C 
ATOM     10  C   UNL     1     -32.975  26.497   2.786  0.00  0.00    +0.067 A 
ATOM     11  C   UNL     1     -36.999  23.846   3.478  0.00  0.00    +0.161 C 
ATOM     12  C   UNL     1     -35.930  23.694   4.527  0.00  0.00    +0.118 C 
ATOM     13  C   UNL     1     -32.653  25.583   0.579  0.00  0.00    -0.025 A 
ATOM     14  C   UNL     1     -31.663  26.992   2.765  0.00  0.00    +0.139 A 
ATOM     15  C   UNL     1     -31.336  26.070   0.540  0.00  0.00    +0.002 A 
ATOM     16  C   UNL     1     -30.835  26.787   1.649  0.00  0.00    +0.067 A 
ATOM     17  C   UNL     1     -33.186  24.796  -0.587  0.00  0.00    +0.031 C 
ATOM     18  C   UNL     1     -30.508  25.862  -0.575  0.00  0.00    -0.000 C 
ATOM     19  C   UNL     1     -29.519  27.277   1.613  0.00  0.00    +0.136 C 
ATOM     20  C   UNL     1     -29.203  26.355  -0.596  0.00  0.00    +0.003 C 
ATOM     21  C   UNL     1     -28.709  27.062   0.497  0.00  0.00    +0.037 C 
ENDROOT
BRANCH  12  24
ATOM     22  O   UNL     1     -35.909  22.328   6.451  0.00  0.00    -0.270 OA
ATOM     23  N   UNL     1     -35.532  21.354   4.391  0.00  0.00    -0.325 N 
ATOM     24  C   UNL     1     -35.793  22.407   5.232  0.00  0.00    +0.248 C 
ATOM     25  H   UNL     1     -35.423  20.447   4.758  0.00  0.00    +0.145 HD
ATOM     26  H   UNL     1     -35.454  21.506   3.422  0.00  0.00    +0.145 HD
ENDBRANCH  12  24
BRANCH   5  27
ATOM     27  N   UNL     1     -37.871  25.015   1.542  0.00  0.00    +0.390 N 
ATOM     28  C   UNL     1     -37.598  26.133   0.639  0.00  0.00    -0.100 C 
ATOM     29  C   UNL     1     -39.311  24.877   1.761  0.00  0.00    -0.100 C 
ATOM     30  H   UNL     1     -37.525  24.159   1.110  0.00  0.00    -0.079 HD
ENDBRANCH   5  27
BRANCH   4  31
ATOM     31  O   UNL     1     -35.982  26.939   4.870  0.00  0.00    -0.373 OA
ATOM     32  H   UNL     1     -36.767  26.466   5.191  0.00  0.00    +0.211 HD
ENDBRANCH   4  31
BRANCH   9  33
ATOM     33  O   UNL     1     -34.171  24.731   5.814  0.00  0.00    -0.507 OA
ATOM     34  H   UNL     1     -34.421  24.907   6.700  0.00  0.00    +0.292 HD
ENDBRANCH   9  33
BRANCH  14  35
ATOM     35  O   UNL     1     -31.178  27.671   3.849  0.00  0.00    -0.505 OA
ATOM     36  H   UNL     1     -31.751  27.901   4.553  0.00  0.00    +0.292 HD
ENDBRANCH  14  35
BRANCH  19  37
ATOM     37  O   UNL     1     -28.954  27.980   2.638  0.00  0.00    -0.505 OA
ATOM     38  H   UNL     1     -28.354  27.556   3.221  0.00  0.00    +0.292 HD
ENDBRANCH  19  37
TORSDOF 6
ENDMDL
MODEL 6
REMARK VINA RESULT:      -6.5      3.432      5.661
REMARK  Name = 54678401
REMARK  6 active torsions:
REMARK  status: ('A' for Active; 'I' for Inactive)
REMARK    1  A    between atoms: C_4  and  O_31
REMARK    2  A    between atoms: C_5  and  N_27
REMARK    3  A    between atoms: C_9  and  O_33
REMARK    4  A    between atoms: C_12  and  C_24
REMARK    5  A    between atoms: C_14  and  O_35
REMARK    6  A    between atoms: C_19  and  O_37
REMARK                            x       y       z     vdW  Elec       q    Type
REMARK                         _______ _______ _______ _____ _____    ______ ____
ROOT
ATOM      1  O   UNL     1     -35.476  23.764  -0.829  0.00  0.00    -0.288 OA
ATOM      2  O   UNL     1     -36.752  17.435   0.006  0.00  0.00    -0.293 OA
ATOM      3  C   UNL     1     -34.779  20.445   0.475  0.00  0.00    +0.031 C 
ATOM      4  C   UNL     1     -35.531  21.367  -0.499  0.00  0.00    +0.192 C 
ATOM      5  C   UNL     1     -34.912  18.995  -0.027  0.00  0.00    +0.009 C 
ATOM      6  C   UNL     1     -35.277  20.625   1.924  0.00  0.00    +0.028 C 
ATOM      7  C   UNL     1     -35.356  22.066   2.345  0.00  0.00    -0.020 A 
ATOM      8  C   UNL     1     -35.483  22.826  -0.033  0.00  0.00    +0.206 C 
ATOM      9  C   UNL     1     -36.955  20.918  -0.765  0.00  0.00    +0.149 C 
ATOM     10  C   UNL     1     -35.468  23.108   1.424  0.00  0.00    +0.067 A 
ATOM     11  C   UNL     1     -36.376  18.595  -0.162  0.00  0.00    +0.161 C 
ATOM     12  C   UNL     1     -37.371  19.645  -0.579  0.00  0.00    +0.118 C 
ATOM     13  C   UNL     1     -35.366  22.370   3.717  0.00  0.00    -0.025 A 
ATOM     14  C   UNL     1     -35.561  24.436   1.863  0.00  0.00    +0.139 A 
ATOM     15  C   UNL     1     -35.460  23.694   4.175  0.00  0.00    +0.002 A 
ATOM     16  C   UNL     1     -35.557  24.742   3.234  0.00  0.00    +0.067 A 
ATOM     17  C   UNL     1     -35.288  21.246   4.712  0.00  0.00    +0.031 C 
ATOM     18  C   UNL     1     -35.459  24.000   5.546  0.00  0.00    -0.000 C 
ATOM     19  C   UNL     1     -35.650  26.068   3.689  0.00  0.00    +0.136 C 
ATOM     20  C   UNL     1     -35.551  25.321   5.982  0.00  0.00    +0.003 C 
ATOM     21  C   UNL     1     -35.646  26.355   5.055  0.00  0.00    +0.037 C 
ENDROOT
BRANCH  12  24
ATOM     22  O   UNL     1     -39.697  19.879  -0.262  0.00  0.00    -0.270 OA
ATOM     23  N   UNL     1     -38.924  18.168  -1.607  0.00  0.00    -0.325 N 
ATOM     24  C   UNL     1     -38.778  19.259  -0.787  0.00  0.00    +0.248 C 
ATOM     25  H   UNL     1     -39.823  17.825  -1.814  0.00  0.00    +0.145 HD
ATOM     26  H   UNL     1     -38.130  17.729  -1.987  0.00  0.00    +0.145 HD
ENDBRANCH  12  24
BRANCH   5  27
ATOM     27  N   UNL     1     -34.241  18.022   0.834  0.00  0.00    +0.390 N 
ATOM     28  C   UNL     1     -33.038  18.607   1.426  0.00  0.00    -0.100 C 
ATOM     29  C   UNL     1     -33.902  16.817   0.076  0.00  0.00    -0.100 C 
ATOM     30  H   UNL     1     -34.878  17.763   1.586  0.00  0.00    -0.079 HD
ENDBRANCH   5  27
BRANCH   4  31
ATOM     31  O   UNL     1     -34.866  21.366  -1.768  0.00  0.00    -0.373 OA
ATOM     32  H   UNL     1     -35.417  21.824  -2.423  0.00  0.00    +0.211 HD
ENDBRANCH   4  31
BRANCH   9  33
ATOM     33  O   UNL     1     -37.770  21.935  -1.230  0.00  0.00    -0.507 OA
ATOM     34  H   UNL     1     -37.527  22.830  -1.094  0.00  0.00    +0.292 HD
ENDBRANCH   9  33
BRANCH  14  35
ATOM     35  O   UNL     1     -35.672  25.446   0.947  0.00  0.00    -0.505 OA
ATOM     36  H   UNL     1     -36.139  26.229   1.166  0.00  0.00    +0.292 HD
ENDBRANCH  14  35
BRANCH  19  37
ATOM     37  O   UNL     1     -35.746  27.142   2.851  0.00  0.00    -0.505 OA
ATOM     38  H   UNL     1     -36.462  27.740   2.937  0.00  0.00    +0.292 HD
ENDBRANCH  19  37
TORSDOF 6
ENDMDL
MODEL 7
REMARK VINA RESULT:      -6.4      3.805      6.243
REMARK  Name = 54678401
REMARK  6 active torsions:
REMARK  status: ('A' for Active; 'I' for Inactive)
REMARK    1  A    between atoms: C_4  and  O_31
REMARK    2  A    between atoms: C_5  and  N_27
REMARK    3  A    between atoms: C_9  and  O_33
REMARK    4  A    between atoms: C_12  and  C_24
REMARK    5  A    between atoms: C_14  and  O_35
REMARK    6  A    between atoms: C_19  and  O_37
REMARK                            x       y       z     vdW  Elec       q    Type
REMARK                         _______ _______ _______ _____ _____    ______ ____
ROOT
ATOM      1  O   UNL     1     -33.408  25.221  -0.531  0.00  0.00    -0.288 OA
ATOM      2  O   UNL     1     -37.879  24.375   4.125  0.00  0.00    -0.293 OA
ATOM      3  C   UNL     1     -36.324  23.622   0.933  0.00  0.00    +0.031 C 
ATOM      4  C   UNL     1     -35.324  24.789   0.883  0.00  0.00    +0.192 C 
ATOM      5  C   UNL     1     -37.548  24.066   1.755  0.00  0.00    +0.009 C 
ATOM      6  C   UNL     1     -35.669  22.337   1.480  0.00  0.00    +0.028 C 
ATOM      7  C   UNL     1     -34.354  22.020   0.824  0.00  0.00    -0.020 A 
ATOM      8  C   UNL     1     -34.054  24.400   0.120  0.00  0.00    +0.206 C 
ATOM      9  C   UNL     1     -34.996  25.351   2.253  0.00  0.00    +0.149 C 
ATOM     10  C   UNL     1     -33.581  22.995   0.193  0.00  0.00    +0.067 A 
ATOM     11  C   UNL     1     -37.137  24.512   3.152  0.00  0.00    +0.161 C 
ATOM     12  C   UNL     1     -35.808  25.199   3.323  0.00  0.00    +0.118 C 
ATOM     13  C   UNL     1     -33.865  20.705   0.890  0.00  0.00    -0.025 A 
ATOM     14  C   UNL     1     -32.350  22.658  -0.388  0.00  0.00    +0.139 A 
ATOM     15  C   UNL     1     -32.634  20.350   0.316  0.00  0.00    +0.002 A 
ATOM     16  C   UNL     1     -31.866  21.341  -0.334  0.00  0.00    +0.067 A 
ATOM     17  C   UNL     1     -34.676  19.662   1.607  0.00  0.00    +0.031 C 
ATOM     18  C   UNL     1     -32.149  19.033   0.373  0.00  0.00    -0.000 C 
ATOM     19  C   UNL     1     -30.635  20.988  -0.910  0.00  0.00    +0.136 C 
ATOM     20  C   UNL     1     -30.924  18.698  -0.204  0.00  0.00    +0.003 C 
ATOM     21  C   UNL     1     -30.168  19.674  -0.846  0.00  0.00    +0.037 C 
ENDROOT
BRANCH  12  24
ATOM     22  O   UNL     1     -34.411  25.316   5.221  0.00  0.00    -0.270 OA
ATOM     23  N   UNL     1     -36.313  26.625   5.158  0.00  0.00    -0.325 N 
ATOM     24  C   UNL     1     -35.427  25.705   4.654  0.00  0.00    +0.248 C 
ATOM     25  H   UNL     1     -36.154  27.028   6.042  0.00  0.00    +0.145 HD
ATOM     26  H   UNL     1     -37.106  26.881   4.635  0.00  0.00    +0.145 HD
ENDBRANCH  12  24
BRANCH   5  27
ATOM     27  N   UNL     1     -38.568  23.025   1.880  0.00  0.00    +0.390 N 
ATOM     28  C   UNL     1     -38.606  22.199   0.674  0.00  0.00    -0.100 C 
ATOM     29  C   UNL     1     -39.880  23.622   2.131  0.00  0.00    -0.100 C 
ATOM     30  H   UNL     1     -38.327  22.430   2.672  0.00  0.00    -0.079 HD
ENDBRANCH   5  27
BRANCH   4  31
ATOM     31  O   UNL     1     -35.887  25.870   0.130  0.00  0.00    -0.373 OA
ATOM     32  H   UNL     1     -35.193  26.516  -0.076  0.00  0.00    +0.211 HD
ENDBRANCH   4  31
BRANCH   9  33
ATOM     33  O   UNL     1     -33.798  26.042   2.287  0.00  0.00    -0.507 OA
ATOM     34  H   UNL     1     -33.656  26.764   1.706  0.00  0.00    +0.292 HD
ENDBRANCH   9  33
BRANCH  14  35
ATOM     35  O   UNL     1     -31.603  23.626  -1.001  0.00  0.00    -0.505 OA
ATOM     36  H   UNL     1     -30.844  23.389  -1.497  0.00  0.00    +0.292 HD
ENDBRANCH  14  35
BRANCH  19  37
ATOM     37  O   UNL     1     -29.829  21.880  -1.558  0.00  0.00    -0.505 OA
ATOM     38  H   UNL     1     -30.100  22.772  -1.653  0.00  0.00    +0.292 HD
ENDBRANCH  19  37
TORSDOF 6
ENDMDL
MODEL 8
REMARK VINA RESULT:      -6.4      4.428      6.676
REMARK  Name = 54678401
REMARK  6 active torsions:
REMARK  status: ('A' for Active; 'I' for Inactive)
REMARK    1  A    between atoms: C_4  and  O_31
REMARK    2  A    between atoms: C_5  and  N_27
REMARK    3  A    between atoms: C_9  and  O_33
REMARK    4  A    between atoms: C_12  and  C_24
REMARK    5  A    between atoms: C_14  and  O_35
REMARK    6  A    between atoms: C_19  and  O_37
REMARK                            x       y       z     vdW  Elec       q    Type
REMARK                         _______ _______ _______ _____ _____    ______ ____
ROOT
ATOM      1  O   UNL     1     -33.093  24.351  -0.977  0.00  0.00    -0.288 OA
ATOM      2  O   UNL     1     -37.081  22.942   3.971  0.00  0.00    -0.293 OA
ATOM      3  C   UNL     1     -35.593  22.332   0.718  0.00  0.00    +0.031 C 
ATOM      4  C   UNL     1     -34.821  23.653   0.566  0.00  0.00    +0.192 C 
ATOM      5  C   UNL     1     -36.830  22.590   1.598  0.00  0.00    +0.009 C 
ATOM      6  C   UNL     1     -34.690  21.208   1.268  0.00  0.00    +0.028 C 
ATOM      7  C   UNL     1     -33.377  21.098   0.543  0.00  0.00    -0.020 A 
ATOM      8  C   UNL     1     -33.545  23.460  -0.260  0.00  0.00    +0.206 C 
ATOM      9  C   UNL     1     -34.524  24.325   1.893  0.00  0.00    +0.149 C 
ATOM     10  C   UNL     1     -32.826  22.164  -0.168  0.00  0.00    +0.067 A 
ATOM     11  C   UNL     1     -36.429  23.164   2.951  0.00  0.00    +0.161 C 
ATOM     12  C   UNL     1     -35.237  24.081   3.015  0.00  0.00    +0.118 C 
ATOM     13  C   UNL     1     -32.659  19.894   0.625  0.00  0.00    -0.025 A 
ATOM     14  C   UNL     1     -31.588  22.024  -0.811  0.00  0.00    +0.139 A 
ATOM     15  C   UNL     1     -31.417  19.735  -0.011  0.00  0.00    +0.002 A 
ATOM     16  C   UNL     1     -30.875  20.816  -0.741  0.00  0.00    +0.067 A 
ATOM     17  C   UNL     1     -33.231  18.758   1.427  0.00  0.00    +0.031 C 
ATOM     18  C   UNL     1     -30.703  18.528   0.061  0.00  0.00    -0.000 C 
ATOM     19  C   UNL     1     -29.634  20.659  -1.380  0.00  0.00    +0.136 C 
ATOM     20  C   UNL     1     -29.472  18.388  -0.578  0.00  0.00    +0.003 C 
ATOM     21  C   UNL     1     -28.937  19.453  -1.299  0.00  0.00    +0.037 C 
ENDROOT
BRANCH  12  24
ATOM     22  O   UNL     1     -33.742  24.635   4.755  0.00  0.00    -0.270 OA
ATOM     23  N   UNL     1     -35.934  25.349   4.902  0.00  0.00    -0.325 N 
ATOM     24  C   UNL     1     -34.880  24.705   4.302  0.00  0.00    +0.248 C 
ATOM     25  H   UNL     1     -35.806  25.801   5.767  0.00  0.00    +0.145 HD
ATOM     26  H   UNL     1     -36.817  25.357   4.468  0.00  0.00    +0.145 HD
ENDBRANCH  12  24
BRANCH   5  27
ATOM     27  N   UNL     1     -37.640  21.393   1.822  0.00  0.00    +0.390 N 
ATOM     28  C   UNL     1     -37.468  20.446   0.719  0.00  0.00    -0.100 C 
ATOM     29  C   UNL     1     -39.050  21.750   1.972  0.00  0.00    -0.100 C 
ATOM     30  H   UNL     1     -37.325  20.946   2.683  0.00  0.00    -0.079 HD
ENDBRANCH   5  27
BRANCH   4  31
ATOM     31  O   UNL     1     -35.608  24.583  -0.188  0.00  0.00    -0.373 OA
ATOM     32  H   UNL     1     -35.398  25.487   0.094  0.00  0.00    +0.211 HD
ENDBRANCH   4  31
BRANCH   9  33
ATOM     33  O   UNL     1     -33.468  25.217   1.829  0.00  0.00    -0.507 OA
ATOM     34  H   UNL     1     -33.184  25.548   0.999  0.00  0.00    +0.292 HD
ENDBRANCH   9  33
BRANCH  14  35
ATOM     35  O   UNL     1     -31.060  23.079  -1.502  0.00  0.00    -0.505 OA
ATOM     36  H   UNL     1     -30.184  23.363  -1.327  0.00  0.00    +0.292 HD
ENDBRANCH  14  35
BRANCH  19  37
ATOM     37  O   UNL     1     -29.036  21.649  -2.107  0.00  0.00    -0.505 OA
ATOM     38  H   UNL     1     -29.499  22.054  -2.814  0.00  0.00    +0.292 HD
ENDBRANCH  19  37
TORSDOF 6
ENDMDL
MODEL 9
REMARK VINA RESULT:      -6.4      2.610      4.279
REMARK  Name = 54678401
REMARK  6 active torsions:
REMARK  status: ('A' for Active; 'I' for Inactive)
REMARK    1  A    between atoms: C_4  and  O_31
REMARK    2  A    between atoms: C_5  and  N_27
REMARK    3  A    between atoms: C_9  and  O_33
REMARK    4  A    between atoms: C_12  and  C_24
REMARK    5  A    between atoms: C_14  and  O_35
REMARK    6  A    between atoms: C_19  and  O_37
REMARK                            x       y       z     vdW  Elec       q    Type
REMARK                         _______ _______ _______ _____ _____    ______ ____
ROOT
ATOM      1  O   UNL     1     -35.429  27.367   0.565  0.00  0.00    -0.288 OA
ATOM      2  O   UNL     1     -40.225  23.455   2.585  0.00  0.00    -0.293 OA
ATOM      3  C   UNL     1     -36.745  24.288   1.976  0.00  0.00    +0.031 C 
ATOM      4  C   UNL     1     -36.954  25.599   1.200  0.00  0.00    +0.192 C 
ATOM      5  C   UNL     1     -37.967  23.381   1.738  0.00  0.00    +0.009 C 
ATOM      6  C   UNL     1     -36.478  24.552   3.472  0.00  0.00    +0.028 C 
ATOM      7  C   UNL     1     -35.431  25.605   3.707  0.00  0.00    -0.020 A 
ATOM      8  C   UNL     1     -35.795  26.573   1.431  0.00  0.00    +0.206 C 
ATOM      9  C   UNL     1     -38.293  26.252   1.485  0.00  0.00    +0.149 C 
ATOM     10  C   UNL     1     -35.116  26.571   2.751  0.00  0.00    +0.067 A 
ATOM     11  C   UNL     1     -39.256  24.079   2.152  0.00  0.00    +0.161 C 
ATOM     12  C   UNL     1     -39.357  25.569   1.961  0.00  0.00    +0.118 C 
ATOM     13  C   UNL     1     -34.781  25.647   4.952  0.00  0.00    -0.025 A 
ATOM     14  C   UNL     1     -34.147  27.547   3.021  0.00  0.00    +0.139 A 
ATOM     15  C   UNL     1     -33.809  26.618   5.241  0.00  0.00    +0.002 A 
ATOM     16  C   UNL     1     -33.486  27.581   4.260  0.00  0.00    +0.067 A 
ATOM     17  C   UNL     1     -35.149  24.633   6.000  0.00  0.00    +0.031 C 
ATOM     18  C   UNL     1     -33.151  26.653   6.481  0.00  0.00    -0.000 C 
ATOM     19  C   UNL     1     -32.514  28.554   4.546  0.00  0.00    +0.136 C 
ATOM     20  C   UNL     1     -32.187  27.625   6.750  0.00  0.00    +0.003 C 
ATOM     21  C   UNL     1     -31.869  28.574   5.783  0.00  0.00    +0.037 C 
ENDROOT
BRANCH  12  24
ATOM     22  O   UNL     1     -41.324  26.753   1.414  0.00  0.00    -0.270 OA
ATOM     23  N   UNL     1     -40.908  26.250   3.630  0.00  0.00    -0.325 N 
ATOM     24  C   UNL     1     -40.623  26.250   2.287  0.00  0.00    +0.248 C 
ATOM     25  H   UNL     1     -41.732  26.678   3.958  0.00  0.00    +0.145 HD
ATOM     26  H   UNL     1     -40.289  25.822   4.264  0.00  0.00    +0.145 HD
ENDBRANCH  12  24
BRANCH   5  27
ATOM     27  N   UNL     1     -37.883  22.102   2.442  0.00  0.00    +0.390 N 
ATOM     28  C   UNL     1     -36.486  21.694   2.596  0.00  0.00    -0.100 C 
ATOM     29  C   UNL     1     -38.639  21.074   1.727  0.00  0.00    -0.100 C 
ATOM     30  H   UNL     1     -38.290  22.217   3.370  0.00  0.00    -0.079 HD
ENDBRANCH   5  27
BRANCH   4  31
ATOM     31  O   UNL     1     -36.931  25.330  -0.208  0.00  0.00    -0.373 OA
ATOM     32  H   UNL     1     -37.452  24.532  -0.393  0.00  0.00    +0.211 HD
ENDBRANCH   4  31
BRANCH   9  33
ATOM     33  O   UNL     1     -38.312  27.605   1.193  0.00  0.00    -0.507 OA
ATOM     34  H   UNL     1     -37.551  28.129   1.345  0.00  0.00    +0.292 HD
ENDBRANCH   9  33
BRANCH  14  35
ATOM     35  O   UNL     1     -33.851  28.488   2.073  0.00  0.00    -0.505 OA
ATOM     36  H   UNL     1     -33.460  28.230   1.262  0.00  0.00    +0.292 HD
ENDBRANCH  14  35
BRANCH  19  37
ATOM     37  O   UNL     1     -32.139  29.521   3.658  0.00  0.00    -0.505 OA
ATOM     38  H   UNL     1     -32.777  29.908   3.091  0.00  0.00    +0.292 HD
ENDBRANCH  19  37
TORSDOF 6
ENDMDL
