MODEL 1
REMARK VINA RESULT:      -6.1      0.000      0.000
REMARK  Name = 5904
REMARK  5 active torsions:
REMARK  status: ('A' for Active; 'I' for Inactive)
REMARK    1  A    between atoms: CA_6  and  C_23
REMARK    2  A    between atoms: CA_7  and  N_12
REMARK    3  A    between atoms: C_13  and  C_15
REMARK    4  A    between atoms: C_15  and  C_16
REMARK    5  A    between atoms: C_23  and  O_24
REMARK                            x       y       z     vdW  Elec       q    Type
REMARK                         _______ _______ _______ _____ _____    ______ ____
ROOT
ATOM      1  S   UNL     1     -35.461  24.300   1.356  0.00  0.00    -0.118 S 
ATOM      2  O   UNL     1     -39.458  22.732   2.346  0.00  0.00    -0.273 OA
ATOM      3  N   UNL     1     -37.771  24.373   2.533  0.00  0.00    -0.260 N 
ATOM      4  C   UNL     1     -36.419  23.916   2.867  0.00  0.00    +0.151 C 
ATOM      5  C   UNL     1     -36.543  25.773   0.997  0.00  0.00    +0.068 C 
ATOM      6  CA  UNL     1     -37.947  25.311   1.442  0.00  0.00    +0.184 C 
ATOM      7  CA  UNL     1     -36.996  22.498   2.979  0.00  0.00    +0.178 C 
ATOM      8  C   UNL     1     -38.349  23.139   2.609  0.00  0.00    +0.247 C 
ATOM      9  C   UNL     1     -35.988  26.969   1.782  0.00  0.00    +0.013 C 
ATOM     10  C   UNL     1     -36.502  26.067  -0.503  0.00  0.00    +0.013 C 
ENDROOT
BRANCH   7  12
ATOM     11  O   UNL     1     -35.062  20.394   3.437  0.00  0.00    -0.275 OA
ATOM     12  N   UNL     1     -36.526  21.496   2.012  0.00  0.00    -0.296 N 
ATOM     13  C   UNL     1     -35.585  20.515   2.331  0.00  0.00    +0.227 C 
ATOM     14  H   UNL     1     -36.891  21.518   1.098  0.00  0.00    +0.150 HD
BRANCH  13  15
ATOM     15  C   UNL     1     -35.276  19.614   1.152  0.00  0.00    +0.111 C 
BRANCH  15  16
ATOM     16  C   UNL     1     -33.801  19.462   0.887  0.00  0.00    -0.013 C 
ATOM     17  C   UNL     1     -33.146  18.314   1.308  0.00  0.00    -0.004 C 
ATOM     18  C   UNL     1     -33.119  20.475   0.227  0.00  0.00    -0.004 C 
ATOM     19  C   UNL     1     -31.779  18.174   1.062  0.00  0.00    -0.000 C 
ATOM     20  C   UNL     1     -31.752  20.335  -0.019  0.00  0.00    -0.000 C 
ATOM     21  C   UNL     1     -31.082  19.184   0.399  0.00  0.00    -0.000 C 
ENDBRANCH  15  16
ENDBRANCH  13  15
ENDBRANCH   7  12
BRANCH   6  23
ATOM     22  OXT UNL     1     -39.474  27.168   1.219  0.00  0.00    -0.248 OA
ATOM     23  C   UNL     1     -38.852  26.396   1.934  0.00  0.00    +0.333 C 
BRANCH  23  24
ATOM     24  O   UNL     1     -38.889  26.413   3.288  0.00  0.00    -0.479 OA
ATOM     25  H   UNL     1     -39.597  26.836   3.732  0.00  0.00    +0.295 HD
ENDBRANCH  23  24
ENDBRANCH   6  23
TORSDOF 5
ENDMDL
MODEL 2
REMARK VINA RESULT:      -6.0      3.080      6.730
REMARK  Name = 5904
REMARK  5 active torsions:
REMARK  status: ('A' for Active; 'I' for Inactive)
REMARK    1  A    between atoms: CA_6  and  C_23
REMARK    2  A    between atoms: CA_7  and  N_12
REMARK    3  A    between atoms: C_13  and  C_15
REMARK    4  A    between atoms: C_15  and  C_16
REMARK    5  A    between atoms: C_23  and  O_24
REMARK                            x       y       z     vdW  Elec       q    Type
REMARK                         _______ _______ _______ _____ _____    ______ ____
ROOT
ATOM      1  S   UNL     1     -35.286  24.124   2.218  0.00  0.00    -0.118 S 
ATOM      2  O   UNL     1     -34.957  21.083   5.389  0.00  0.00    -0.273 OA
ATOM      3  N   UNL     1     -35.962  21.932   3.429  0.00  0.00    -0.260 N 
ATOM      4  C   UNL     1     -36.392  23.333   3.443  0.00  0.00    +0.151 C 
ATOM      5  C   UNL     1     -35.198  22.551   1.224  0.00  0.00    +0.068 C 
ATOM      6  CA  UNL     1     -35.201  21.441   2.297  0.00  0.00    +0.184 C 
ATOM      7  CA  UNL     1     -35.948  23.387   4.912  0.00  0.00    +0.178 C 
ATOM      8  C   UNL     1     -35.541  21.911   4.727  0.00  0.00    +0.247 C 
ATOM      9  C   UNL     1     -36.406  22.524   0.277  0.00  0.00    +0.013 C 
ATOM     10  C   UNL     1     -33.899  22.544   0.417  0.00  0.00    +0.013 C 
ENDROOT
BRANCH   7  12
ATOM     11  O   UNL     1     -36.097  26.166   5.707  0.00  0.00    -0.275 OA
ATOM     12  N   UNL     1     -34.828  24.277   5.250  0.00  0.00    -0.296 N 
ATOM     13  C   UNL     1     -35.004  25.610   5.624  0.00  0.00    +0.227 C 
ATOM     14  H   UNL     1     -33.913  23.916   5.211  0.00  0.00    +0.150 HD
BRANCH  13  15
ATOM     15  C   UNL     1     -33.687  26.301   5.917  0.00  0.00    +0.111 C 
BRANCH  15  16
ATOM     16  C   UNL     1     -33.294  27.305   4.866  0.00  0.00    -0.013 C 
ATOM     17  C   UNL     1     -32.241  28.176   5.113  0.00  0.00    -0.004 C 
ATOM     18  C   UNL     1     -33.991  27.347   3.666  0.00  0.00    -0.004 C 
ATOM     19  C   UNL     1     -31.877  29.107   4.139  0.00  0.00    -0.000 C 
ATOM     20  C   UNL     1     -33.627  28.278   2.693  0.00  0.00    -0.000 C 
ATOM     21  C   UNL     1     -32.569  29.158   2.929  0.00  0.00    -0.000 C 
ENDBRANCH  15  16
ENDBRANCH  13  15
ENDBRANCH   7  12
BRANCH   6  23
ATOM     22  OXT UNL     1     -35.401  19.427   0.981  0.00  0.00    -0.248 OA
ATOM     23  C   UNL     1     -35.820  20.146   1.876  0.00  0.00    +0.333 C 
BRANCH  23  24
ATOM     24  O   UNL     1     -36.918  19.875   2.622  0.00  0.00    -0.479 OA
ATOM     25  H   UNL     1     -37.770  19.915   2.233  0.00  0.00    +0.295 HD
ENDBRANCH  23  24
ENDBRANCH   6  23
TORSDOF 5
ENDMDL
MODEL 3
REMARK VINA RESULT:      -5.8      1.733      2.226
REMARK  Name = 5904
REMARK  5 active torsions:
REMARK  status: ('A' for Active; 'I' for Inactive)
REMARK    1  A    between atoms: CA_6  and  C_23
REMARK    2  A    between atoms: CA_7  and  N_12
REMARK    3  A    between atoms: C_13  and  C_15
REMARK    4  A    between atoms: C_15  and  C_16
REMARK    5  A    between atoms: C_23  and  O_24
REMARK                            x       y       z     vdW  Elec       q    Type
REMARK                         _______ _______ _______ _____ _____    ______ ____
ROOT
ATOM      1  S   UNL     1     -34.795  24.006   3.699  0.00  0.00    -0.118 S 
ATOM      2  O   UNL     1     -37.851  22.499   0.905  0.00  0.00    -0.273 OA
ATOM      3  N   UNL     1     -37.211  23.360   3.007  0.00  0.00    -0.260 N 
ATOM      4  C   UNL     1     -36.088  22.710   3.690  0.00  0.00    +0.151 C 
ATOM      5  C   UNL     1     -36.085  25.346   3.792  0.00  0.00    +0.068 C 
ATOM      6  CA  UNL     1     -37.236  24.806   2.917  0.00  0.00    +0.184 C 
ATOM      7  CA  UNL     1     -36.051  21.704   2.531  0.00  0.00    +0.178 C 
ATOM      8  C   UNL     1     -37.230  22.505   1.944  0.00  0.00    +0.247 C 
ATOM      9  C   UNL     1     -36.450  25.548   5.269  0.00  0.00    +0.013 C 
ATOM     10  C   UNL     1     -35.503  26.637   3.215  0.00  0.00    +0.013 C 
ENDROOT
BRANCH   7  12
ATOM     11  O   UNL     1     -35.317  19.711   0.564  0.00  0.00    -0.275 OA
ATOM     12  N   UNL     1     -34.853  21.694   1.678  0.00  0.00    -0.296 N 
ATOM     13  C   UNL     1     -34.587  20.681   0.755  0.00  0.00    +0.227 C 
ATOM     14  H   UNL     1     -34.210  22.434   1.764  0.00  0.00    +0.150 HD
BRANCH  13  15
ATOM     15  C   UNL     1     -33.287  20.913   0.010  0.00  0.00    +0.111 C 
BRANCH  15  16
ATOM     16  C   UNL     1     -32.248  19.856   0.280  0.00  0.00    -0.013 C 
ATOM     17  C   UNL     1     -32.577  18.759   1.063  0.00  0.00    -0.004 C 
ATOM     18  C   UNL     1     -30.977  19.996  -0.258  0.00  0.00    -0.004 C 
ATOM     19  C   UNL     1     -31.615  17.780   1.312  0.00  0.00    -0.000 C 
ATOM     20  C   UNL     1     -30.014  19.017  -0.009  0.00  0.00    -0.000 C 
ATOM     21  C   UNL     1     -30.333  17.909   0.777  0.00  0.00    -0.000 C 
ENDBRANCH  15  16
ENDBRANCH  13  15
ENDBRANCH   7  12
BRANCH   6  23
ATOM     22  OXT UNL     1     -39.480  24.518   3.760  0.00  0.00    -0.248 OA
ATOM     23  C   UNL     1     -38.607  25.250   3.318  0.00  0.00    +0.333 C 
BRANCH  23  24
ATOM     24  O   UNL     1     -38.755  26.583   3.123  0.00  0.00    -0.479 OA
ATOM     25  H   UNL     1     -39.189  27.105   3.769  0.00  0.00    +0.295 HD
ENDBRANCH  23  24
ENDBRANCH   6  23
TORSDOF 5
ENDMDL
MODEL 4
REMARK VINA RESULT:      -5.8      2.341      7.024
REMARK  Name = 5904
REMARK  5 active torsions:
REMARK  status: ('A' for Active; 'I' for Inactive)
REMARK    1  A    between atoms: CA_6  and  C_23
REMARK    2  A    between atoms: CA_7  and  N_12
REMARK    3  A    between atoms: C_13  and  C_15
REMARK    4  A    between atoms: C_15  and  C_16
REMARK    5  A    between atoms: C_23  and  O_24
REMARK                            x       y       z     vdW  Elec       q    Type
REMARK                         _______ _______ _______ _____ _____    ______ ____
ROOT
ATOM      1  S   UNL     1     -34.454  21.568  -0.675  0.00  0.00    -0.118 S 
ATOM      2  O   UNL     1     -35.250  20.295   3.467  0.00  0.00    -0.273 OA
ATOM      3  N   UNL     1     -34.860  19.812   1.190  0.00  0.00    -0.260 N 
ATOM      4  C   UNL     1     -35.674  20.522   0.200  0.00  0.00    +0.151 C 
ATOM      5  C   UNL     1     -33.116  20.300  -0.407  0.00  0.00    +0.068 C 
ATOM      6  CA  UNL     1     -33.426  19.736   0.996  0.00  0.00    +0.184 C 
ATOM      7  CA  UNL     1     -36.423  21.167   1.374  0.00  0.00    +0.178 C 
ATOM      8  C   UNL     1     -35.478  20.353   2.280  0.00  0.00    +0.247 C 
ATOM      9  C   UNL     1     -33.208  19.271  -1.541  0.00  0.00    +0.013 C 
ATOM     10  C   UNL     1     -31.756  20.998  -0.440  0.00  0.00    +0.013 C 
ENDROOT
BRANCH   7  12
ATOM     11  O   UNL     1     -38.118  22.898   2.958  0.00  0.00    -0.275 OA
ATOM     12  N   UNL     1     -36.301  22.623   1.540  0.00  0.00    -0.296 N 
ATOM     13  C   UNL     1     -37.174  23.373   2.331  0.00  0.00    +0.227 C 
ATOM     14  H   UNL     1     -35.572  23.089   1.072  0.00  0.00    +0.150 HD
BRANCH  13  15
ATOM     15  C   UNL     1     -36.826  24.848   2.326  0.00  0.00    +0.111 C 
BRANCH  15  16
ATOM     16  C   UNL     1     -35.944  25.257   3.476  0.00  0.00    -0.013 C 
ATOM     17  C   UNL     1     -34.579  25.402   3.273  0.00  0.00    -0.004 C 
ATOM     18  C   UNL     1     -36.510  25.481   4.724  0.00  0.00    -0.004 C 
ATOM     19  C   UNL     1     -33.763  25.780   4.339  0.00  0.00    -0.000 C 
ATOM     20  C   UNL     1     -35.693  25.859   5.790  0.00  0.00    -0.000 C 
ATOM     21  C   UNL     1     -34.319  26.009   5.598  0.00  0.00    -0.000 C 
ENDBRANCH  15  16
ENDBRANCH  13  15
ENDBRANCH   7  12
BRANCH   6  23
ATOM     22  OXT UNL     1     -31.941  17.946   1.648  0.00  0.00    -0.248 OA
ATOM     23  C   UNL     1     -33.025  18.311   1.215  0.00  0.00    +0.333 C 
BRANCH  23  24
ATOM     24  O   UNL     1     -34.029  17.472   0.865  0.00  0.00    -0.479 OA
ATOM     25  H   UNL     1     -33.906  16.862   0.165  0.00  0.00    +0.295 HD
ENDBRANCH  23  24
ENDBRANCH   6  23
TORSDOF 5
ENDMDL
MODEL 5
REMARK VINA RESULT:      -5.8      2.110      2.842
REMARK  Name = 5904
REMARK  5 active torsions:
REMARK  status: ('A' for Active; 'I' for Inactive)
REMARK    1  A    between atoms: CA_6  and  C_23
REMARK    2  A    between atoms: CA_7  and  N_12
REMARK    3  A    between atoms: C_13  and  C_15
REMARK    4  A    between atoms: C_15  and  C_16
REMARK    5  A    between atoms: C_23  and  O_24
REMARK                            x       y       z     vdW  Elec       q    Type
REMARK                         _______ _______ _______ _____ _____    ______ ____
ROOT
ATOM      1  S   UNL     1     -35.406  23.326   4.673  0.00  0.00    -0.118 S 
ATOM      2  O   UNL     1     -35.992  23.871   0.341  0.00  0.00    -0.273 OA
ATOM      3  N   UNL     1     -36.492  24.413   2.583  0.00  0.00    -0.260 N 
ATOM      4  C   UNL     1     -36.804  23.306   3.492  0.00  0.00    +0.151 C 
ATOM      5  C   UNL     1     -35.236  25.173   4.499  0.00  0.00    +0.068 C 
ATOM      6  CA  UNL     1     -35.552  25.429   3.010  0.00  0.00    +0.184 C 
ATOM      7  CA  UNL     1     -36.675  22.365   2.285  0.00  0.00    +0.178 C 
ATOM      8  C   UNL     1     -36.357  23.634   1.470  0.00  0.00    +0.247 C 
ATOM      9  C   UNL     1     -36.215  25.832   5.480  0.00  0.00    +0.013 C 
ATOM     10  C   UNL     1     -33.801  25.575   4.842  0.00  0.00    +0.013 C 
ENDROOT
BRANCH   7  12
ATOM     11  O   UNL     1     -36.226  20.210   0.405  0.00  0.00    -0.275 OA
ATOM     12  N   UNL     1     -35.585  21.379   2.306  0.00  0.00    -0.296 N 
ATOM     13  C   UNL     1     -35.454  20.372   1.348  0.00  0.00    +0.227 C 
ATOM     14  H   UNL     1     -34.918  21.431   3.027  0.00  0.00    +0.150 HD
BRANCH  13  15
ATOM     15  C   UNL     1     -34.246  19.492   1.604  0.00  0.00    +0.111 C 
BRANCH  15  16
ATOM     16  C   UNL     1     -33.038  19.888   0.797  0.00  0.00    -0.013 C 
ATOM     17  C   UNL     1     -33.018  21.119   0.157  0.00  0.00    -0.004 C 
ATOM     18  C   UNL     1     -31.964  19.015   0.703  0.00  0.00    -0.004 C 
ATOM     19  C   UNL     1     -31.898  21.485  -0.591  0.00  0.00    -0.000 C 
ATOM     20  C   UNL     1     -30.844  19.381  -0.045  0.00  0.00    -0.000 C 
ATOM     21  C   UNL     1     -30.811  20.617  -0.692  0.00  0.00    -0.000 C 
ENDBRANCH  15  16
ENDBRANCH  13  15
ENDBRANCH   7  12
BRANCH   6  23
ATOM     22  OXT UNL     1     -35.549  27.800   2.555  0.00  0.00    -0.248 OA
ATOM     23  C   UNL     1     -36.169  26.758   2.706  0.00  0.00    +0.333 C 
BRANCH  23  24
ATOM     24  O   UNL     1     -37.517  26.652   2.624  0.00  0.00    -0.479 OA
ATOM     25  H   UNL     1     -37.982  26.110   3.230  0.00  0.00    +0.295 HD
ENDBRANCH  23  24
ENDBRANCH   6  23
TORSDOF 5
ENDMDL
MODEL 6
REMARK VINA RESULT:      -5.8      5.120      7.143
REMARK  Name = 5904
REMARK  5 active torsions:
REMARK  status: ('A' for Active; 'I' for Inactive)
REMARK    1  A    between atoms: CA_6  and  C_23
REMARK    2  A    between atoms: CA_7  and  N_12
REMARK    3  A    between atoms: C_13  and  C_15
REMARK    4  A    between atoms: C_15  and  C_16
REMARK    5  A    between atoms: C_23  and  O_24
REMARK                            x       y       z     vdW  Elec       q    Type
REMARK                         _______ _______ _______ _____ _____    ______ ____
ROOT
ATOM      1  S   UNL     1     -35.079  29.030   1.610  0.00  0.00    -0.118 S 
ATOM      2  O   UNL     1     -32.738  29.978   5.220  0.00  0.00    -0.273 OA
ATOM      3  N   UNL     1     -33.126  30.149   2.898  0.00  0.00    -0.260 N 
ATOM      4  C   UNL     1     -33.336  28.904   2.155  0.00  0.00    +0.151 C 
ATOM      5  C   UNL     1     -34.950  30.885   1.499  0.00  0.00    +0.068 C 
ATOM      6  CA  UNL     1     -34.034  31.258   2.684  0.00  0.00    +0.184 C 
ATOM      7  CA  UNL     1     -33.076  28.152   3.468  0.00  0.00    +0.178 C 
ATOM      8  C   UNL     1     -32.890  29.547   4.100  0.00  0.00    +0.247 C 
ATOM      9  C   UNL     1     -34.380  31.237   0.119  0.00  0.00    +0.013 C 
ATOM     10  C   UNL     1     -36.345  31.491   1.660  0.00  0.00    +0.013 C 
ENDROOT
BRANCH   7  12
ATOM     11  O   UNL     1     -32.979  26.367   5.744  0.00  0.00    -0.275 OA
ATOM     12  N   UNL     1     -34.188  27.381   4.042  0.00  0.00    -0.296 N 
ATOM     13  C   UNL     1     -34.039  26.542   5.148  0.00  0.00    +0.227 C 
ATOM     14  H   UNL     1     -35.077  27.459   3.627  0.00  0.00    +0.150 HD
BRANCH  13  15
ATOM     15  C   UNL     1     -35.340  25.865   5.531  0.00  0.00    +0.111 C 
BRANCH  15  16
ATOM     16  C   UNL     1     -35.383  24.405   5.165  0.00  0.00    -0.013 C 
ATOM     17  C   UNL     1     -35.628  24.038   3.849  0.00  0.00    -0.004 C 
ATOM     18  C   UNL     1     -35.179  23.447   6.148  0.00  0.00    -0.004 C 
ATOM     19  C   UNL     1     -35.669  22.685   3.509  0.00  0.00    -0.000 C 
ATOM     20  C   UNL     1     -35.220  22.094   5.809  0.00  0.00    -0.000 C 
ATOM     21  C   UNL     1     -35.464  21.713   4.489  0.00  0.00    -0.000 C 
ENDBRANCH  15  16
ENDBRANCH  13  15
ENDBRANCH   7  12
BRANCH   6  23
ATOM     22  OXT UNL     1     -33.631  33.624   2.419  0.00  0.00    -0.248 OA
ATOM     23  C   UNL     1     -33.198  32.482   2.486  0.00  0.00    +0.333 C 
BRANCH  23  24
ATOM     24  O   UNL     1     -31.886  32.157   2.387  0.00  0.00    -0.479 OA
ATOM     25  H   UNL     1     -31.286  32.751   1.982  0.00  0.00    +0.295 HD
ENDBRANCH  23  24
ENDBRANCH   6  23
TORSDOF 5
ENDMDL
MODEL 7
REMARK VINA RESULT:      -5.7      3.817      7.319
REMARK  Name = 5904
REMARK  5 active torsions:
REMARK  status: ('A' for Active; 'I' for Inactive)
REMARK    1  A    between atoms: CA_6  and  C_23
REMARK    2  A    between atoms: CA_7  and  N_12
REMARK    3  A    between atoms: C_13  and  C_15
REMARK    4  A    between atoms: C_15  and  C_16
REMARK    5  A    between atoms: C_23  and  O_24
REMARK                            x       y       z     vdW  Elec       q    Type
REMARK                         _______ _______ _______ _____ _____    ______ ____
ROOT
ATOM      1  S   UNL     1     -34.680  23.956   0.879  0.00  0.00    -0.118 S 
ATOM      2  O   UNL     1     -36.268  23.552   4.969  0.00  0.00    -0.273 OA
ATOM      3  N   UNL     1     -36.503  23.367   2.628  0.00  0.00    -0.260 N 
ATOM      4  C   UNL     1     -36.141  24.534   1.819  0.00  0.00    +0.151 C 
ATOM      5  C   UNL     1     -35.334  22.213   0.859  0.00  0.00    +0.068 C 
ATOM      6  CA  UNL     1     -36.011  22.061   2.238  0.00  0.00    +0.184 C 
ATOM      7  CA  UNL     1     -35.867  25.279   3.133  0.00  0.00    +0.178 C 
ATOM      8  C   UNL     1     -36.273  23.966   3.833  0.00  0.00    +0.247 C 
ATOM      9  C   UNL     1     -36.289  22.081  -0.336  0.00  0.00    +0.013 C 
ATOM     10  C   UNL     1     -34.162  21.243   0.702  0.00  0.00    +0.013 C 
ENDROOT
BRANCH   7  12
ATOM     11  O   UNL     1     -34.920  27.959   3.681  0.00  0.00    -0.275 OA
ATOM     12  N   UNL     1     -34.483  25.696   3.402  0.00  0.00    -0.296 N 
ATOM     13  C   UNL     1     -34.125  27.021   3.657  0.00  0.00    +0.227 C 
ATOM     14  H   UNL     1     -33.778  25.010   3.403  0.00  0.00    +0.150 HD
BRANCH  13  15
ATOM     15  C   UNL     1     -32.637  27.175   3.899  0.00  0.00    +0.111 C 
BRANCH  15  16
ATOM     16  C   UNL     1     -32.294  28.347   4.780  0.00  0.00    -0.013 C 
ATOM     17  C   UNL     1     -32.137  29.604   4.214  0.00  0.00    -0.004 C 
ATOM     18  C   UNL     1     -32.138  28.152   6.146  0.00  0.00    -0.004 C 
ATOM     19  C   UNL     1     -31.819  30.690   5.031  0.00  0.00    -0.000 C 
ATOM     20  C   UNL     1     -31.820  29.238   6.962  0.00  0.00    -0.000 C 
ATOM     21  C   UNL     1     -31.660  30.507   6.405  0.00  0.00    -0.000 C 
ENDBRANCH  15  16
ENDBRANCH  13  15
ENDBRANCH   7  12
BRANCH   6  23
ATOM     22  OXT UNL     1     -38.340  21.439   2.114  0.00  0.00    -0.248 OA
ATOM     23  C   UNL     1     -37.172  21.120   2.281  0.00  0.00    +0.333 C 
BRANCH  23  24
ATOM     24  O   UNL     1     -36.756  19.855   2.533  0.00  0.00    -0.479 OA
ATOM     25  H   UNL     1     -36.365  19.347   1.851  0.00  0.00    +0.295 HD
ENDBRANCH  23  24
ENDBRANCH   6  23
TORSDOF 5
ENDMDL
MODEL 8
REMARK VINA RESULT:      -5.6      4.583      6.125
REMARK  Name = 5904
REMARK  5 active torsions:
REMARK  status: ('A' for Active; 'I' for Inactive)
REMARK    1  A    between atoms: CA_6  and  C_23
REMARK    2  A    between atoms: CA_7  and  N_12
REMARK    3  A    between atoms: C_13  and  C_15
REMARK    4  A    between atoms: C_15  and  C_16
REMARK    5  A    between atoms: C_23  and  O_24
REMARK                            x       y       z     vdW  Elec       q    Type
REMARK                         _______ _______ _______ _____ _____    ______ ____
ROOT
ATOM      1  S   UNL     1     -35.923  27.337   0.857  0.00  0.00    -0.118 S 
ATOM      2  O   UNL     1     -35.179  30.613   3.708  0.00  0.00    -0.273 OA
ATOM      3  N   UNL     1     -34.982  29.649   1.562  0.00  0.00    -0.260 N 
ATOM      4  C   UNL     1     -34.481  28.274   1.483  0.00  0.00    +0.151 C 
ATOM      5  C   UNL     1     -36.515  28.817  -0.107  0.00  0.00    +0.068 C 
ATOM      6  CA  UNL     1     -36.164  30.011   0.807  0.00  0.00    +0.184 C 
ATOM      7  CA  UNL     1     -34.297  28.322   3.007  0.00  0.00    +0.178 C 
ATOM      8  C   UNL     1     -34.849  29.759   2.916  0.00  0.00    +0.247 C 
ATOM      9  C   UNL     1     -35.791  28.818  -1.461  0.00  0.00    +0.013 C 
ATOM     10  C   UNL     1     -38.024  28.701  -0.320  0.00  0.00    +0.013 C 
ENDROOT
BRANCH   7  12
ATOM     11  O   UNL     1     -33.370  26.264   4.819  0.00  0.00    -0.275 OA
ATOM     12  N   UNL     1     -35.120  27.416   3.820  0.00  0.00    -0.296 N 
ATOM     13  C   UNL     1     -34.575  26.450   4.669  0.00  0.00    +0.227 C 
ATOM     14  H   UNL     1     -36.100  27.493   3.762  0.00  0.00    +0.150 HD
BRANCH  13  15
ATOM     15  C   UNL     1     -35.645  25.651   5.386  0.00  0.00    +0.111 C 
BRANCH  15  16
ATOM     16  C   UNL     1     -35.538  24.167   5.152  0.00  0.00    -0.013 C 
ATOM     17  C   UNL     1     -35.233  23.328   6.214  0.00  0.00    -0.004 C 
ATOM     18  C   UNL     1     -35.746  23.661   3.877  0.00  0.00    -0.004 C 
ATOM     19  C   UNL     1     -35.135  21.953   5.997  0.00  0.00    -0.000 C 
ATOM     20  C   UNL     1     -35.647  22.286   3.659  0.00  0.00    -0.000 C 
ATOM     21  C   UNL     1     -35.342  21.432   4.720  0.00  0.00    -0.000 C 
ENDBRANCH  15  16
ENDBRANCH  13  15
ENDBRANCH   7  12
BRANCH   6  23
ATOM     22  OXT UNL     1     -36.694  32.021  -0.421  0.00  0.00    -0.248 OA
ATOM     23  C   UNL     1     -35.861  31.292   0.097  0.00  0.00    +0.333 C 
BRANCH  23  24
ATOM     24  O   UNL     1     -34.528  31.539   0.102  0.00  0.00    -0.479 OA
ATOM     25  H   UNL     1     -34.136  32.003  -0.611  0.00  0.00    +0.295 HD
ENDBRANCH  23  24
ENDBRANCH   6  23
TORSDOF 5
ENDMDL
MODEL 9
REMARK VINA RESULT:      -5.6      3.446      4.723
REMARK  Name = 5904
REMARK  5 active torsions:
REMARK  status: ('A' for Active; 'I' for Inactive)
REMARK    1  A    between atoms: CA_6  and  C_23
REMARK    2  A    between atoms: CA_7  and  N_12
REMARK    3  A    between atoms: C_13  and  C_15
REMARK    4  A    between atoms: C_15  and  C_16
REMARK    5  A    between atoms: C_23  and  O_24
REMARK                            x       y       z     vdW  Elec       q    Type
REMARK                         _______ _______ _______ _____ _____    ______ ____
ROOT
ATOM      1  S   UNL     1     -34.914  23.526   2.416  0.00  0.00    -0.118 S 
ATOM      2  O   UNL     1     -31.445  26.238   2.546  0.00  0.00    -0.273 OA
ATOM      3  N   UNL     1     -33.742  25.797   2.860  0.00  0.00    -0.260 N 
ATOM      4  C   UNL     1     -34.467  25.172   1.750  0.00  0.00    +0.151 C 
ATOM      5  C   UNL     1     -35.039  24.215   4.142  0.00  0.00    +0.068 C 
ATOM      6  CA  UNL     1     -33.909  25.265   4.197  0.00  0.00    +0.184 C 
ATOM      7  CA  UNL     1     -33.168  25.259   0.937  0.00  0.00    +0.178 C 
ATOM      8  C   UNL     1     -32.553  25.900   2.197  0.00  0.00    +0.247 C 
ATOM      9  C   UNL     1     -36.451  24.789   4.319  0.00  0.00    +0.013 C 
ATOM     10  C   UNL     1     -34.802  23.086   5.146  0.00  0.00    +0.013 C 
ENDROOT
BRANCH   7  12
ATOM     11  O   UNL     1     -33.485  23.853  -1.573  0.00  0.00    -0.275 OA
ATOM     12  N   UNL     1     -32.530  23.996   0.538  0.00  0.00    -0.296 N 
ATOM     13  C   UNL     1     -32.748  23.394  -0.703  0.00  0.00    +0.227 C 
ATOM     14  H   UNL     1     -31.923  23.555   1.175  0.00  0.00    +0.150 HD
BRANCH  13  15
ATOM     15  C   UNL     1     -31.971  22.101  -0.855  0.00  0.00    +0.111 C 
BRANCH  15  16
ATOM     16  C   UNL     1     -32.563  20.955  -0.078  0.00  0.00    -0.013 C 
ATOM     17  C   UNL     1     -31.747  19.905   0.318  0.00  0.00    -0.004 C 
ATOM     18  C   UNL     1     -33.917  20.963   0.227  0.00  0.00    -0.004 C 
ATOM     19  C   UNL     1     -32.295  18.843   1.038  0.00  0.00    -0.000 C 
ATOM     20  C   UNL     1     -34.465  19.901   0.947  0.00  0.00    -0.000 C 
ATOM     21  C   UNL     1     -33.654  18.840   1.352  0.00  0.00    -0.000 C 
ENDBRANCH  15  16
ENDBRANCH  13  15
ENDBRANCH   7  12
BRANCH   6  23
ATOM     22  OXT UNL     1     -34.079  26.391   6.327  0.00  0.00    -0.248 OA
ATOM     23  C   UNL     1     -34.159  26.426   5.107  0.00  0.00    +0.333 C 
BRANCH  23  24
ATOM     24  O   UNL     1     -34.491  27.530   4.395  0.00  0.00    -0.479 OA
ATOM     25  H   UNL     1     -33.949  27.808   3.684  0.00  0.00    +0.295 HD
ENDBRANCH  23  24
ENDBRANCH   6  23
TORSDOF 5
ENDMDL
