MODEL 1
REMARK VINA RESULT:      -6.7      0.000      0.000
REMARK  Name = 5311023
REMARK  13 active torsions:
REMARK  status: ('A' for Active; 'I' for Inactive)
REMARK    1  A    between atoms: C_1  and  N_3
REMARK    2  A    between atoms: C_1  and  C_21
REMARK    3  A    between atoms: C_1  and  C_32
REMARK    4  A    between atoms: C_4  and  C_6
REMARK    5  A    between atoms: C_6  and  C_7
REMARK    6  A    between atoms: C_6  and  C_13
REMARK    7  A    between atoms: N_20  and  C_23
REMARK    8  A    between atoms: C_23  and  C_24
REMARK    9  A    between atoms: C_29  and  O_30
REMARK   10  A    between atoms: C_32  and  C_33
REMARK   11  A    between atoms: C_33  and  C_34
REMARK   12  A    between atoms: C_34  and  N_35
REMARK   13  A    between atoms: N_35  and  C_38
REMARK                            x       y       z     vdW  Elec       q    Type
REMARK                         _______ _______ _______ _____ _____    ______ ____
ROOT
ATOM      1  C   UNL     1     -35.756  22.208   3.637  0.00  0.00    +0.149 C 
ENDROOT
BRANCH   1   3
ATOM      2  O   UNL     1     -34.587  21.979   1.034  0.00  0.00    -0.274 OA
ATOM      3  N   UNL     1     -35.415  20.985   2.957  0.00  0.00    -0.298 N 
ATOM      4  C   UNL     1     -34.847  20.970   1.687  0.00  0.00    +0.231 C 
ATOM      5  H   UNL     1     -35.590  20.127   3.407  0.00  0.00    +0.150 HD
BRANCH   4   6
ATOM      6  C   UNL     1     -34.576  19.551   1.182  0.00  0.00    +0.121 C 
BRANCH   6   7
ATOM      7  C   UNL     1     -35.525  19.148   0.061  0.00  0.00    -0.010 C 
ATOM      8  C   UNL     1     -36.814  18.709   0.363  0.00  0.00    -0.003 C 
ATOM      9  C   UNL     1     -35.105  19.218  -1.267  0.00  0.00    -0.003 C 
ATOM     10  C   UNL     1     -37.684  18.341  -0.663  0.00  0.00    -0.000 C 
ATOM     11  C   UNL     1     -35.975  18.850  -2.294  0.00  0.00    -0.000 C 
ATOM     12  C   UNL     1     -37.264  18.410  -1.992  0.00  0.00    -0.000 C 
ENDBRANCH   6   7
BRANCH   6  13
ATOM     13  C   UNL     1     -33.110  19.307   0.838  0.00  0.00    -0.010 C 
ATOM     14  C   UNL     1     -32.388  20.271   0.136  0.00  0.00    -0.003 C 
ATOM     15  C   UNL     1     -32.491  18.118   1.226  0.00  0.00    -0.003 C 
ATOM     16  C   UNL     1     -31.049  20.048  -0.180  0.00  0.00    -0.000 C 
ATOM     17  C   UNL     1     -31.152  17.895   0.911  0.00  0.00    -0.000 C 
ATOM     18  C   UNL     1     -30.430  18.859   0.209  0.00  0.00    -0.000 C 
ENDBRANCH   6  13
ENDBRANCH   4   6
ENDBRANCH   1   3
BRANCH   1  21
ATOM     19  O   UNL     1     -37.637  23.729   3.479  0.00  0.00    -0.273 OA
ATOM     20  N   UNL     1     -37.813  21.631   2.502  0.00  0.00    -0.299 N 
ATOM     21  C   UNL     1     -37.163  22.625   3.221  0.00  0.00    +0.241 C 
ATOM     22  H   UNL     1     -37.345  20.778   2.349  0.00  0.00    +0.150 HD
BRANCH  20  23
ATOM     23  C   UNL     1     -39.146  21.792   1.969  0.00  0.00    +0.116 C 
BRANCH  23  24
ATOM     24  C   UNL     1     -39.170  21.671   0.473  0.00  0.00    -0.002 C 
ATOM     25  C   UNL     1     -40.272  21.099  -0.164  0.00  0.00    +0.000 C 
ATOM     26  C   UNL     1     -38.092  22.132  -0.282  0.00  0.00    +0.000 C 
ATOM     27  C   UNL     1     -40.295  20.987  -1.553  0.00  0.00    +0.036 C 
ATOM     28  C   UNL     1     -38.115  22.020  -1.672  0.00  0.00    +0.036 C 
ATOM     29  C   UNL     1     -39.216  21.447  -2.308  0.00  0.00    +0.134 C 
BRANCH  29  30
ATOM     30  O   UNL     1     -39.239  21.338  -3.664  0.00  0.00    -0.506 OA
ATOM     31  H   UNL     1     -40.042  21.464  -4.131  0.00  0.00    +0.292 HD
ENDBRANCH  29  30
ENDBRANCH  23  24
ENDBRANCH  20  23
ENDBRANCH   1  21
BRANCH   1  32
ATOM     32  C   UNL     1     -35.594  22.087   5.158  0.00  0.00    +0.031 C 
BRANCH  32  33
ATOM     33  C   UNL     1     -34.870  23.277   5.806  0.00  0.00    +0.029 C 
BRANCH  33  34
ATOM     34  C   UNL     1     -34.353  24.274   4.773  0.00  0.00    +0.129 C 
BRANCH  34  35
ATOM     35  N   UNL     1     -34.509  25.641   5.273  0.00  0.00    -0.240 NA
BRANCH  35  38
ATOM     36  N   UNL     1     -36.844  26.138   5.012  0.00  0.00    -0.370 N 
ATOM     37  N   UNL     1     -35.260  27.394   3.959  0.00  0.00    -0.370 N 
ATOM     38  C   UNL     1     -35.498  26.329   4.794  0.00  0.00    +0.189 C 
ATOM     39  H   UNL     1     -37.149  25.405   5.594  0.00  0.00    +0.159 HD
ATOM     40  H   UNL     1     -37.501  26.735   4.585  0.00  0.00    +0.159 HD
ATOM     41  H   UNL     1     -34.336  27.638   3.722  0.00  0.00    +0.159 HD
ATOM     42  H   UNL     1     -36.015  27.914   3.597  0.00  0.00    +0.159 HD
ENDBRANCH  35  38
ENDBRANCH  34  35
ENDBRANCH  33  34
ENDBRANCH  32  33
ENDBRANCH   1  32
TORSDOF 13
ENDMDL
MODEL 2
REMARK VINA RESULT:      -6.5      2.349      5.046
REMARK  Name = 5311023
REMARK  13 active torsions:
REMARK  status: ('A' for Active; 'I' for Inactive)
REMARK    1  A    between atoms: C_1  and  N_3
REMARK    2  A    between atoms: C_1  and  C_21
REMARK    3  A    between atoms: C_1  and  C_32
REMARK    4  A    between atoms: C_4  and  C_6
REMARK    5  A    between atoms: C_6  and  C_7
REMARK    6  A    between atoms: C_6  and  C_13
REMARK    7  A    between atoms: N_20  and  C_23
REMARK    8  A    between atoms: C_23  and  C_24
REMARK    9  A    between atoms: C_29  and  O_30
REMARK   10  A    between atoms: C_32  and  C_33
REMARK   11  A    between atoms: C_33  and  C_34
REMARK   12  A    between atoms: C_34  and  N_35
REMARK   13  A    between atoms: N_35  and  C_38
REMARK                            x       y       z     vdW  Elec       q    Type
REMARK                         _______ _______ _______ _____ _____    ______ ____
ROOT
ATOM      1  C   UNL     1     -39.131  22.267   1.109  0.00  0.00    +0.149 C 
ENDROOT
BRANCH   1   3
ATOM      2  O   UNL     1     -36.444  22.079   0.139  0.00  0.00    -0.274 OA
ATOM      3  N   UNL     1     -37.994  21.758   1.832  0.00  0.00    -0.298 N 
ATOM      4  C   UNL     1     -36.719  21.705   1.277  0.00  0.00    +0.231 C 
ATOM      5  H   UNL     1     -38.123  21.435   2.753  0.00  0.00    +0.150 HD
BRANCH   4   6
ATOM      6  C   UNL     1     -35.682  21.127   2.245  0.00  0.00    +0.121 C 
BRANCH   6   7
ATOM      7  C   UNL     1     -34.442  20.617   1.521  0.00  0.00    -0.010 C 
ATOM      8  C   UNL     1     -33.763  21.449   0.632  0.00  0.00    -0.003 C 
ATOM      9  C   UNL     1     -33.988  19.318   1.747  0.00  0.00    -0.003 C 
ATOM     10  C   UNL     1     -32.627  20.983  -0.031  0.00  0.00    -0.000 C 
ATOM     11  C   UNL     1     -32.853  18.851   1.084  0.00  0.00    -0.000 C 
ATOM     12  C   UNL     1     -32.173  19.684   0.195  0.00  0.00    -0.000 C 
ENDBRANCH   6   7
BRANCH   6  13
ATOM     13  C   UNL     1     -35.353  22.066   3.401  0.00  0.00    -0.010 C 
ATOM     14  C   UNL     1     -35.047  23.403   3.149  0.00  0.00    -0.003 C 
ATOM     15  C   UNL     1     -35.358  21.586   4.711  0.00  0.00    -0.003 C 
ATOM     16  C   UNL     1     -34.746  24.261   4.206  0.00  0.00    -0.000 C 
ATOM     17  C   UNL     1     -35.057  22.444   5.768  0.00  0.00    -0.000 C 
ATOM     18  C   UNL     1     -34.751  23.781   5.516  0.00  0.00    -0.000 C 
ENDBRANCH   6  13
ENDBRANCH   4   6
ENDBRANCH   1   3
BRANCH   1  21
ATOM     19  O   UNL     1     -41.032  20.924   0.431  0.00  0.00    -0.273 OA
ATOM     20  N   UNL     1     -38.918  20.319  -0.311  0.00  0.00    -0.299 N 
ATOM     21  C   UNL     1     -39.817  21.106   0.395  0.00  0.00    +0.241 C 
ATOM     22  H   UNL     1     -37.962  20.551  -0.275  0.00  0.00    +0.150 HD
BRANCH  20  23
ATOM     23  C   UNL     1     -39.323  19.177  -1.097  0.00  0.00    +0.116 C 
BRANCH  23  24
ATOM     24  C   UNL     1     -38.402  18.007  -0.902  0.00  0.00    -0.002 C 
ATOM     25  C   UNL     1     -38.893  16.706  -1.016  0.00  0.00    +0.000 C 
ATOM     26  C   UNL     1     -37.055  18.220  -0.609  0.00  0.00    +0.000 C 
ATOM     27  C   UNL     1     -38.039  15.619  -0.836  0.00  0.00    +0.036 C 
ATOM     28  C   UNL     1     -36.200  17.133  -0.429  0.00  0.00    +0.036 C 
ATOM     29  C   UNL     1     -36.691  15.833  -0.542  0.00  0.00    +0.134 C 
BRANCH  29  30
ATOM     30  O   UNL     1     -35.857  14.772  -0.366  0.00  0.00    -0.506 OA
ATOM     31  H   UNL     1     -36.172  13.991   0.046  0.00  0.00    +0.292 HD
ENDBRANCH  29  30
ENDBRANCH  23  24
ENDBRANCH  20  23
ENDBRANCH   1  21
BRANCH   1  32
ATOM     32  C   UNL     1     -40.084  23.059   2.013  0.00  0.00    +0.031 C 
BRANCH  32  33
ATOM     33  C   UNL     1     -40.505  24.420   1.438  0.00  0.00    +0.029 C 
BRANCH  33  34
ATOM     34  C   UNL     1     -40.396  25.541   2.467  0.00  0.00    +0.129 C 
BRANCH  34  35
ATOM     35  N   UNL     1     -39.161  26.299   2.253  0.00  0.00    -0.240 NA
BRANCH  35  38
ATOM     36  N   UNL     1     -38.143  25.148   4.099  0.00  0.00    -0.370 N 
ATOM     37  N   UNL     1     -36.970  26.688   2.897  0.00  0.00    -0.370 N 
ATOM     38  C   UNL     1     -38.172  26.039   3.050  0.00  0.00    +0.189 C 
ATOM     39  H   UNL     1     -38.943  24.616   4.316  0.00  0.00    +0.159 HD
ATOM     40  H   UNL     1     -37.322  25.042   4.632  0.00  0.00    +0.159 HD
ATOM     41  H   UNL     1     -36.857  27.354   2.180  0.00  0.00    +0.159 HD
ATOM     42  H   UNL     1     -36.221  26.487   3.504  0.00  0.00    +0.159 HD
ENDBRANCH  35  38
ENDBRANCH  34  35
ENDBRANCH  33  34
ENDBRANCH  32  33
ENDBRANCH   1  32
TORSDOF 13
ENDMDL
MODEL 3
REMARK VINA RESULT:      -6.3      3.117      6.853
REMARK  Name = 5311023
REMARK  13 active torsions:
REMARK  status: ('A' for Active; 'I' for Inactive)
REMARK    1  A    between atoms: C_1  and  N_3
REMARK    2  A    between atoms: C_1  and  C_21
REMARK    3  A    between atoms: C_1  and  C_32
REMARK    4  A    between atoms: C_4  and  C_6
REMARK    5  A    between atoms: C_6  and  C_7
REMARK    6  A    between atoms: C_6  and  C_13
REMARK    7  A    between atoms: N_20  and  C_23
REMARK    8  A    between atoms: C_23  and  C_24
REMARK    9  A    between atoms: C_29  and  O_30
REMARK   10  A    between atoms: C_32  and  C_33
REMARK   11  A    between atoms: C_33  and  C_34
REMARK   12  A    between atoms: C_34  and  N_35
REMARK   13  A    between atoms: N_35  and  C_38
REMARK                            x       y       z     vdW  Elec       q    Type
REMARK                         _______ _______ _______ _____ _____    ______ ____
ROOT
ATOM      1  C   UNL     1     -38.671  20.879  -0.140  0.00  0.00    +0.149 C 
ENDROOT
BRANCH   1   3
ATOM      2  O   UNL     1     -38.188  21.774   2.535  0.00  0.00    -0.274 OA
ATOM      3  N   UNL     1     -37.419  21.354   0.390  0.00  0.00    -0.298 N 
ATOM      4  C   UNL     1     -37.277  21.771   1.710  0.00  0.00    +0.231 C 
ATOM      5  H   UNL     1     -36.634  21.386  -0.204  0.00  0.00    +0.150 HD
BRANCH   4   6
ATOM      6  C   UNL     1     -35.851  22.227   2.029  0.00  0.00    +0.121 C 
BRANCH   6   7
ATOM      7  C   UNL     1     -35.656  22.504   3.515  0.00  0.00    -0.010 C 
ATOM      8  C   UNL     1     -35.779  23.805   4.004  0.00  0.00    -0.003 C 
ATOM      9  C   UNL     1     -35.355  21.457   4.386  0.00  0.00    -0.003 C 
ATOM     10  C   UNL     1     -35.600  24.058   5.364  0.00  0.00    -0.000 C 
ATOM     11  C   UNL     1     -35.176  21.710   5.746  0.00  0.00    -0.000 C 
ATOM     12  C   UNL     1     -35.299  23.011   6.234  0.00  0.00    -0.000 C 
ENDBRANCH   6   7
BRANCH   6  13
ATOM     13  C   UNL     1     -34.782  21.306   1.450  0.00  0.00    -0.010 C 
ATOM     14  C   UNL     1     -34.734  19.966   1.832  0.00  0.00    -0.003 C 
ATOM     15  C   UNL     1     -33.853  21.805   0.536  0.00  0.00    -0.003 C 
ATOM     16  C   UNL     1     -33.756  19.125   1.302  0.00  0.00    -0.000 C 
ATOM     17  C   UNL     1     -32.876  20.964   0.007  0.00  0.00    -0.000 C 
ATOM     18  C   UNL     1     -32.827  19.624   0.389  0.00  0.00    -0.000 C 
ENDBRANCH   6  13
ENDBRANCH   4   6
ENDBRANCH   1   3
BRANCH   1  21
ATOM     19  O   UNL     1     -39.300  22.618  -1.708  0.00  0.00    -0.273 OA
ATOM     20  N   UNL     1     -40.464  22.444   0.292  0.00  0.00    -0.299 N 
ATOM     21  C   UNL     1     -39.486  22.075  -0.621  0.00  0.00    +0.241 C 
ATOM     22  H   UNL     1     -40.531  21.944   1.137  0.00  0.00    +0.150 HD
BRANCH  20  23
ATOM     23  C   UNL     1     -41.388  23.529   0.057  0.00  0.00    +0.116 C 
BRANCH  23  24
ATOM     24  C   UNL     1     -41.356  24.544   1.163  0.00  0.00    -0.002 C 
ATOM     25  C   UNL     1     -42.436  25.407   1.350  0.00  0.00    +0.000 C 
ATOM     26  C   UNL     1     -40.247  24.624   2.005  0.00  0.00    +0.000 C 
ATOM     27  C   UNL     1     -42.407  26.350   2.377  0.00  0.00    +0.036 C 
ATOM     28  C   UNL     1     -40.217  25.567   3.032  0.00  0.00    +0.036 C 
ATOM     29  C   UNL     1     -41.296  26.430   3.218  0.00  0.00    +0.134 C 
BRANCH  29  30
ATOM     30  O   UNL     1     -41.268  27.350   4.221  0.00  0.00    -0.506 OA
ATOM     31  H   UNL     1     -41.127  28.255   4.022  0.00  0.00    +0.292 HD
ENDBRANCH  29  30
ENDBRANCH  23  24
ENDBRANCH  20  23
ENDBRANCH   1  21
BRANCH   1  32
ATOM     32  C   UNL     1     -38.472  19.816  -1.228  0.00  0.00    +0.031 C 
BRANCH  32  33
ATOM     33  C   UNL     1     -37.098  19.130  -1.189  0.00  0.00    +0.029 C 
BRANCH  33  34
ATOM     34  C   UNL     1     -37.192  17.631  -1.458  0.00  0.00    +0.129 C 
BRANCH  34  35
ATOM     35  N   UNL     1     -38.316  17.058  -0.715  0.00  0.00    -0.240 NA
BRANCH  35  38
ATOM     36  N   UNL     1     -38.947  14.786  -0.258  0.00  0.00    -0.370 N 
ATOM     37  N   UNL     1     -37.002  15.643   0.565  0.00  0.00    -0.370 N 
ATOM     38  C   UNL     1     -38.130  15.891  -0.182  0.00  0.00    +0.189 C 
ATOM     39  H   UNL     1     -39.790  14.831  -0.765  0.00  0.00    +0.159 HD
ATOM     40  H   UNL     1     -38.690  13.951   0.196  0.00  0.00    +0.159 HD
ATOM     41  H   UNL     1     -36.333  16.353   0.698  0.00  0.00    +0.159 HD
ATOM     42  H   UNL     1     -36.865  14.755   0.968  0.00  0.00    +0.159 HD
ENDBRANCH  35  38
ENDBRANCH  34  35
ENDBRANCH  33  34
ENDBRANCH  32  33
ENDBRANCH   1  32
TORSDOF 13
ENDMDL
MODEL 4
REMARK VINA RESULT:      -6.2      2.630      5.691
REMARK  Name = 5311023
REMARK  13 active torsions:
REMARK  status: ('A' for Active; 'I' for Inactive)
REMARK    1  A    between atoms: C_1  and  N_3
REMARK    2  A    between atoms: C_1  and  C_21
REMARK    3  A    between atoms: C_1  and  C_32
REMARK    4  A    between atoms: C_4  and  C_6
REMARK    5  A    between atoms: C_6  and  C_7
REMARK    6  A    between atoms: C_6  and  C_13
REMARK    7  A    between atoms: N_20  and  C_23
REMARK    8  A    between atoms: C_23  and  C_24
REMARK    9  A    between atoms: C_29  and  O_30
REMARK   10  A    between atoms: C_32  and  C_33
REMARK   11  A    between atoms: C_33  and  C_34
REMARK   12  A    between atoms: C_34  and  N_35
REMARK   13  A    between atoms: N_35  and  C_38
REMARK                            x       y       z     vdW  Elec       q    Type
REMARK                         _______ _______ _______ _____ _____    ______ ____
ROOT
ATOM      1  C   UNL     1     -38.748  20.569  -0.039  0.00  0.00    +0.149 C 
ENDROOT
BRANCH   1   3
ATOM      2  O   UNL     1     -36.017  21.359  -0.375  0.00  0.00    -0.274 OA
ATOM      3  N   UNL     1     -37.668  20.329   0.883  0.00  0.00    -0.298 N 
ATOM      4  C   UNL     1     -36.366  20.752   0.635  0.00  0.00    +0.231 C 
ATOM      5  H   UNL     1     -37.857  19.848   1.721  0.00  0.00    +0.150 HD
BRANCH   4   6
ATOM      6  C   UNL     1     -35.403  20.380   1.766  0.00  0.00    +0.121 C 
BRANCH   6   7
ATOM      7  C   UNL     1     -34.021  20.006   1.244  0.00  0.00    -0.010 C 
ATOM      8  C   UNL     1     -33.443  18.791   1.613  0.00  0.00    -0.003 C 
ATOM      9  C   UNL     1     -33.335  20.878   0.400  0.00  0.00    -0.003 C 
ATOM     10  C   UNL     1     -32.178  18.448   1.135  0.00  0.00    -0.000 C 
ATOM     11  C   UNL     1     -32.070  20.535  -0.078  0.00  0.00    -0.000 C 
ATOM     12  C   UNL     1     -31.492  19.320   0.290  0.00  0.00    -0.000 C 
ENDBRANCH   6   7
BRANCH   6  13
ATOM     13  C   UNL     1     -35.357  21.421   2.881  0.00  0.00    -0.010 C 
ATOM     14  C   UNL     1     -35.245  21.015   4.210  0.00  0.00    -0.003 C 
ATOM     15  C   UNL     1     -35.427  22.779   2.569  0.00  0.00    -0.003 C 
ATOM     16  C   UNL     1     -35.204  21.966   5.229  0.00  0.00    -0.000 C 
ATOM     17  C   UNL     1     -35.386  23.730   3.588  0.00  0.00    -0.000 C 
ATOM     18  C   UNL     1     -35.274  23.324   4.918  0.00  0.00    -0.000 C 
ENDBRANCH   6  13
ENDBRANCH   4   6
ENDBRANCH   1   3
BRANCH   1  21
ATOM     19  O   UNL     1     -40.108  19.127  -1.435  0.00  0.00    -0.273 OA
ATOM     20  N   UNL     1     -38.241  18.229  -0.389  0.00  0.00    -0.299 N 
ATOM     21  C   UNL     1     -39.132  19.247  -0.698  0.00  0.00    +0.241 C 
ATOM     22  H   UNL     1     -37.489  18.429   0.214  0.00  0.00    +0.150 HD
BRANCH  20  23
ATOM     23  C   UNL     1     -38.367  16.889  -0.915  0.00  0.00    +0.116 C 
BRANCH  23  24
ATOM     24  C   UNL     1     -37.050  16.168  -0.938  0.00  0.00    -0.002 C 
ATOM     25  C   UNL     1     -36.963  14.892  -1.495  0.00  0.00    +0.000 C 
ATOM     26  C   UNL     1     -35.914  16.775  -0.405  0.00  0.00    +0.000 C 
ATOM     27  C   UNL     1     -35.741  14.222  -1.517  0.00  0.00    +0.036 C 
ATOM     28  C   UNL     1     -34.690  16.105  -0.426  0.00  0.00    +0.036 C 
ATOM     29  C   UNL     1     -34.604  14.829  -0.982  0.00  0.00    +0.134 C 
BRANCH  29  30
ATOM     30  O   UNL     1     -33.410  14.175  -1.004  0.00  0.00    -0.506 OA
ATOM     31  H   UNL     1     -33.382  13.247  -0.879  0.00  0.00    +0.292 HD
ENDBRANCH  29  30
ENDBRANCH  23  24
ENDBRANCH  20  23
ENDBRANCH   1  21
BRANCH   1  32
ATOM     32  C   UNL     1     -39.936  21.269   0.632  0.00  0.00    +0.031 C 
BRANCH  32  33
ATOM     33  C   UNL     1     -39.610  21.881   2.002  0.00  0.00    +0.029 C 
BRANCH  33  34
ATOM     34  C   UNL     1     -39.524  23.404   1.951  0.00  0.00    +0.129 C 
BRANCH  34  35
ATOM     35  N   UNL     1     -38.934  23.914   3.191  0.00  0.00    -0.240 NA
BRANCH  35  38
ATOM     36  N   UNL     1     -38.130  26.160   3.467  0.00  0.00    -0.370 N 
ATOM     37  N   UNL     1     -40.345  25.678   3.707  0.00  0.00    -0.370 N 
ATOM     38  C   UNL     1     -39.093  25.177   3.436  0.00  0.00    +0.189 C 
ATOM     39  H   UNL     1     -37.188  25.932   3.289  0.00  0.00    +0.159 HD
ATOM     40  H   UNL     1     -38.382  27.090   3.667  0.00  0.00    +0.159 HD
ATOM     41  H   UNL     1     -41.124  25.077   3.717  0.00  0.00    +0.159 HD
ATOM     42  H   UNL     1     -40.460  26.638   3.893  0.00  0.00    +0.159 HD
ENDBRANCH  35  38
ENDBRANCH  34  35
ENDBRANCH  33  34
ENDBRANCH  32  33
ENDBRANCH   1  32
TORSDOF 13
ENDMDL
MODEL 5
REMARK VINA RESULT:      -6.2      5.762     10.322
REMARK  Name = 5311023
REMARK  13 active torsions:
REMARK  status: ('A' for Active; 'I' for Inactive)
REMARK    1  A    between atoms: C_1  and  N_3
REMARK    2  A    between atoms: C_1  and  C_21
REMARK    3  A    between atoms: C_1  and  C_32
REMARK    4  A    between atoms: C_4  and  C_6
REMARK    5  A    between atoms: C_6  and  C_7
REMARK    6  A    between atoms: C_6  and  C_13
REMARK    7  A    between atoms: N_20  and  C_23
REMARK    8  A    between atoms: C_23  and  C_24
REMARK    9  A    between atoms: C_29  and  O_30
REMARK   10  A    between atoms: C_32  and  C_33
REMARK   11  A    between atoms: C_33  and  C_34
REMARK   12  A    between atoms: C_34  and  N_35
REMARK   13  A    between atoms: N_35  and  C_38
REMARK                            x       y       z     vdW  Elec       q    Type
REMARK                         _______ _______ _______ _____ _____    ______ ____
ROOT
ATOM      1  C   UNL     1     -33.777  28.288   3.452  0.00  0.00    +0.149 C 
ENDROOT
BRANCH   1   3
ATOM      2  O   UNL     1     -34.617  30.960   4.044  0.00  0.00    -0.274 OA
ATOM      3  N   UNL     1     -33.773  29.407   2.545  0.00  0.00    -0.298 N 
ATOM      4  C   UNL     1     -34.201  30.676   2.922  0.00  0.00    +0.231 C 
ATOM      5  H   UNL     1     -33.455  29.269   1.623  0.00  0.00    +0.150 HD
BRANCH   4   6
ATOM      6  C   UNL     1     -34.096  31.693   1.783  0.00  0.00    +0.121 C 
BRANCH   6   7
ATOM      7  C   UNL     1     -35.448  31.976   1.140  0.00  0.00    -0.010 C 
ATOM      8  C   UNL     1     -36.611  31.923   1.910  0.00  0.00    -0.003 C 
ATOM      9  C   UNL     1     -35.524  32.289  -0.217  0.00  0.00    -0.003 C 
ATOM     10  C   UNL     1     -37.848  32.183   1.322  0.00  0.00    -0.000 C 
ATOM     11  C   UNL     1     -36.761  32.548  -0.805  0.00  0.00    -0.000 C 
ATOM     12  C   UNL     1     -37.924  32.495  -0.036  0.00  0.00    -0.000 C 
ENDBRANCH   6   7
BRANCH   6  13
ATOM     13  C   UNL     1     -33.347  32.961   2.178  0.00  0.00    -0.010 C 
ATOM     14  C   UNL     1     -32.091  32.871   2.777  0.00  0.00    -0.003 C 
ATOM     15  C   UNL     1     -33.919  34.211   1.940  0.00  0.00    -0.003 C 
ATOM     16  C   UNL     1     -31.406  34.031   3.139  0.00  0.00    -0.000 C 
ATOM     17  C   UNL     1     -33.234  35.371   2.301  0.00  0.00    -0.000 C 
ATOM     18  C   UNL     1     -31.978  35.281   2.901  0.00  0.00    -0.000 C 
ENDBRANCH   6  13
ENDBRANCH   4   6
ENDBRANCH   1   3
BRANCH   1  21
ATOM     19  O   UNL     1     -35.094  27.013   1.865  0.00  0.00    -0.273 OA
ATOM     20  N   UNL     1     -35.586  26.829   4.126  0.00  0.00    -0.299 N 
ATOM     21  C   UNL     1     -34.884  27.323   3.035  0.00  0.00    +0.241 C 
ATOM     22  H   UNL     1     -35.339  27.142   5.025  0.00  0.00    +0.150 HD
BRANCH  20  23
ATOM     23  C   UNL     1     -36.663  25.874   3.998  0.00  0.00    +0.116 C 
BRANCH  23  24
ATOM     24  C   UNL     1     -36.229  24.486   4.371  0.00  0.00    -0.002 C 
ATOM     25  C   UNL     1     -35.681  24.240   5.630  0.00  0.00    +0.000 C 
ATOM     26  C   UNL     1     -36.376  23.441   3.459  0.00  0.00    +0.000 C 
ATOM     27  C   UNL     1     -35.280  22.951   5.977  0.00  0.00    +0.036 C 
ATOM     28  C   UNL     1     -35.974  22.151   3.806  0.00  0.00    +0.036 C 
ATOM     29  C   UNL     1     -35.425  21.906   5.064  0.00  0.00    +0.134 C 
BRANCH  29  30
ATOM     30  O   UNL     1     -35.033  20.647   5.403  0.00  0.00    -0.506 OA
ATOM     31  H   UNL     1     -35.673  19.971   5.513  0.00  0.00    +0.292 HD
ENDBRANCH  29  30
ENDBRANCH  23  24
ENDBRANCH  20  23
ENDBRANCH   1  21
BRANCH   1  32
ATOM     32  C   UNL     1     -32.403  27.614   3.546  0.00  0.00    +0.031 C 
BRANCH  32  33
ATOM     33  C   UNL     1     -31.239  28.497   3.069  0.00  0.00    +0.029 C 
BRANCH  33  34
ATOM     34  C   UNL     1     -30.634  29.320   4.202  0.00  0.00    +0.129 C 
BRANCH  34  35
ATOM     35  N   UNL     1     -30.942  28.698   5.492  0.00  0.00    -0.240 NA
BRANCH  35  38
ATOM     36  N   UNL     1     -31.483  29.322   7.748  0.00  0.00    -0.370 N 
ATOM     37  N   UNL     1     -32.285  30.521   5.984  0.00  0.00    -0.370 N 
ATOM     38  C   UNL     1     -31.521  29.448   6.377  0.00  0.00    +0.189 C 
ATOM     39  H   UNL     1     -30.968  28.591   8.161  0.00  0.00    +0.159 HD
ATOM     40  H   UNL     1     -31.970  29.963   8.315  0.00  0.00    +0.159 HD
ATOM     41  H   UNL     1     -32.395  30.723   5.026  0.00  0.00    +0.159 HD
ATOM     42  H   UNL     1     -32.723  31.088   6.660  0.00  0.00    +0.159 HD
ENDBRANCH  35  38
ENDBRANCH  34  35
ENDBRANCH  33  34
ENDBRANCH  32  33
ENDBRANCH   1  32
TORSDOF 13
ENDMDL
MODEL 6
REMARK VINA RESULT:      -6.1      1.381      3.517
REMARK  Name = 5311023
REMARK  13 active torsions:
REMARK  status: ('A' for Active; 'I' for Inactive)
REMARK    1  A    between atoms: C_1  and  N_3
REMARK    2  A    between atoms: C_1  and  C_21
REMARK    3  A    between atoms: C_1  and  C_32
REMARK    4  A    between atoms: C_4  and  C_6
REMARK    5  A    between atoms: C_6  and  C_7
REMARK    6  A    between atoms: C_6  and  C_13
REMARK    7  A    between atoms: N_20  and  C_23
REMARK    8  A    between atoms: C_23  and  C_24
REMARK    9  A    between atoms: C_29  and  O_30
REMARK   10  A    between atoms: C_32  and  C_33
REMARK   11  A    between atoms: C_33  and  C_34
REMARK   12  A    between atoms: C_34  and  N_35
REMARK   13  A    between atoms: N_35  and  C_38
REMARK                            x       y       z     vdW  Elec       q    Type
REMARK                         _______ _______ _______ _____ _____    ______ ____
ROOT
ATOM      1  C   UNL     1     -35.921  22.887   3.141  0.00  0.00    +0.149 C 
ENDROOT
BRANCH   1   3
ATOM      2  O   UNL     1     -34.056  24.188   1.402  0.00  0.00    -0.274 OA
ATOM      3  N   UNL     1     -35.345  22.339   1.940  0.00  0.00    -0.298 N 
ATOM      4  C   UNL     1     -34.442  23.047   1.154  0.00  0.00    +0.231 C 
ATOM      5  H   UNL     1     -35.600  21.428   1.664  0.00  0.00    +0.150 HD
BRANCH   4   6
ATOM      6  C   UNL     1     -33.973  22.248  -0.065  0.00  0.00    +0.121 C 
BRANCH   6   7
ATOM      7  C   UNL     1     -33.331  20.923   0.329  0.00  0.00    -0.010 C 
ATOM      8  C   UNL     1     -32.026  20.635  -0.071  0.00  0.00    -0.003 C 
ATOM      9  C   UNL     1     -34.049  19.999   1.088  0.00  0.00    -0.003 C 
ATOM     10  C   UNL     1     -31.439  19.423   0.290  0.00  0.00    -0.000 C 
ATOM     11  C   UNL     1     -33.461  18.787   1.449  0.00  0.00    -0.000 C 
ATOM     12  C   UNL     1     -32.156  18.499   1.049  0.00  0.00    -0.000 C 
ENDBRANCH   6   7
BRANCH   6  13
ATOM     13  C   UNL     1     -35.052  22.093  -1.132  0.00  0.00    -0.010 C 
ATOM     14  C   UNL     1     -36.178  22.916  -1.110  0.00  0.00    -0.003 C 
ATOM     15  C   UNL     1     -34.912  21.128  -2.129  0.00  0.00    -0.003 C 
ATOM     16  C   UNL     1     -37.165  22.774  -2.085  0.00  0.00    -0.000 C 
ATOM     17  C   UNL     1     -35.899  20.986  -3.104  0.00  0.00    -0.000 C 
ATOM     18  C   UNL     1     -37.025  21.808  -3.083  0.00  0.00    -0.000 C 
ENDBRANCH   6  13
ENDBRANCH   4   6
ENDBRANCH   1   3
BRANCH   1  21
ATOM     19  O   UNL     1     -38.140  23.814   3.455  0.00  0.00    -0.273 OA
ATOM     20  N   UNL     1     -37.913  21.852   2.236  0.00  0.00    -0.299 N 
ATOM     21  C   UNL     1     -37.439  22.920   2.986  0.00  0.00    +0.241 C 
ATOM     22  H   UNL     1     -37.267  21.187   1.905  0.00  0.00    +0.150 HD
BRANCH  20  23
ATOM     23  C   UNL     1     -39.311  21.674   1.921  0.00  0.00    +0.116 C 
BRANCH  23  24
ATOM     24  C   UNL     1     -39.506  21.010   0.588  0.00  0.00    -0.002 C 
ATOM     25  C   UNL     1     -38.562  20.097   0.118  0.00  0.00    +0.000 C 
ATOM     26  C   UNL     1     -40.633  21.304  -0.179  0.00  0.00    +0.000 C 
ATOM     27  C   UNL     1     -38.743  19.480  -1.119  0.00  0.00    +0.036 C 
ATOM     28  C   UNL     1     -40.814  20.688  -1.417  0.00  0.00    +0.036 C 
ATOM     29  C   UNL     1     -39.869  19.776  -1.887  0.00  0.00    +0.134 C 
BRANCH  29  30
ATOM     30  O   UNL     1     -40.046  19.173  -3.095  0.00  0.00    -0.506 OA
ATOM     31  H   UNL     1     -39.483  18.471  -3.355  0.00  0.00    +0.292 HD
ENDBRANCH  29  30
ENDBRANCH  23  24
ENDBRANCH  20  23
ENDBRANCH   1  21
BRANCH   1  32
ATOM     32  C   UNL     1     -35.467  22.133   4.397  0.00  0.00    +0.031 C 
BRANCH  32  33
ATOM     33  C   UNL     1     -34.961  23.045   5.525  0.00  0.00    +0.029 C 
BRANCH  33  34
ATOM     34  C   UNL     1     -34.286  24.306   4.992  0.00  0.00    +0.129 C 
BRANCH  34  35
ATOM     35  N   UNL     1     -34.849  25.489   5.646  0.00  0.00    -0.240 NA
BRANCH  35  38
ATOM     36  N   UNL     1     -35.268  27.297   4.121  0.00  0.00    -0.370 N 
ATOM     37  N   UNL     1     -36.981  26.020   4.913  0.00  0.00    -0.370 N 
ATOM     38  C   UNL     1     -35.624  26.240   4.927  0.00  0.00    +0.189 C 
ATOM     39  H   UNL     1     -34.321  27.559   4.043  0.00  0.00    +0.159 HD
ATOM     40  H   UNL     1     -35.958  27.791   3.622  0.00  0.00    +0.159 HD
ATOM     41  H   UNL     1     -37.368  25.291   5.449  0.00  0.00    +0.159 HD
ATOM     42  H   UNL     1     -37.566  26.593   4.365  0.00  0.00    +0.159 HD
ENDBRANCH  35  38
ENDBRANCH  34  35
ENDBRANCH  33  34
ENDBRANCH  32  33
ENDBRANCH   1  32
TORSDOF 13
ENDMDL
MODEL 7
REMARK VINA RESULT:      -6.1      2.780      6.609
REMARK  Name = 5311023
REMARK  13 active torsions:
REMARK  status: ('A' for Active; 'I' for Inactive)
REMARK    1  A    between atoms: C_1  and  N_3
REMARK    2  A    between atoms: C_1  and  C_21
REMARK    3  A    between atoms: C_1  and  C_32
REMARK    4  A    between atoms: C_4  and  C_6
REMARK    5  A    between atoms: C_6  and  C_7
REMARK    6  A    between atoms: C_6  and  C_13
REMARK    7  A    between atoms: N_20  and  C_23
REMARK    8  A    between atoms: C_23  and  C_24
REMARK    9  A    between atoms: C_29  and  O_30
REMARK   10  A    between atoms: C_32  and  C_33
REMARK   11  A    between atoms: C_33  and  C_34
REMARK   12  A    between atoms: C_34  and  N_35
REMARK   13  A    between atoms: N_35  and  C_38
REMARK                            x       y       z     vdW  Elec       q    Type
REMARK                         _______ _______ _______ _____ _____    ______ ____
ROOT
ATOM      1  C   UNL     1     -39.063  20.606   0.358  0.00  0.00    +0.149 C 
ENDROOT
BRANCH   1   3
ATOM      2  O   UNL     1     -36.746  22.270   0.589  0.00  0.00    -0.274 OA
ATOM      3  N   UNL     1     -37.910  20.357   1.184  0.00  0.00    -0.298 N 
ATOM      4  C   UNL     1     -36.824  21.226   1.233  0.00  0.00    +0.231 C 
ATOM      5  H   UNL     1     -37.888  19.541   1.734  0.00  0.00    +0.150 HD
BRANCH   4   6
ATOM      6  C   UNL     1     -35.728  20.741   2.185  0.00  0.00    +0.121 C 
BRANCH   6   7
ATOM      7  C   UNL     1     -34.423  20.448   1.456  0.00  0.00    -0.010 C 
ATOM      8  C   UNL     1     -33.795  19.213   1.621  0.00  0.00    -0.003 C 
ATOM      9  C   UNL     1     -33.855  21.414   0.626  0.00  0.00    -0.003 C 
ATOM     10  C   UNL     1     -32.600  18.943   0.954  0.00  0.00    -0.000 C 
ATOM     11  C   UNL     1     -32.660  21.144  -0.041  0.00  0.00    -0.000 C 
ATOM     12  C   UNL     1     -32.033  19.909   0.123  0.00  0.00    -0.000 C 
ENDBRANCH   6   7
BRANCH   6  13
ATOM     13  C   UNL     1     -35.542  21.649   3.397  0.00  0.00    -0.010 C 
ATOM     14  C   UNL     1     -35.210  21.101   4.635  0.00  0.00    -0.003 C 
ATOM     15  C   UNL     1     -35.706  23.028   3.266  0.00  0.00    -0.003 C 
ATOM     16  C   UNL     1     -35.040  21.931   5.743  0.00  0.00    -0.000 C 
ATOM     17  C   UNL     1     -35.537  23.858   4.374  0.00  0.00    -0.000 C 
ATOM     18  C   UNL     1     -35.204  23.310   5.612  0.00  0.00    -0.000 C 
ENDBRANCH   6  13
ENDBRANCH   4   6
ENDBRANCH   1   3
BRANCH   1  21
ATOM     19  O   UNL     1     -40.312  22.086   1.817  0.00  0.00    -0.273 OA
ATOM     20  N   UNL     1     -39.430  22.942  -0.152  0.00  0.00    -0.299 N 
ATOM     21  C   UNL     1     -39.685  21.936   0.770  0.00  0.00    +0.241 C 
ATOM     22  H   UNL     1     -38.916  22.719  -0.961  0.00  0.00    +0.150 HD
BRANCH  20  23
ATOM     23  C   UNL     1     -39.884  24.302   0.024  0.00  0.00    +0.116 C 
BRANCH  23  24
ATOM     24  C   UNL     1     -38.891  25.132   0.786  0.00  0.00    -0.002 C 
ATOM     25  C   UNL     1     -37.806  25.705   0.122  0.00  0.00    +0.000 C 
ATOM     26  C   UNL     1     -39.054  25.331   2.156  0.00  0.00    +0.000 C 
ATOM     27  C   UNL     1     -36.884  26.476   0.828  0.00  0.00    +0.036 C 
ATOM     28  C   UNL     1     -38.131  26.102   2.863  0.00  0.00    +0.036 C 
ATOM     29  C   UNL     1     -37.046  26.675   2.200  0.00  0.00    +0.134 C 
BRANCH  29  30
ATOM     30  O   UNL     1     -36.146  27.428   2.890  0.00  0.00    -0.506 OA
ATOM     31  H   UNL     1     -36.426  27.929   3.630  0.00  0.00    +0.292 HD
ENDBRANCH  29  30
ENDBRANCH  23  24
ENDBRANCH  20  23
ENDBRANCH   1  21
BRANCH   1  32
ATOM     32  C   UNL     1     -38.728  20.542  -1.137  0.00  0.00    +0.031 C 
BRANCH  32  33
ATOM     33  C   UNL     1     -37.820  19.365  -1.526  0.00  0.00    +0.029 C 
BRANCH  33  34
ATOM     34  C   UNL     1     -38.395  18.021  -1.088  0.00  0.00    +0.129 C 
BRANCH  34  35
ATOM     35  N   UNL     1     -37.521  17.404  -0.088  0.00  0.00    -0.240 NA
BRANCH  35  38
ATOM     36  N   UNL     1     -38.657  15.294  -0.262  0.00  0.00    -0.370 N 
ATOM     37  N   UNL     1     -36.512  15.403   0.501  0.00  0.00    -0.370 N 
ATOM     38  C   UNL     1     -37.591  16.115   0.031  0.00  0.00    +0.189 C 
ATOM     39  H   UNL     1     -39.494  15.681  -0.608  0.00  0.00    +0.159 HD
ATOM     40  H   UNL     1     -38.582  14.322  -0.126  0.00  0.00    +0.159 HD
ATOM     41  H   UNL     1     -35.683  15.872   0.749  0.00  0.00    +0.159 HD
ATOM     42  H   UNL     1     -36.570  14.424   0.590  0.00  0.00    +0.159 HD
ENDBRANCH  35  38
ENDBRANCH  34  35
ENDBRANCH  33  34
ENDBRANCH  32  33
ENDBRANCH   1  32
TORSDOF 13
ENDMDL
MODEL 8
REMARK VINA RESULT:      -6.1      2.639      6.898
REMARK  Name = 5311023
REMARK  13 active torsions:
REMARK  status: ('A' for Active; 'I' for Inactive)
REMARK    1  A    between atoms: C_1  and  N_3
REMARK    2  A    between atoms: C_1  and  C_21
REMARK    3  A    between atoms: C_1  and  C_32
REMARK    4  A    between atoms: C_4  and  C_6
REMARK    5  A    between atoms: C_6  and  C_7
REMARK    6  A    between atoms: C_6  and  C_13
REMARK    7  A    between atoms: N_20  and  C_23
REMARK    8  A    between atoms: C_23  and  C_24
REMARK    9  A    between atoms: C_29  and  O_30
REMARK   10  A    between atoms: C_32  and  C_33
REMARK   11  A    between atoms: C_33  and  C_34
REMARK   12  A    between atoms: C_34  and  N_35
REMARK   13  A    between atoms: N_35  and  C_38
REMARK                            x       y       z     vdW  Elec       q    Type
REMARK                         _______ _______ _______ _____ _____    ______ ____
ROOT
ATOM      1  C   UNL     1     -37.700  22.318  -0.543  0.00  0.00    +0.149 C 
ENDROOT
BRANCH   1   3
ATOM      2  O   UNL     1     -38.304  21.177   2.012  0.00  0.00    -0.274 OA
ATOM      3  N   UNL     1     -36.749  21.844   0.429  0.00  0.00    -0.298 N 
ATOM      4  C   UNL     1     -37.136  21.302   1.651  0.00  0.00    +0.231 C 
ATOM      5  H   UNL     1     -35.788  21.906   0.222  0.00  0.00    +0.150 HD
BRANCH   4   6
ATOM      6  C   UNL     1     -35.941  20.870   2.506  0.00  0.00    +0.121 C 
BRANCH   6   7
ATOM      7  C   UNL     1     -34.685  20.657   1.671  0.00  0.00    -0.010 C 
ATOM      8  C   UNL     1     -34.034  19.423   1.694  0.00  0.00    -0.003 C 
ATOM      9  C   UNL     1     -34.185  21.694   0.884  0.00  0.00    -0.003 C 
ATOM     10  C   UNL     1     -32.884  19.227   0.929  0.00  0.00    -0.000 C 
ATOM     11  C   UNL     1     -33.035  21.498   0.119  0.00  0.00    -0.000 C 
ATOM     12  C   UNL     1     -32.384  20.265   0.143  0.00  0.00    -0.000 C 
ENDBRANCH   6   7
BRANCH   6  13
ATOM     13  C   UNL     1     -35.708  21.775   3.711  0.00  0.00    -0.010 C 
ATOM     14  C   UNL     1     -36.079  23.119   3.657  0.00  0.00    -0.003 C 
ATOM     15  C   UNL     1     -35.124  21.259   4.868  0.00  0.00    -0.003 C 
ATOM     16  C   UNL     1     -35.866  23.946   4.759  0.00  0.00    -0.000 C 
ATOM     17  C   UNL     1     -34.911  22.086   5.970  0.00  0.00    -0.000 C 
ATOM     18  C   UNL     1     -35.282  23.429   5.916  0.00  0.00    -0.000 C 
ENDBRANCH   6  13
ENDBRANCH   4   6
ENDBRANCH   1   3
BRANCH   1  21
ATOM     19  O   UNL     1     -38.352  24.522  -1.315  0.00  0.00    -0.273 OA
ATOM     20  N   UNL     1     -36.562  24.338   0.151  0.00  0.00    -0.299 N 
ATOM     21  C   UNL     1     -37.590  23.837  -0.636  0.00  0.00    +0.241 C 
ATOM     22  H   UNL     1     -36.006  23.703   0.658  0.00  0.00    +0.150 HD
BRANCH  20  23
ATOM     23  C   UNL     1     -36.272  25.749   0.258  0.00  0.00    +0.116 C 
BRANCH  23  24
ATOM     24  C   UNL     1     -35.354  26.048   1.408  0.00  0.00    -0.002 C 
ATOM     25  C   UNL     1     -35.715  27.001   2.360  0.00  0.00    +0.000 C 
ATOM     26  C   UNL     1     -34.140  25.371   1.525  0.00  0.00    +0.000 C 
ATOM     27  C   UNL     1     -34.863  27.279   3.428  0.00  0.00    +0.036 C 
ATOM     28  C   UNL     1     -33.287  25.648   2.593  0.00  0.00    +0.036 C 
ATOM     29  C   UNL     1     -33.648  26.602   3.544  0.00  0.00    +0.134 C 
BRANCH  29  30
ATOM     30  O   UNL     1     -32.816  26.873   4.587  0.00  0.00    -0.506 OA
ATOM     31  H   UNL     1     -32.429  27.723   4.670  0.00  0.00    +0.292 HD
ENDBRANCH  29  30
ENDBRANCH  23  24
ENDBRANCH  20  23
ENDBRANCH   1  21
BRANCH   1  32
ATOM     32  C   UNL     1     -37.535  21.623  -1.900  0.00  0.00    +0.031 C 
BRANCH  32  33
ATOM     33  C   UNL     1     -36.331  20.672  -1.973  0.00  0.00    +0.029 C 
BRANCH  33  34
ATOM     34  C   UNL     1     -36.753  19.206  -2.031  0.00  0.00    +0.129 C 
BRANCH  34  35
ATOM     35  N   UNL     1     -35.757  18.372  -1.356  0.00  0.00    -0.240 NA
BRANCH  35  38
ATOM     36  N   UNL     1     -35.734  16.337  -0.080  0.00  0.00    -0.370 N 
ATOM     37  N   UNL     1     -37.228  17.992   0.393  0.00  0.00    -0.370 N 
ATOM     38  C   UNL     1     -36.189  17.592  -0.415  0.00  0.00    +0.189 C 
ATOM     39  H   UNL     1     -34.990  15.933  -0.583  0.00  0.00    +0.159 HD
ATOM     40  H   UNL     1     -36.151  15.844   0.663  0.00  0.00    +0.159 HD
ATOM     41  H   UNL     1     -37.646  18.873   0.258  0.00  0.00    +0.159 HD
ATOM     42  H   UNL     1     -37.553  17.396   1.107  0.00  0.00    +0.159 HD
ENDBRANCH  35  38
ENDBRANCH  34  35
ENDBRANCH  33  34
ENDBRANCH  32  33
ENDBRANCH   1  32
TORSDOF 13
ENDMDL
MODEL 9
REMARK VINA RESULT:      -6.1      6.281     11.393
REMARK  Name = 5311023
REMARK  13 active torsions:
REMARK  status: ('A' for Active; 'I' for Inactive)
REMARK    1  A    between atoms: C_1  and  N_3
REMARK    2  A    between atoms: C_1  and  C_21
REMARK    3  A    between atoms: C_1  and  C_32
REMARK    4  A    between atoms: C_4  and  C_6
REMARK    5  A    between atoms: C_6  and  C_7
REMARK    6  A    between atoms: C_6  and  C_13
REMARK    7  A    between atoms: N_20  and  C_23
REMARK    8  A    between atoms: C_23  and  C_24
REMARK    9  A    between atoms: C_29  and  O_30
REMARK   10  A    between atoms: C_32  and  C_33
REMARK   11  A    between atoms: C_33  and  C_34
REMARK   12  A    between atoms: C_34  and  N_35
REMARK   13  A    between atoms: N_35  and  C_38
REMARK                            x       y       z     vdW  Elec       q    Type
REMARK                         _______ _______ _______ _____ _____    ______ ____
ROOT
ATOM      1  C   UNL     1     -40.702  26.498   2.396  0.00  0.00    +0.149 C 
ENDROOT
BRANCH   1   3
ATOM      2  O   UNL     1     -42.299  28.854   2.700  0.00  0.00    -0.274 OA
ATOM      3  N   UNL     1     -41.737  26.710   3.375  0.00  0.00    -0.298 N 
ATOM      4  C   UNL     1     -42.465  27.893   3.448  0.00  0.00    +0.231 C 
ATOM      5  H   UNL     1     -41.937  25.990   4.017  0.00  0.00    +0.150 HD
BRANCH   4   6
ATOM      6  C   UNL     1     -43.507  27.871   4.569  0.00  0.00    +0.121 C 
BRANCH   6   7
ATOM      7  C   UNL     1     -44.040  29.263   4.886  0.00  0.00    -0.010 C 
ATOM      8  C   UNL     1     -45.126  29.773   4.175  0.00  0.00    -0.003 C 
ATOM      9  C   UNL     1     -43.440  30.028   5.887  0.00  0.00    -0.003 C 
ATOM     10  C   UNL     1     -45.613  31.047   4.465  0.00  0.00    -0.000 C 
ATOM     11  C   UNL     1     -43.928  31.302   6.177  0.00  0.00    -0.000 C 
ATOM     12  C   UNL     1     -45.014  31.812   5.465  0.00  0.00    -0.000 C 
ENDBRANCH   6   7
BRANCH   6  13
ATOM     13  C   UNL     1     -44.615  26.849   4.338  0.00  0.00    -0.010 C 
ATOM     14  C   UNL     1     -45.498  26.530   5.370  0.00  0.00    -0.003 C 
ATOM     15  C   UNL     1     -44.745  26.232   3.093  0.00  0.00    -0.003 C 
ATOM     16  C   UNL     1     -46.510  25.595   5.158  0.00  0.00    -0.000 C 
ATOM     17  C   UNL     1     -45.757  25.296   2.882  0.00  0.00    -0.000 C 
ATOM     18  C   UNL     1     -46.640  24.978   3.914  0.00  0.00    -0.000 C 
ENDBRANCH   6  13
ENDBRANCH   4   6
ENDBRANCH   1   3
BRANCH   1  21
ATOM     19  O   UNL     1     -40.000  24.698   3.860  0.00  0.00    -0.273 OA
ATOM     20  N   UNL     1     -38.530  25.445   2.227  0.00  0.00    -0.299 N 
ATOM     21  C   UNL     1     -39.727  25.454   2.931  0.00  0.00    +0.241 C 
ATOM     22  H   UNL     1     -38.409  26.094   1.497  0.00  0.00    +0.150 HD
BRANCH  20  23
ATOM     23  C   UNL     1     -37.455  24.527   2.519  0.00  0.00    +0.116 C 
BRANCH  23  24
ATOM     24  C   UNL     1     -36.456  25.115   3.473  0.00  0.00    -0.002 C 
ATOM     25  C   UNL     1     -36.329  24.593   4.761  0.00  0.00    +0.000 C 
ATOM     26  C   UNL     1     -35.654  26.184   3.072  0.00  0.00    +0.000 C 
ATOM     27  C   UNL     1     -35.401  25.139   5.647  0.00  0.00    +0.036 C 
ATOM     28  C   UNL     1     -34.726  26.731   3.959  0.00  0.00    +0.036 C 
ATOM     29  C   UNL     1     -34.600  26.209   5.246  0.00  0.00    +0.134 C 
BRANCH  29  30
ATOM     30  O   UNL     1     -33.694  26.742   6.110  0.00  0.00    -0.506 OA
ATOM     31  H   UNL     1     -33.404  26.246   6.850  0.00  0.00    +0.292 HD
ENDBRANCH  29  30
ENDBRANCH  23  24
ENDBRANCH  20  23
ENDBRANCH   1  21
BRANCH   1  32
ATOM     32  C   UNL     1     -41.273  26.133   1.020  0.00  0.00    +0.031 C 
BRANCH  32  33
ATOM     33  C   UNL     1     -42.037  24.800   0.994  0.00  0.00    +0.029 C 
BRANCH  33  34
ATOM     34  C   UNL     1     -41.513  23.854  -0.083  0.00  0.00    +0.129 C 
BRANCH  34  35
ATOM     35  N   UNL     1     -40.160  23.408   0.257  0.00  0.00    -0.240 NA
BRANCH  35  38
ATOM     36  N   UNL     1     -39.907  21.031   0.026  0.00  0.00    -0.370 N 
ATOM     37  N   UNL     1     -40.048  21.993   2.088  0.00  0.00    -0.370 N 
ATOM     38  C   UNL     1     -40.044  22.207   0.729  0.00  0.00    +0.189 C 
ATOM     39  H   UNL     1     -39.889  21.045  -0.958  0.00  0.00    +0.159 HD
ATOM     40  H   UNL     1     -39.827  20.176   0.508  0.00  0.00    +0.159 HD
ATOM     41  H   UNL     1     -40.140  22.754   2.706  0.00  0.00    +0.159 HD
ATOM     42  H   UNL     1     -39.959  21.078   2.442  0.00  0.00    +0.159 HD
ENDBRANCH  35  38
ENDBRANCH  34  35
ENDBRANCH  33  34
ENDBRANCH  32  33
ENDBRANCH   1  32
TORSDOF 13
ENDMDL
