MODEL 1
REMARK VINA RESULT:      -6.6      0.000      0.000
REMARK  Name = 54585
REMARK  11 active torsions:
REMARK  status: ('A' for Active; 'I' for Inactive)
REMARK    1  A    between atoms: C_1  and  C_9
REMARK    2  A    between atoms: C_4  and  N_17
REMARK    3  A    between atoms: N_8  and  C_11
REMARK    4  A    between atoms: C_11  and  C_12
REMARK    5  A    between atoms: C_12  and  C_14
REMARK    6  A    between atoms: C_14  and  O_15
REMARK    7  A    between atoms: N_17  and  N_18
REMARK    8  A    between atoms: N_18  and  C_19
REMARK    9  A    between atoms: C_20  and  C_28
REMARK   10  A    between atoms: C_22  and  O_25
REMARK   11  A    between atoms: C_28  and  O_29
REMARK                            x       y       z     vdW  Elec       q    Type
REMARK                         _______ _______ _______ _____ _____    ______ ____
ROOT
ATOM      1  C   UNL     1     -33.648  26.974   4.670  0.00  0.00    +0.053 C 
ATOM      2  C   UNL     1     -33.901  26.176   5.766  0.00  0.00    +0.006 C 
ATOM      3  C   UNL     1     -34.490  27.013   3.577  0.00  0.00    +0.006 C 
ATOM      4  C   UNL     1     -35.916  25.404   4.679  0.00  0.00    +0.089 C 
ATOM      5  C   UNL     1     -35.048  25.382   5.771  0.00  0.00    +0.018 C 
ATOM      6  C   UNL     1     -35.637  26.219   3.582  0.00  0.00    +0.018 C 
ENDROOT
BRANCH   1   9
ATOM      7  O   UNL     1     -31.485  27.512   3.944  0.00  0.00    -0.270 OA
ATOM      8  N   UNL     1     -32.461  28.944   5.486  0.00  0.00    -0.300 N 
ATOM      9  C   UNL     1     -32.428  27.822   4.666  0.00  0.00    +0.246 C 
ATOM     10  H   UNL     1     -33.264  29.109   6.029  0.00  0.00    +0.150 HD
BRANCH   8  11
ATOM     11  C   UNL     1     -31.367  29.874   5.570  0.00  0.00    +0.101 C 
BRANCH  11  12
ATOM     12  C   UNL     1     -30.521  29.651   6.816  0.00  0.00    +0.131 C 
BRANCH  12  14
ATOM     13  O   UNL     1     -28.215  28.995   6.377  0.00  0.00    -0.250 OA
ATOM     14  C   UNL     1     -29.379  28.684   6.590  0.00  0.00    +0.316 C 
BRANCH  14  15
ATOM     15  O   UNL     1     -29.800  27.394   6.661  0.00  0.00    -0.480 OA
ATOM     16  H   UNL     1     -29.949  26.907   5.874  0.00  0.00    +0.295 HD
ENDBRANCH  14  15
ENDBRANCH  12  14
ENDBRANCH  11  12
ENDBRANCH   8  11
ENDBRANCH   1   9
BRANCH   4  17
ATOM     17  N   UNL     1     -37.065  24.607   4.683  0.00  0.00    -0.128 NA
BRANCH  17  18
ATOM     18  N   UNL     1     -37.818  24.936   3.737  0.00  0.00    -0.128 NA
BRANCH  18  19
ATOM     19  C   UNL     1     -38.172  23.802   2.987  0.00  0.00    +0.089 C 
ATOM     20  C   UNL     1     -37.582  21.676   2.016  0.00  0.00    +0.110 C 
ATOM     21  C   UNL     1     -37.231  22.802   2.762  0.00  0.00    +0.028 C 
ATOM     22  C   UNL     1     -38.873  21.556   1.501  0.00  0.00    +0.140 C 
ATOM     23  C   UNL     1     -39.461  23.688   2.475  0.00  0.00    +0.021 C 
ATOM     24  C   UNL     1     -39.812  22.562   1.730  0.00  0.00    +0.038 C 
BRANCH  22  25
ATOM     25  O   UNL     1     -39.235  20.464   0.770  0.00  0.00    -0.505 OA
ATOM     26  H   UNL     1     -39.137  20.471  -0.162  0.00  0.00    +0.292 HD
ENDBRANCH  22  25
BRANCH  20  28
ATOM     27  O   UNL     1     -35.592  20.747   1.069  0.00  0.00    -0.245 OA
ATOM     28  C   UNL     1     -36.588  20.637   1.789  0.00  0.00    +0.341 C 
BRANCH  28  29
ATOM     29  O   UNL     1     -36.868  19.493   2.471  0.00  0.00    -0.477 OA
ATOM     30  H   UNL     1     -37.000  19.521   3.399  0.00  0.00    +0.295 HD
ENDBRANCH  28  29
ENDBRANCH  20  28
ENDBRANCH  18  19
ENDBRANCH  17  18
ENDBRANCH   4  17
TORSDOF 11
ENDMDL
MODEL 2
REMARK VINA RESULT:      -6.5      1.955      2.821
REMARK  Name = 54585
REMARK  11 active torsions:
REMARK  status: ('A' for Active; 'I' for Inactive)
REMARK    1  A    between atoms: C_1  and  C_9
REMARK    2  A    between atoms: C_4  and  N_17
REMARK    3  A    between atoms: N_8  and  C_11
REMARK    4  A    between atoms: C_11  and  C_12
REMARK    5  A    between atoms: C_12  and  C_14
REMARK    6  A    between atoms: C_14  and  O_15
REMARK    7  A    between atoms: N_17  and  N_18
REMARK    8  A    between atoms: N_18  and  C_19
REMARK    9  A    between atoms: C_20  and  C_28
REMARK   10  A    between atoms: C_22  and  O_25
REMARK   11  A    between atoms: C_28  and  O_29
REMARK                            x       y       z     vdW  Elec       q    Type
REMARK                         _______ _______ _______ _____ _____    ______ ____
ROOT
ATOM      1  C   UNL     1     -31.618  28.299   5.267  0.00  0.00    +0.053 C 
ATOM      2  C   UNL     1     -32.361  27.890   4.179  0.00  0.00    +0.006 C 
ATOM      3  C   UNL     1     -31.898  27.874   6.550  0.00  0.00    +0.006 C 
ATOM      4  C   UNL     1     -33.732  26.572   5.669  0.00  0.00    +0.089 C 
ATOM      5  C   UNL     1     -33.429  27.017   4.382  0.00  0.00    +0.018 C 
ATOM      6  C   UNL     1     -32.966  27.002   6.753  0.00  0.00    +0.018 C 
ENDROOT
BRANCH   1   9
ATOM      7  O   UNL     1     -30.165  29.533   3.903  0.00  0.00    -0.270 OA
ATOM      8  N   UNL     1     -29.855  29.707   6.196  0.00  0.00    -0.300 N 
ATOM      9  C   UNL     1     -30.479  29.227   5.050  0.00  0.00    +0.246 C 
ATOM     10  H   UNL     1     -30.180  29.402   7.073  0.00  0.00    +0.150 HD
BRANCH   8  11
ATOM     11  C   UNL     1     -28.754  30.631   6.150  0.00  0.00    +0.101 C 
BRANCH  11  12
ATOM     12  C   UNL     1     -27.561  30.142   6.959  0.00  0.00    +0.131 C 
BRANCH  12  14
ATOM     13  O   UNL     1     -27.641  27.818   7.688  0.00  0.00    -0.250 OA
ATOM     14  C   UNL     1     -27.904  28.996   7.886  0.00  0.00    +0.316 C 
BRANCH  14  15
ATOM     15  O   UNL     1     -28.548  29.435   8.999  0.00  0.00    -0.480 OA
ATOM     16  H   UNL     1     -28.075  29.902   9.660  0.00  0.00    +0.295 HD
ENDBRANCH  14  15
ENDBRANCH  12  14
ENDBRANCH  11  12
ENDBRANCH   8  11
ENDBRANCH   1   9
BRANCH   4  17
ATOM     17  N   UNL     1     -34.804  25.699   5.872  0.00  0.00    -0.128 NA
BRANCH  17  18
ATOM     18  N   UNL     1     -35.766  26.022   5.137  0.00  0.00    -0.128 NA
BRANCH  18  19
ATOM     19  C   UNL     1     -36.253  24.892   4.458  0.00  0.00    +0.089 C 
ATOM     20  C   UNL     1     -36.122  22.535   3.969  0.00  0.00    +0.110 C 
ATOM     21  C   UNL     1     -35.639  23.656   4.643  0.00  0.00    +0.028 C 
ATOM     22  C   UNL     1     -37.217  22.655   3.112  0.00  0.00    +0.140 C 
ATOM     23  C   UNL     1     -37.345  25.016   3.605  0.00  0.00    +0.021 C 
ATOM     24  C   UNL     1     -37.828  23.895   2.930  0.00  0.00    +0.038 C 
BRANCH  22  25
ATOM     25  O   UNL     1     -37.704  21.571   2.444  0.00  0.00    -0.505 OA
ATOM     26  H   UNL     1     -37.791  21.596   1.511  0.00  0.00    +0.292 HD
ENDBRANCH  22  25
BRANCH  20  28
ATOM     27  O   UNL     1     -35.116  20.478   3.276  0.00  0.00    -0.245 OA
ATOM     28  C   UNL     1     -35.471  21.249   4.173  0.00  0.00    +0.341 C 
BRANCH  28  29
ATOM     29  O   UNL     1     -35.282  20.967   5.490  0.00  0.00    -0.477 OA
ATOM     30  H   UNL     1     -35.915  21.242   6.124  0.00  0.00    +0.295 HD
ENDBRANCH  28  29
ENDBRANCH  20  28
ENDBRANCH  18  19
ENDBRANCH  17  18
ENDBRANCH   4  17
TORSDOF 11
ENDMDL
MODEL 3
REMARK VINA RESULT:      -6.4      5.229      9.040
REMARK  Name = 54585
REMARK  11 active torsions:
REMARK  status: ('A' for Active; 'I' for Inactive)
REMARK    1  A    between atoms: C_1  and  C_9
REMARK    2  A    between atoms: C_4  and  N_17
REMARK    3  A    between atoms: N_8  and  C_11
REMARK    4  A    between atoms: C_11  and  C_12
REMARK    5  A    between atoms: C_12  and  C_14
REMARK    6  A    between atoms: C_14  and  O_15
REMARK    7  A    between atoms: N_17  and  N_18
REMARK    8  A    between atoms: N_18  and  C_19
REMARK    9  A    between atoms: C_20  and  C_28
REMARK   10  A    between atoms: C_22  and  O_25
REMARK   11  A    between atoms: C_28  and  O_29
REMARK                            x       y       z     vdW  Elec       q    Type
REMARK                         _______ _______ _______ _____ _____    ______ ____
ROOT
ATOM      1  C   UNL     1     -32.225  19.547   0.563  0.00  0.00    +0.053 C 
ATOM      2  C   UNL     1     -33.136  18.930   1.396  0.00  0.00    +0.006 C 
ATOM      3  C   UNL     1     -32.432  20.813   0.055  0.00  0.00    +0.006 C 
ATOM      4  C   UNL     1     -34.539  20.891   1.235  0.00  0.00    +0.089 C 
ATOM      5  C   UNL     1     -34.305  19.609   1.735  0.00  0.00    +0.018 C 
ATOM      6  C   UNL     1     -33.602  21.492   0.394  0.00  0.00    +0.018 C 
ENDROOT
BRANCH   1   9
ATOM      7  O   UNL     1     -30.176  19.355  -0.561  0.00  0.00    -0.270 OA
ATOM      8  N   UNL     1     -30.800  17.579   0.796  0.00  0.00    -0.300 N 
ATOM      9  C   UNL     1     -30.978  18.824   0.203  0.00  0.00    +0.246 C 
ATOM     10  H   UNL     1     -31.501  17.238   1.396  0.00  0.00    +0.150 HD
BRANCH   8  11
ATOM     11  C   UNL     1     -29.633  16.771   0.566  0.00  0.00    +0.101 C 
BRANCH  11  12
ATOM     12  C   UNL     1     -29.922  15.598  -0.361  0.00  0.00    +0.131 C 
BRANCH  12  14
ATOM     13  O   UNL     1     -32.000  15.899  -1.597  0.00  0.00    -0.250 OA
ATOM     14  C   UNL     1     -31.397  15.419  -0.647  0.00  0.00    +0.316 C 
BRANCH  14  15
ATOM     15  O   UNL     1     -31.993  14.637   0.291  0.00  0.00    -0.480 OA
ATOM     16  H   UNL     1     -31.792  13.723   0.334  0.00  0.00    +0.295 HD
ENDBRANCH  14  15
ENDBRANCH  12  14
ENDBRANCH  11  12
ENDBRANCH   8  11
ENDBRANCH   1   9
BRANCH   4  17
ATOM     17  N   UNL     1     -35.712  21.571   1.575  0.00  0.00    -0.128 NA
BRANCH  17  18
ATOM     18  N   UNL     1     -35.979  21.387   2.785  0.00  0.00    -0.128 NA
BRANCH  18  19
ATOM     19  C   UNL     1     -36.139  22.622   3.436  0.00  0.00    +0.089 C 
ATOM     20  C   UNL     1     -37.030  24.862   3.469  0.00  0.00    +0.110 C 
ATOM     21  C   UNL     1     -36.871  23.636   2.824  0.00  0.00    +0.028 C 
ATOM     22  C   UNL     1     -36.456  25.069   4.724  0.00  0.00    +0.140 C 
ATOM     23  C   UNL     1     -35.564  22.823   4.687  0.00  0.00    +0.021 C 
ATOM     24  C   UNL     1     -35.723  24.050   5.333  0.00  0.00    +0.038 C 
BRANCH  22  25
ATOM     25  O   UNL     1     -36.599  26.260   5.371  0.00  0.00    -0.505 OA
ATOM     26  H   UNL     1     -36.944  26.281   6.242  0.00  0.00    +0.292 HD
ENDBRANCH  22  25
BRANCH  20  28
ATOM     27  O   UNL     1     -37.536  26.414   1.721  0.00  0.00    -0.245 OA
ATOM     28  C   UNL     1     -37.799  25.913   2.818  0.00  0.00    +0.341 C 
BRANCH  28  29
ATOM     29  O   UNL     1     -38.873  26.303   3.556  0.00  0.00    -0.477 OA
ATOM     30  H   UNL     1     -39.006  25.949   4.414  0.00  0.00    +0.295 HD
ENDBRANCH  28  29
ENDBRANCH  20  28
ENDBRANCH  18  19
ENDBRANCH  17  18
ENDBRANCH   4  17
TORSDOF 11
ENDMDL
MODEL 4
REMARK VINA RESULT:      -6.3      2.245      3.114
REMARK  Name = 54585
REMARK  11 active torsions:
REMARK  status: ('A' for Active; 'I' for Inactive)
REMARK    1  A    between atoms: C_1  and  C_9
REMARK    2  A    between atoms: C_4  and  N_17
REMARK    3  A    between atoms: N_8  and  C_11
REMARK    4  A    between atoms: C_11  and  C_12
REMARK    5  A    between atoms: C_12  and  C_14
REMARK    6  A    between atoms: C_14  and  O_15
REMARK    7  A    between atoms: N_17  and  N_18
REMARK    8  A    between atoms: N_18  and  C_19
REMARK    9  A    between atoms: C_20  and  C_28
REMARK   10  A    between atoms: C_22  and  O_25
REMARK   11  A    between atoms: C_28  and  O_29
REMARK                            x       y       z     vdW  Elec       q    Type
REMARK                         _______ _______ _______ _____ _____    ______ ____
ROOT
ATOM      1  C   UNL     1     -31.681  27.640   3.224  0.00  0.00    +0.053 C 
ATOM      2  C   UNL     1     -32.832  28.095   3.834  0.00  0.00    +0.006 C 
ATOM      3  C   UNL     1     -31.687  26.580   2.340  0.00  0.00    +0.006 C 
ATOM      4  C   UNL     1     -34.074  26.390   2.657  0.00  0.00    +0.089 C 
ATOM      5  C   UNL     1     -34.041  27.463   3.548  0.00  0.00    +0.018 C 
ATOM      6  C   UNL     1     -32.897  25.948   2.053  0.00  0.00    +0.018 C 
ENDROOT
BRANCH   1   9
ATOM      7  O   UNL     1     -29.569  28.465   2.629  0.00  0.00    -0.270 OA
ATOM      8  N   UNL     1     -30.228  28.757   4.835  0.00  0.00    -0.300 N 
ATOM      9  C   UNL     1     -30.393  28.315   3.527  0.00  0.00    +0.246 C 
ATOM     10  H   UNL     1     -30.947  28.590   5.484  0.00  0.00    +0.150 HD
BRANCH   8  11
ATOM     11  C   UNL     1     -29.047  29.449   5.275  0.00  0.00    +0.101 C 
BRANCH  11  12
ATOM     12  C   UNL     1     -27.952  28.490   5.721  0.00  0.00    +0.131 C 
BRANCH  12  14
ATOM     13  O   UNL     1     -27.552  28.242   8.112  0.00  0.00    -0.250 OA
ATOM     14  C   UNL     1     -28.182  27.934   7.110  0.00  0.00    +0.316 C 
BRANCH  14  15
ATOM     15  O   UNL     1     -29.202  27.036   7.122  0.00  0.00    -0.480 OA
ATOM     16  H   UNL     1     -29.592  26.759   6.316  0.00  0.00    +0.295 HD
ENDBRANCH  14  15
ENDBRANCH  12  14
ENDBRANCH  11  12
ENDBRANCH   8  11
ENDBRANCH   1   9
BRANCH   4  17
ATOM     17  N   UNL     1     -35.287  25.756   2.371  0.00  0.00    -0.128 NA
BRANCH  17  18
ATOM     18  N   UNL     1     -35.962  25.628   3.419  0.00  0.00    -0.128 NA
BRANCH  18  19
ATOM     19  C   UNL     1     -35.765  24.348   3.965  0.00  0.00    +0.089 C 
ATOM     20  C   UNL     1     -35.541  21.966   3.670  0.00  0.00    +0.110 C 
ATOM     21  C   UNL     1     -35.737  23.237   3.128  0.00  0.00    +0.028 C 
ATOM     22  C   UNL     1     -35.374  21.814   5.047  0.00  0.00    +0.140 C 
ATOM     23  C   UNL     1     -35.599  24.202   5.339  0.00  0.00    +0.021 C 
ATOM     24  C   UNL     1     -35.403  22.932   5.881  0.00  0.00    +0.038 C 
BRANCH  22  25
ATOM     25  O   UNL     1     -35.182  20.582   5.596  0.00  0.00    -0.505 OA
ATOM     26  H   UNL     1     -35.327  19.812   5.081  0.00  0.00    +0.292 HD
ENDBRANCH  22  25
BRANCH  20  28
ATOM     27  O   UNL     1     -34.618  20.557   1.972  0.00  0.00    -0.245 OA
ATOM     28  C   UNL     1     -35.513  20.812   2.782  0.00  0.00    +0.341 C 
BRANCH  28  29
ATOM     29  O   UNL     1     -36.604  20.014   2.936  0.00  0.00    -0.477 OA
ATOM     30  H   UNL     1     -36.906  19.793   3.795  0.00  0.00    +0.295 HD
ENDBRANCH  28  29
ENDBRANCH  20  28
ENDBRANCH  18  19
ENDBRANCH  17  18
ENDBRANCH   4  17
TORSDOF 11
ENDMDL
MODEL 5
REMARK VINA RESULT:      -6.3      5.127      8.620
REMARK  Name = 54585
REMARK  11 active torsions:
REMARK  status: ('A' for Active; 'I' for Inactive)
REMARK    1  A    between atoms: C_1  and  C_9
REMARK    2  A    between atoms: C_4  and  N_17
REMARK    3  A    between atoms: N_8  and  C_11
REMARK    4  A    between atoms: C_11  and  C_12
REMARK    5  A    between atoms: C_12  and  C_14
REMARK    6  A    between atoms: C_14  and  O_15
REMARK    7  A    between atoms: N_17  and  N_18
REMARK    8  A    between atoms: N_18  and  C_19
REMARK    9  A    between atoms: C_20  and  C_28
REMARK   10  A    between atoms: C_22  and  O_25
REMARK   11  A    between atoms: C_28  and  O_29
REMARK                            x       y       z     vdW  Elec       q    Type
REMARK                         _______ _______ _______ _____ _____    ______ ____
ROOT
ATOM      1  C   UNL     1     -32.484  20.078   0.251  0.00  0.00    +0.053 C 
ATOM      2  C   UNL     1     -33.051  21.319   0.049  0.00  0.00    +0.006 C 
ATOM      3  C   UNL     1     -33.007  19.166   1.145  0.00  0.00    +0.006 C 
ATOM      4  C   UNL     1     -34.742  20.760   1.682  0.00  0.00    +0.089 C 
ATOM      5  C   UNL     1     -34.192  21.664   0.773  0.00  0.00    +0.018 C 
ATOM      6  C   UNL     1     -34.148  19.511   1.868  0.00  0.00    +0.018 C 
ENDROOT
BRANCH   1   9
ATOM      7  O   UNL     1     -30.335  20.505  -0.585  0.00  0.00    -0.270 OA
ATOM      8  N   UNL     1     -31.276  18.449  -1.107  0.00  0.00    -0.300 N 
ATOM      9  C   UNL     1     -31.269  19.710  -0.521  0.00  0.00    +0.246 C 
ATOM     10  H   UNL     1     -32.073  17.883  -0.999  0.00  0.00    +0.150 HD
BRANCH   8  11
ATOM     11  C   UNL     1     -30.165  17.940  -1.864  0.00  0.00    +0.101 C 
BRANCH  11  12
ATOM     12  C   UNL     1     -29.320  16.965  -1.056  0.00  0.00    +0.131 C 
BRANCH  12  14
ATOM     13  O   UNL     1     -30.809  15.561   0.267  0.00  0.00    -0.250 OA
ATOM     14  C   UNL     1     -30.011  16.486   0.202  0.00  0.00    +0.316 C 
BRANCH  14  15
ATOM     15  O   UNL     1     -29.628  17.212   1.285  0.00  0.00    -0.480 OA
ATOM     16  H   UNL     1     -30.228  17.814   1.681  0.00  0.00    +0.295 HD
ENDBRANCH  14  15
ENDBRANCH  12  14
ENDBRANCH  11  12
ENDBRANCH   8  11
ENDBRANCH   1   9
BRANCH   4  17
ATOM     17  N   UNL     1     -35.885  21.106   2.408  0.00  0.00    -0.128 NA
BRANCH  17  18
ATOM     18  N   UNL     1     -35.607  21.202   3.626  0.00  0.00    -0.128 NA
BRANCH  18  19
ATOM     19  C   UNL     1     -35.823  22.519   4.067  0.00  0.00    +0.089 C 
ATOM     20  C   UNL     1     -37.091  24.567   3.976  0.00  0.00    +0.110 C 
ATOM     21  C   UNL     1     -36.877  23.260   3.539  0.00  0.00    +0.028 C 
ATOM     22  C   UNL     1     -36.251  25.126   4.939  0.00  0.00    +0.140 C 
ATOM     23  C   UNL     1     -34.982  23.072   5.027  0.00  0.00    +0.021 C 
ATOM     24  C   UNL     1     -35.196  24.379   5.465  0.00  0.00    +0.038 C 
BRANCH  22  25
ATOM     25  O   UNL     1     -36.443  26.402   5.379  0.00  0.00    -0.505 OA
ATOM     26  H   UNL     1     -37.293  26.794   5.321  0.00  0.00    +0.292 HD
ENDBRANCH  22  25
BRANCH  20  28
ATOM     27  O   UNL     1     -38.087  26.273   2.627  0.00  0.00    -0.245 OA
ATOM     28  C   UNL     1     -38.197  25.330   3.416  0.00  0.00    +0.341 C 
BRANCH  28  29
ATOM     29  O   UNL     1     -39.406  24.890   3.859  0.00  0.00    -0.477 OA
ATOM     30  H   UNL     1     -40.096  25.503   4.026  0.00  0.00    +0.295 HD
ENDBRANCH  28  29
ENDBRANCH  20  28
ENDBRANCH  18  19
ENDBRANCH  17  18
ENDBRANCH   4  17
TORSDOF 11
ENDMDL
MODEL 6
REMARK VINA RESULT:      -6.3      2.183      3.452
REMARK  Name = 54585
REMARK  11 active torsions:
REMARK  status: ('A' for Active; 'I' for Inactive)
REMARK    1  A    between atoms: C_1  and  C_9
REMARK    2  A    between atoms: C_4  and  N_17
REMARK    3  A    between atoms: N_8  and  C_11
REMARK    4  A    between atoms: C_11  and  C_12
REMARK    5  A    between atoms: C_12  and  C_14
REMARK    6  A    between atoms: C_14  and  O_15
REMARK    7  A    between atoms: N_17  and  N_18
REMARK    8  A    between atoms: N_18  and  C_19
REMARK    9  A    between atoms: C_20  and  C_28
REMARK   10  A    between atoms: C_22  and  O_25
REMARK   11  A    between atoms: C_28  and  O_29
REMARK                            x       y       z     vdW  Elec       q    Type
REMARK                         _______ _______ _______ _____ _____    ______ ____
ROOT
ATOM      1  C   UNL     1     -31.677  28.272   5.811  0.00  0.00    +0.053 C 
ATOM      2  C   UNL     1     -32.193  28.441   4.543  0.00  0.00    +0.006 C 
ATOM      3  C   UNL     1     -32.256  27.427   6.735  0.00  0.00    +0.006 C 
ATOM      4  C   UNL     1     -33.942  26.869   5.097  0.00  0.00    +0.089 C 
ATOM      5  C   UNL     1     -33.338  27.731   4.182  0.00  0.00    +0.018 C 
ATOM      6  C   UNL     1     -33.401  26.717   6.374  0.00  0.00    +0.018 C 
ENDROOT
BRANCH   1   9
ATOM      7  O   UNL     1     -30.338  30.197   5.844  0.00  0.00    -0.270 OA
ATOM      8  N   UNL     1     -29.527  28.334   6.964  0.00  0.00    -0.300 N 
ATOM      9  C   UNL     1     -30.456  29.026   6.195  0.00  0.00    +0.246 C 
ATOM     10  H   UNL     1     -29.711  27.396   7.196  0.00  0.00    +0.150 HD
BRANCH   8  11
ATOM     11  C   UNL     1     -28.308  28.936   7.434  0.00  0.00    +0.101 C 
BRANCH  11  12
ATOM     12  C   UNL     1     -27.147  27.951   7.435  0.00  0.00    +0.131 C 
BRANCH  12  14
ATOM     13  O   UNL     1     -27.657  25.574   7.599  0.00  0.00    -0.250 OA
ATOM     14  C   UNL     1     -27.531  26.582   6.918  0.00  0.00    +0.316 C 
BRANCH  14  15
ATOM     15  O   UNL     1     -27.735  26.599   5.574  0.00  0.00    -0.480 OA
ATOM     16  H   UNL     1     -28.060  27.374   5.160  0.00  0.00    +0.295 HD
ENDBRANCH  14  15
ENDBRANCH  12  14
ENDBRANCH  11  12
ENDBRANCH   8  11
ENDBRANCH   1   9
BRANCH   4  17
ATOM     17  N   UNL     1     -35.091  26.159   4.735  0.00  0.00    -0.128 NA
BRANCH  17  18
ATOM     18  N   UNL     1     -35.361  25.305   5.613  0.00  0.00    -0.128 NA
BRANCH  18  19
ATOM     19  C   UNL     1     -35.460  24.031   5.029  0.00  0.00    +0.089 C 
ATOM     20  C   UNL     1     -35.956  22.643   3.121  0.00  0.00    +0.110 C 
ATOM     21  C   UNL     1     -35.857  23.908   3.700  0.00  0.00    +0.028 C 
ATOM     22  C   UNL     1     -35.658  21.506   3.874  0.00  0.00    +0.140 C 
ATOM     23  C   UNL     1     -35.162  22.901   5.784  0.00  0.00    +0.021 C 
ATOM     24  C   UNL     1     -35.261  21.635   5.205  0.00  0.00    +0.038 C 
BRANCH  22  25
ATOM     25  O   UNL     1     -35.749  20.261   3.327  0.00  0.00    -0.505 OA
ATOM     26  H   UNL     1     -35.138  19.595   3.575  0.00  0.00    +0.292 HD
ENDBRANCH  22  25
BRANCH  20  28
ATOM     27  O   UNL     1     -37.164  21.693   1.288  0.00  0.00    -0.245 OA
ATOM     28  C   UNL     1     -36.371  22.529   1.731  0.00  0.00    +0.341 C 
BRANCH  28  29
ATOM     29  O   UNL     1     -35.785  23.465   0.937  0.00  0.00    -0.477 OA
ATOM     30  H   UNL     1     -35.439  23.221   0.101  0.00  0.00    +0.295 HD
ENDBRANCH  28  29
ENDBRANCH  20  28
ENDBRANCH  18  19
ENDBRANCH  17  18
ENDBRANCH   4  17
TORSDOF 11
ENDMDL
MODEL 7
REMARK VINA RESULT:      -6.3      1.350      2.265
REMARK  Name = 54585
REMARK  11 active torsions:
REMARK  status: ('A' for Active; 'I' for Inactive)
REMARK    1  A    between atoms: C_1  and  C_9
REMARK    2  A    between atoms: C_4  and  N_17
REMARK    3  A    between atoms: N_8  and  C_11
REMARK    4  A    between atoms: C_11  and  C_12
REMARK    5  A    between atoms: C_12  and  C_14
REMARK    6  A    between atoms: C_14  and  O_15
REMARK    7  A    between atoms: N_17  and  N_18
REMARK    8  A    between atoms: N_18  and  C_19
REMARK    9  A    between atoms: C_20  and  C_28
REMARK   10  A    between atoms: C_22  and  O_25
REMARK   11  A    between atoms: C_28  and  O_29
REMARK                            x       y       z     vdW  Elec       q    Type
REMARK                         _______ _______ _______ _____ _____    ______ ____
ROOT
ATOM      1  C   UNL     1     -33.299  27.122   5.272  0.00  0.00    +0.053 C 
ATOM      2  C   UNL     1     -34.047  26.241   6.025  0.00  0.00    +0.006 C 
ATOM      3  C   UNL     1     -33.513  27.301   3.920  0.00  0.00    +0.006 C 
ATOM      4  C   UNL     1     -35.290  25.668   4.034  0.00  0.00    +0.089 C 
ATOM      5  C   UNL     1     -35.053  25.505   5.399  0.00  0.00    +0.018 C 
ATOM      6  C   UNL     1     -34.520  26.566   3.295  0.00  0.00    +0.018 C 
ENDROOT
BRANCH   1   9
ATOM      7  O   UNL     1     -32.167  27.915   7.165  0.00  0.00    -0.270 OA
ATOM      8  N   UNL     1     -31.343  28.571   5.098  0.00  0.00    -0.300 N 
ATOM      9  C   UNL     1     -32.229  27.907   5.939  0.00  0.00    +0.246 C 
ATOM     10  H   UNL     1     -31.476  28.504   4.126  0.00  0.00    +0.150 HD
BRANCH   8  11
ATOM     11  C   UNL     1     -30.241  29.350   5.593  0.00  0.00    +0.101 C 
BRANCH  11  12
ATOM     12  C   UNL     1     -28.898  28.795   5.141  0.00  0.00    +0.131 C 
BRANCH  12  14
ATOM     13  O   UNL     1     -27.925  26.561   5.202  0.00  0.00    -0.250 OA
ATOM     14  C   UNL     1     -28.586  27.439   5.738  0.00  0.00    +0.316 C 
BRANCH  14  15
ATOM     15  O   UNL     1     -29.131  27.305   6.976  0.00  0.00    -0.480 OA
ATOM     16  H   UNL     1     -29.974  26.907   7.075  0.00  0.00    +0.295 HD
ENDBRANCH  14  15
ENDBRANCH  12  14
ENDBRANCH  11  12
ENDBRANCH   8  11
ENDBRANCH   1   9
BRANCH   4  17
ATOM     17  N   UNL     1     -36.298  24.930   3.406  0.00  0.00    -0.128 NA
BRANCH  17  18
ATOM     18  N   UNL     1     -36.656  23.980   4.142  0.00  0.00    -0.128 NA
BRANCH  18  19
ATOM     19  C   UNL     1     -36.680  22.784   3.405  0.00  0.00    +0.089 C 
ATOM     20  C   UNL     1     -37.805  21.299   1.874  0.00  0.00    +0.110 C 
ATOM     21  C   UNL     1     -37.781  22.487   2.606  0.00  0.00    +0.028 C 
ATOM     22  C   UNL     1     -36.729  20.414   1.947  0.00  0.00    +0.140 C 
ATOM     23  C   UNL     1     -35.605  21.904   3.480  0.00  0.00    +0.021 C 
ATOM     24  C   UNL     1     -35.629  20.717   2.749  0.00  0.00    +0.038 C 
BRANCH  22  25
ATOM     25  O   UNL     1     -36.734  19.249   1.240  0.00  0.00    -0.505 OA
ATOM     26  H   UNL     1     -36.043  18.626   1.359  0.00  0.00    +0.292 HD
ENDBRANCH  22  25
BRANCH  20  28
ATOM     27  O   UNL     1     -38.927  20.760  -0.168  0.00  0.00    -0.245 OA
ATOM     28  C   UNL     1     -38.962  21.002   1.042  0.00  0.00    +0.341 C 
BRANCH  28  29
ATOM     29  O   UNL     1     -40.125  21.016   1.747  0.00  0.00    -0.477 OA
ATOM     30  H   UNL     1     -40.946  20.946   1.300  0.00  0.00    +0.295 HD
ENDBRANCH  28  29
ENDBRANCH  20  28
ENDBRANCH  18  19
ENDBRANCH  17  18
ENDBRANCH   4  17
TORSDOF 11
ENDMDL
MODEL 8
REMARK VINA RESULT:      -6.3      2.105      9.734
REMARK  Name = 54585
REMARK  11 active torsions:
REMARK  status: ('A' for Active; 'I' for Inactive)
REMARK    1  A    between atoms: C_1  and  C_9
REMARK    2  A    between atoms: C_4  and  N_17
REMARK    3  A    between atoms: N_8  and  C_11
REMARK    4  A    between atoms: C_11  and  C_12
REMARK    5  A    between atoms: C_12  and  C_14
REMARK    6  A    between atoms: C_14  and  O_15
REMARK    7  A    between atoms: N_17  and  N_18
REMARK    8  A    between atoms: N_18  and  C_19
REMARK    9  A    between atoms: C_20  and  C_28
REMARK   10  A    between atoms: C_22  and  O_25
REMARK   11  A    between atoms: C_28  and  O_29
REMARK                            x       y       z     vdW  Elec       q    Type
REMARK                         _______ _______ _______ _____ _____    ______ ____
ROOT
ATOM      1  C   UNL     1     -35.170  24.478   4.102  0.00  0.00    +0.053 C 
ATOM      2  C   UNL     1     -34.192  25.087   3.343  0.00  0.00    +0.006 C 
ATOM      3  C   UNL     1     -35.397  24.819   5.420  0.00  0.00    +0.006 C 
ATOM      4  C   UNL     1     -33.617  26.445   5.257  0.00  0.00    +0.089 C 
ATOM      5  C   UNL     1     -33.407  26.081   3.927  0.00  0.00    +0.018 C 
ATOM      6  C   UNL     1     -34.612  25.813   6.004  0.00  0.00    +0.018 C 
ENDROOT
BRANCH   1   9
ATOM      7  O   UNL     1     -36.695  22.700   4.198  0.00  0.00    -0.270 OA
ATOM      8  N   UNL     1     -35.964  23.345   2.092  0.00  0.00    -0.300 N 
ATOM      9  C   UNL     1     -36.007  23.421   3.480  0.00  0.00    +0.246 C 
ATOM     10  H   UNL     1     -35.381  23.968   1.603  0.00  0.00    +0.150 HD
BRANCH   8  11
ATOM     11  C   UNL     1     -36.737  22.392   1.344  0.00  0.00    +0.101 C 
BRANCH  11  12
ATOM     12  C   UNL     1     -35.887  21.236   0.836  0.00  0.00    +0.131 C 
BRANCH  12  14
ATOM     13  O   UNL     1     -34.441  19.750   2.116  0.00  0.00    -0.250 OA
ATOM     14  C   UNL     1     -35.547  20.232   1.916  0.00  0.00    +0.316 C 
BRANCH  14  15
ATOM     15  O   UNL     1     -36.637  19.922   2.665  0.00  0.00    -0.480 OA
ATOM     16  H   UNL     1     -37.452  20.358   2.509  0.00  0.00    +0.295 HD
ENDBRANCH  14  15
ENDBRANCH  12  14
ENDBRANCH  11  12
ENDBRANCH   8  11
ENDBRANCH   1   9
BRANCH   4  17
ATOM     17  N   UNL     1     -32.830  27.440   5.843  0.00  0.00    -0.128 NA
BRANCH  17  18
ATOM     18  N   UNL     1     -32.651  28.379   5.031  0.00  0.00    -0.128 NA
BRANCH  18  19
ATOM     19  C   UNL     1     -31.455  29.052   5.330  0.00  0.00    +0.089 C 
ATOM     20  C   UNL     1     -29.365  29.161   6.527  0.00  0.00    +0.110 C 
ATOM     21  C   UNL     1     -30.553  28.492   6.231  0.00  0.00    +0.028 C 
ATOM     22  C   UNL     1     -29.085  30.386   5.921  0.00  0.00    +0.140 C 
ATOM     23  C   UNL     1     -31.180  30.274   4.723  0.00  0.00    +0.021 C 
ATOM     24  C   UNL     1     -29.992  30.942   5.020  0.00  0.00    +0.038 C 
BRANCH  22  25
ATOM     25  O   UNL     1     -27.930  31.055   6.198  0.00  0.00    -0.505 OA
ATOM     26  H   UNL     1     -27.144  30.843   5.734  0.00  0.00    +0.292 HD
ENDBRANCH  22  25
BRANCH  20  28
ATOM     27  O   UNL     1     -27.742  27.562   7.255  0.00  0.00    -0.245 OA
ATOM     28  C   UNL     1     -28.431  28.563   7.470  0.00  0.00    +0.341 C 
BRANCH  28  29
ATOM     29  O   UNL     1     -28.386  29.236   8.652  0.00  0.00    -0.477 OA
ATOM     30  H   UNL     1     -29.107  29.775   8.913  0.00  0.00    +0.295 HD
ENDBRANCH  28  29
ENDBRANCH  20  28
ENDBRANCH  18  19
ENDBRANCH  17  18
ENDBRANCH   4  17
TORSDOF 11
ENDMDL
MODEL 9
REMARK VINA RESULT:      -6.2      5.857      9.385
REMARK  Name = 54585
REMARK  11 active torsions:
REMARK  status: ('A' for Active; 'I' for Inactive)
REMARK    1  A    between atoms: C_1  and  C_9
REMARK    2  A    between atoms: C_4  and  N_17
REMARK    3  A    between atoms: N_8  and  C_11
REMARK    4  A    between atoms: C_11  and  C_12
REMARK    5  A    between atoms: C_12  and  C_14
REMARK    6  A    between atoms: C_14  and  O_15
REMARK    7  A    between atoms: N_17  and  N_18
REMARK    8  A    between atoms: N_18  and  C_19
REMARK    9  A    between atoms: C_20  and  C_28
REMARK   10  A    between atoms: C_22  and  O_25
REMARK   11  A    between atoms: C_28  and  O_29
REMARK                            x       y       z     vdW  Elec       q    Type
REMARK                         _______ _______ _______ _____ _____    ______ ____
ROOT
ATOM      1  C   UNL     1     -31.376  18.941   0.510  0.00  0.00    +0.053 C 
ATOM      2  C   UNL     1     -31.547  20.179  -0.076  0.00  0.00    +0.006 C 
ATOM      3  C   UNL     1     -32.374  18.326   1.237  0.00  0.00    +0.006 C 
ATOM      4  C   UNL     1     -33.798  20.229   0.802  0.00  0.00    +0.089 C 
ATOM      5  C   UNL     1     -32.772  20.830   0.072  0.00  0.00    +0.018 C 
ATOM      6  C   UNL     1     -33.598  18.977   1.385  0.00  0.00    +0.018 C 
ENDROOT
BRANCH   1   9
ATOM      7  O   UNL     1     -29.103  18.877  -0.064  0.00  0.00    -0.270 OA
ATOM      8  N   UNL     1     -30.045  16.906   0.715  0.00  0.00    -0.300 N 
ATOM      9  C   UNL     1     -30.072  18.247   0.350  0.00  0.00    +0.246 C 
ATOM     10  H   UNL     1     -30.875  16.487   1.037  0.00  0.00    +0.150 HD
BRANCH   8  11
ATOM     11  C   UNL     1     -28.852  16.106   0.642  0.00  0.00    +0.101 C 
BRANCH  11  12
ATOM     12  C   UNL     1     -29.119  14.733   0.041  0.00  0.00    +0.131 C 
BRANCH  12  14
ATOM     13  O   UNL     1     -30.865  14.846  -1.656  0.00  0.00    -0.250 OA
ATOM     14  C   UNL     1     -30.521  14.591  -0.510  0.00  0.00    +0.316 C 
BRANCH  14  15
ATOM     15  O   UNL     1     -31.380  14.126   0.435  0.00  0.00    -0.480 OA
ATOM     16  H   UNL     1     -32.153  13.662   0.177  0.00  0.00    +0.295 HD
ENDBRANCH  14  15
ENDBRANCH  12  14
ENDBRANCH  11  12
ENDBRANCH   8  11
ENDBRANCH   1   9
BRANCH   4  17
ATOM     17  N   UNL     1     -35.025  20.882   0.951  0.00  0.00    -0.128 NA
BRANCH  17  18
ATOM     18  N   UNL     1     -34.865  22.121   0.855  0.00  0.00    -0.128 NA
BRANCH  18  19
ATOM     19  C   UNL     1     -35.218  22.747   2.063  0.00  0.00    +0.089 C 
ATOM     20  C   UNL     1     -35.590  22.630   4.442  0.00  0.00    +0.110 C 
ATOM     21  C   UNL     1     -35.240  22.009   3.243  0.00  0.00    +0.028 C 
ATOM     22  C   UNL     1     -35.915  23.987   4.454  0.00  0.00    +0.140 C 
ATOM     23  C   UNL     1     -35.542  24.100   2.070  0.00  0.00    +0.021 C 
ATOM     24  C   UNL     1     -35.892  24.722   3.269  0.00  0.00    +0.038 C 
BRANCH  22  25
ATOM     25  O   UNL     1     -36.260  24.612   5.616  0.00  0.00    -0.505 OA
ATOM     26  H   UNL     1     -36.458  25.528   5.613  0.00  0.00    +0.292 HD
ENDBRANCH  22  25
BRANCH  20  28
ATOM     27  O   UNL     1     -36.034  22.237   6.759  0.00  0.00    -0.245 OA
ATOM     28  C   UNL     1     -35.607  21.846   5.668  0.00  0.00    +0.341 C 
BRANCH  28  29
ATOM     29  O   UNL     1     -35.094  20.599   5.493  0.00  0.00    -0.477 OA
ATOM     30  H   UNL     1     -35.447  19.875   5.972  0.00  0.00    +0.295 HD
ENDBRANCH  28  29
ENDBRANCH  20  28
ENDBRANCH  18  19
ENDBRANCH  17  18
ENDBRANCH   4  17
TORSDOF 11
ENDMDL
