MODEL 1
REMARK VINA RESULT:      -6.4      0.000      0.000
REMARK  Name = 5281860
REMARK  4 active torsions:
REMARK  status: ('A' for Active; 'I' for Inactive)
REMARK    1  A    between atoms: C_11  and  O_19
REMARK    2  A    between atoms: C_12  and  O_21
REMARK    3  A    between atoms: C_16  and  O_23
REMARK    4  A    between atoms: C_18  and  O_25
REMARK                            x       y       z     vdW  Elec       q    Type
REMARK                         _______ _______ _______ _____ _____    ______ ____
ROOT
ATOM      1  O   UNL     1     -37.118  25.789   2.296  0.00  0.00    -0.418 OA
ATOM      2  O   UNL     1     -33.226  28.133   4.479  0.00  0.00    -0.418 OA
ATOM      3  O   UNL     1     -32.675  26.771   6.238  0.00  0.00    -0.244 OA
ATOM      4  O   UNL     1     -37.672  27.152   0.538  0.00  0.00    -0.244 OA
ATOM      5  C   UNL     1     -35.283  26.367   3.775  0.00  0.00    +0.047 A 
ATOM      6  C   UNL     1     -35.062  27.554   3.000  0.00  0.00    +0.047 A 
ATOM      7  C   UNL     1     -34.489  26.071   4.881  0.00  0.00    +0.082 A 
ATOM      8  C   UNL     1     -36.306  25.498   3.416  0.00  0.00    +0.186 A 
ATOM      9  C   UNL     1     -35.857  27.850   1.893  0.00  0.00    +0.082 A 
ATOM     10  C   UNL     1     -34.039  28.423   3.358  0.00  0.00    +0.186 A 
ATOM     11  C   UNL     1     -36.561  24.335   4.136  0.00  0.00    +0.207 C 
ATOM     12  C   UNL     1     -33.784  29.586   2.639  0.00  0.00    +0.206 C 
ATOM     13  C   UNL     1     -34.727  24.905   5.618  0.00  0.00    +0.047 C 
ATOM     14  C   UNL     1     -35.616  29.015   1.156  0.00  0.00    +0.046 C 
ATOM     15  C   UNL     1     -33.393  26.993   5.272  0.00  0.00    +0.346 A 
ATOM     16  C   UNL     1     -35.762  24.041   5.242  0.00  0.00    +0.176 C 
ATOM     17  C   UNL     1     -36.952  26.929   1.502  0.00  0.00    +0.346 A 
ATOM     18  C   UNL     1     -34.581  29.879   1.532  0.00  0.00    +0.171 C 
ENDROOT
BRANCH  11  19
ATOM     19  O   UNL     1     -37.567  23.497   3.769  0.00  0.00    -0.465 OA
ATOM     20  C   UNL     1     -37.266  22.514   2.777  0.00  0.00    +0.253 C 
ENDBRANCH  11  19
BRANCH  12  21
ATOM     21  O   UNL     1     -32.777  30.425   3.006  0.00  0.00    -0.465 OA
ATOM     22  C   UNL     1     -31.493  30.187   2.432  0.00  0.00    +0.253 C 
ENDBRANCH  12  21
BRANCH  16  23
ATOM     23  O   UNL     1     -35.983  22.911   5.970  0.00  0.00    -0.468 OA
ATOM     24  C   UNL     1     -35.076  21.828   5.777  0.00  0.00    +0.253 C 
ENDBRANCH  16  23
BRANCH  18  25
ATOM     25  O   UNL     1     -34.361  31.010   0.804  0.00  0.00    -0.503 OA
ATOM     26  H   UNL     1     -33.831  30.974   0.032  0.00  0.00    +0.292 HD
ENDBRANCH  18  25
TORSDOF 4
ENDMDL
MODEL 2
REMARK VINA RESULT:      -6.1      2.590      6.682
REMARK  Name = 5281860
REMARK  4 active torsions:
REMARK  status: ('A' for Active; 'I' for Inactive)
REMARK    1  A    between atoms: C_11  and  O_19
REMARK    2  A    between atoms: C_12  and  O_21
REMARK    3  A    between atoms: C_16  and  O_23
REMARK    4  A    between atoms: C_18  and  O_25
REMARK                            x       y       z     vdW  Elec       q    Type
REMARK                         _______ _______ _______ _____ _____    ______ ____
ROOT
ATOM      1  O   UNL     1     -34.982  24.285   5.640  0.00  0.00    -0.418 OA
ATOM      2  O   UNL     1     -34.521  23.714   0.653  0.00  0.00    -0.418 OA
ATOM      3  O   UNL     1     -33.628  25.703  -0.052  0.00  0.00    -0.244 OA
ATOM      4  O   UNL     1     -35.878  22.296   6.346  0.00  0.00    -0.244 OA
ATOM      5  C   UNL     1     -34.507  24.658   3.289  0.00  0.00    +0.047 A 
ATOM      6  C   UNL     1     -34.996  23.341   3.004  0.00  0.00    +0.047 A 
ATOM      7  C   UNL     1     -34.034  25.487   2.274  0.00  0.00    +0.082 A 
ATOM      8  C   UNL     1     -34.504  25.117   4.602  0.00  0.00    +0.186 A 
ATOM      9  C   UNL     1     -35.469  22.512   4.021  0.00  0.00    +0.082 A 
ATOM     10  C   UNL     1     -34.999  22.882   1.693  0.00  0.00    +0.186 A 
ATOM     11  C   UNL     1     -34.041  26.387   4.930  0.00  0.00    +0.207 C 
ATOM     12  C   UNL     1     -35.463  21.612   1.365  0.00  0.00    +0.206 C 
ATOM     13  C   UNL     1     -33.562  26.768   2.582  0.00  0.00    +0.047 C 
ATOM     14  C   UNL     1     -35.940  21.231   3.711  0.00  0.00    +0.046 C 
ATOM     15  C   UNL     1     -34.032  25.007   0.869  0.00  0.00    +0.346 A 
ATOM     16  C   UNL     1     -33.567  27.213   3.909  0.00  0.00    +0.176 C 
ATOM     17  C   UNL     1     -35.471  22.992   5.425  0.00  0.00    +0.346 A 
ATOM     18  C   UNL     1     -35.935  20.786   2.384  0.00  0.00    +0.171 C 
ENDROOT
BRANCH  11  19
ATOM     19  O   UNL     1     -34.046  26.817   6.219  0.00  0.00    -0.465 OA
ATOM     20  C   UNL     1     -32.786  26.893   6.886  0.00  0.00    +0.253 C 
ENDBRANCH  11  19
BRANCH  12  21
ATOM     21  O   UNL     1     -35.457  21.182   0.074  0.00  0.00    -0.465 OA
ATOM     22  C   UNL     1     -34.290  20.494  -0.376  0.00  0.00    +0.253 C 
ENDBRANCH  12  21
BRANCH  16  23
ATOM     23  O   UNL     1     -33.105  28.463   4.194  0.00  0.00    -0.468 OA
ATOM     24  C   UNL     1     -31.805  28.800   3.712  0.00  0.00    +0.253 C 
ENDBRANCH  16  23
BRANCH  18  25
ATOM     25  O   UNL     1     -36.397  19.536   2.101  0.00  0.00    -0.503 OA
ATOM     26  H   UNL     1     -37.100  19.423   1.492  0.00  0.00    +0.292 HD
ENDBRANCH  18  25
TORSDOF 4
ENDMDL
MODEL 3
REMARK VINA RESULT:      -6.1      1.717      5.559
REMARK  Name = 5281860
REMARK  4 active torsions:
REMARK  status: ('A' for Active; 'I' for Inactive)
REMARK    1  A    between atoms: C_11  and  O_19
REMARK    2  A    between atoms: C_12  and  O_21
REMARK    3  A    between atoms: C_16  and  O_23
REMARK    4  A    between atoms: C_18  and  O_25
REMARK                            x       y       z     vdW  Elec       q    Type
REMARK                         _______ _______ _______ _____ _____    ______ ____
ROOT
ATOM      1  O   UNL     1     -35.784  28.007   2.241  0.00  0.00    -0.418 OA
ATOM      2  O   UNL     1     -37.384  23.576   4.033  0.00  0.00    -0.418 OA
ATOM      3  O   UNL     1     -35.852  23.048   5.654  0.00  0.00    -0.244 OA
ATOM      4  O   UNL     1     -37.314  28.535   0.618  0.00  0.00    -0.244 OA
ATOM      5  C   UNL     1     -35.992  25.949   3.511  0.00  0.00    +0.047 A 
ATOM      6  C   UNL     1     -37.175  25.634   2.764  0.00  0.00    +0.047 A 
ATOM      7  C   UNL     1     -35.516  25.092   4.501  0.00  0.00    +0.082 A 
ATOM      8  C   UNL     1     -35.309  27.130   3.243  0.00  0.00    +0.186 A 
ATOM      9  C   UNL     1     -37.651  26.492   1.773  0.00  0.00    +0.082 A 
ATOM     10  C   UNL     1     -37.858  24.454   3.031  0.00  0.00    +0.186 A 
ATOM     11  C   UNL     1     -34.157  27.480   3.940  0.00  0.00    +0.207 C 
ATOM     12  C   UNL     1     -39.010  24.104   2.334  0.00  0.00    +0.206 C 
ATOM     13  C   UNL     1     -34.359  25.426   5.215  0.00  0.00    +0.047 C 
ATOM     14  C   UNL     1     -38.809  26.158   1.061  0.00  0.00    +0.046 C 
ATOM     15  C   UNL     1     -36.238  23.829   4.794  0.00  0.00    +0.346 A 
ATOM     16  C   UNL     1     -33.684  26.620   4.932  0.00  0.00    +0.176 C 
ATOM     17  C   UNL     1     -36.930  27.755   1.479  0.00  0.00    +0.346 A 
ATOM     18  C   UNL     1     -39.484  24.965   1.344  0.00  0.00    +0.171 C 
ENDROOT
BRANCH  11  19
ATOM     19  O   UNL     1     -33.504  28.640   3.663  0.00  0.00    -0.465 OA
ATOM     20  C   UNL     1     -32.469  28.585   2.680  0.00  0.00    +0.253 C 
ENDBRANCH  11  19
BRANCH  12  21
ATOM     21  O   UNL     1     -39.664  22.944   2.611  0.00  0.00    -0.465 OA
ATOM     22  C   UNL     1     -39.263  21.783   1.886  0.00  0.00    +0.253 C 
ENDBRANCH  12  21
BRANCH  16  23
ATOM     23  O   UNL     1     -32.559  26.930   5.634  0.00  0.00    -0.468 OA
ATOM     24  C   UNL     1     -32.709  27.146   7.036  0.00  0.00    +0.253 C 
ENDBRANCH  16  23
BRANCH  18  25
ATOM     25  O   UNL     1     -40.609  24.655   0.641  0.00  0.00    -0.503 OA
ATOM     26  H   UNL     1     -41.226  24.042   0.990  0.00  0.00    +0.292 HD
ENDBRANCH  18  25
TORSDOF 4
ENDMDL
MODEL 4
REMARK VINA RESULT:      -6.1      1.866      4.711
REMARK  Name = 5281860
REMARK  4 active torsions:
REMARK  status: ('A' for Active; 'I' for Inactive)
REMARK    1  A    between atoms: C_11  and  O_19
REMARK    2  A    between atoms: C_12  and  O_21
REMARK    3  A    between atoms: C_16  and  O_23
REMARK    4  A    between atoms: C_18  and  O_25
REMARK                            x       y       z     vdW  Elec       q    Type
REMARK                         _______ _______ _______ _____ _____    ______ ____
ROOT
ATOM      1  O   UNL     1     -37.333  23.479   4.124  0.00  0.00    -0.418 OA
ATOM      2  O   UNL     1     -35.559  27.930   2.563  0.00  0.00    -0.418 OA
ATOM      3  O   UNL     1     -36.960  28.514   0.846  0.00  0.00    -0.244 OA
ATOM      4  O   UNL     1     -35.930  22.892   5.840  0.00  0.00    -0.244 OA
ATOM      5  C   UNL     1     -37.010  25.563   2.924  0.00  0.00    +0.047 A 
ATOM      6  C   UNL     1     -35.882  25.845   3.763  0.00  0.00    +0.047 A 
ATOM      7  C   UNL     1     -37.404  26.450   1.923  0.00  0.00    +0.082 A 
ATOM      8  C   UNL     1     -37.724  24.385   3.112  0.00  0.00    +0.186 A 
ATOM      9  C   UNL     1     -35.488  24.958   4.764  0.00  0.00    +0.082 A 
ATOM     10  C   UNL     1     -35.169  27.023   3.575  0.00  0.00    +0.186 A 
ATOM     11  C   UNL     1     -38.825  24.066   2.325  0.00  0.00    +0.207 C 
ATOM     12  C   UNL     1     -34.067  27.342   4.363  0.00  0.00    +0.206 C 
ATOM     13  C   UNL     1     -38.510  26.147   1.120  0.00  0.00    +0.047 C 
ATOM     14  C   UNL     1     -34.383  25.262   5.567  0.00  0.00    +0.046 C 
ATOM     15  C   UNL     1     -36.649  27.710   1.715  0.00  0.00    +0.346 A 
ATOM     16  C   UNL     1     -39.217  24.957   1.324  0.00  0.00    +0.176 C 
ATOM     17  C   UNL     1     -36.243  23.698   4.973  0.00  0.00    +0.346 A 
ATOM     18  C   UNL     1     -33.676  26.452   5.363  0.00  0.00    +0.171 C 
ENDROOT
BRANCH  11  19
ATOM     19  O   UNL     1     -39.510  22.908   2.525  0.00  0.00    -0.465 OA
ATOM     20  C   UNL     1     -39.037  21.746   1.842  0.00  0.00    +0.253 C 
ENDBRANCH  11  19
BRANCH  12  21
ATOM     21  O   UNL     1     -33.382  28.501   4.163  0.00  0.00    -0.465 OA
ATOM     22  C   UNL     1     -32.268  28.451   3.273  0.00  0.00    +0.253 C 
ENDBRANCH  12  21
BRANCH  16  23
ATOM     23  O   UNL     1     -40.290  24.676   0.534  0.00  0.00    -0.468 OA
ATOM     24  C   UNL     1     -41.551  25.205   0.941  0.00  0.00    +0.253 C 
ENDBRANCH  16  23
BRANCH  18  25
ATOM     25  O   UNL     1     -32.603  26.732   6.154  0.00  0.00    -0.503 OA
ATOM     26  H   UNL     1     -32.295  27.614   6.232  0.00  0.00    +0.292 HD
ENDBRANCH  18  25
TORSDOF 4
ENDMDL
MODEL 5
REMARK VINA RESULT:      -6.0      1.824      6.883
REMARK  Name = 5281860
REMARK  4 active torsions:
REMARK  status: ('A' for Active; 'I' for Inactive)
REMARK    1  A    between atoms: C_11  and  O_19
REMARK    2  A    between atoms: C_12  and  O_21
REMARK    3  A    between atoms: C_16  and  O_23
REMARK    4  A    between atoms: C_18  and  O_25
REMARK                            x       y       z     vdW  Elec       q    Type
REMARK                         _______ _______ _______ _____ _____    ______ ____
ROOT
ATOM      1  O   UNL     1     -34.633  26.984   4.605  0.00  0.00    -0.418 OA
ATOM      2  O   UNL     1     -36.283  23.352   1.524  0.00  0.00    -0.418 OA
ATOM      3  O   UNL     1     -36.809  24.463  -0.411  0.00  0.00    -0.244 OA
ATOM      4  O   UNL     1     -34.110  25.874   6.542  0.00  0.00    -0.244 OA
ATOM      5  C   UNL     1     -35.501  25.777   2.687  0.00  0.00    +0.047 A 
ATOM      6  C   UNL     1     -35.415  24.561   3.442  0.00  0.00    +0.047 A 
ATOM      7  C   UNL     1     -35.969  25.779   1.374  0.00  0.00    +0.082 A 
ATOM      8  C   UNL     1     -35.109  26.974   3.274  0.00  0.00    +0.186 A 
ATOM      9  C   UNL     1     -34.947  24.559   4.755  0.00  0.00    +0.082 A 
ATOM     10  C   UNL     1     -35.806  23.363   2.855  0.00  0.00    +0.186 A 
ATOM     11  C   UNL     1     -35.173  28.180   2.583  0.00  0.00    +0.207 C 
ATOM     12  C   UNL     1     -35.742  22.157   3.546  0.00  0.00    +0.206 C 
ATOM     13  C   UNL     1     -36.041  26.981   0.662  0.00  0.00    +0.047 C 
ATOM     14  C   UNL     1     -34.874  23.356   5.467  0.00  0.00    +0.046 C 
ATOM     15  C   UNL     1     -36.389  24.505   0.738  0.00  0.00    +0.346 A 
ATOM     16  C   UNL     1     -35.642  28.178   1.269  0.00  0.00    +0.176 C 
ATOM     17  C   UNL     1     -34.526  25.832   5.391  0.00  0.00    +0.346 A 
ATOM     18  C   UNL     1     -35.273  22.160   4.860  0.00  0.00    +0.171 C 
ENDROOT
BRANCH  11  19
ATOM     19  O   UNL     1     -34.786  29.341   3.176  0.00  0.00    -0.465 OA
ATOM     20  C   UNL     1     -33.417  29.721   3.029  0.00  0.00    +0.253 C 
ENDBRANCH  11  19
BRANCH  12  21
ATOM     21  O   UNL     1     -36.130  20.995   2.953  0.00  0.00    -0.465 OA
ATOM     22  C   UNL     1     -35.145  20.291   2.199  0.00  0.00    +0.253 C 
ENDBRANCH  12  21
BRANCH  16  23
ATOM     23  O   UNL     1     -35.719  29.340   0.562  0.00  0.00    -0.468 OA
ATOM     24  C   UNL     1     -37.019  29.891   0.359  0.00  0.00    +0.253 C 
ENDBRANCH  16  23
BRANCH  18  25
ATOM     25  O   UNL     1     -35.196  20.997   5.567  0.00  0.00    -0.503 OA
ATOM     26  H   UNL     1     -34.465  20.424   5.447  0.00  0.00    +0.292 HD
ENDBRANCH  18  25
TORSDOF 4
ENDMDL
MODEL 6
REMARK VINA RESULT:      -5.9      0.767      6.850
REMARK  Name = 5281860
REMARK  4 active torsions:
REMARK  status: ('A' for Active; 'I' for Inactive)
REMARK    1  A    between atoms: C_11  and  O_19
REMARK    2  A    between atoms: C_12  and  O_21
REMARK    3  A    between atoms: C_16  and  O_23
REMARK    4  A    between atoms: C_18  and  O_25
REMARK                            x       y       z     vdW  Elec       q    Type
REMARK                         _______ _______ _______ _____ _____    ______ ____
ROOT
ATOM      1  O   UNL     1     -33.689  27.816   4.444  0.00  0.00    -0.418 OA
ATOM      2  O   UNL     1     -37.398  25.378   2.057  0.00  0.00    -0.418 OA
ATOM      3  O   UNL     1     -38.041  26.829   0.403  0.00  0.00    -0.244 OA
ATOM      4  O   UNL     1     -33.047  26.366   6.100  0.00  0.00    -0.244 OA
ATOM      5  C   UNL     1     -35.473  27.224   2.910  0.00  0.00    +0.047 A 
ATOM      6  C   UNL     1     -35.613  25.971   3.591  0.00  0.00    +0.047 A 
ATOM      7  C   UNL     1     -36.282  27.547   1.822  0.00  0.00    +0.082 A 
ATOM      8  C   UNL     1     -34.514  28.134   3.342  0.00  0.00    +0.186 A 
ATOM      9  C   UNL     1     -34.804  25.648   4.680  0.00  0.00    +0.082 A 
ATOM     10  C   UNL     1     -36.571  25.061   3.159  0.00  0.00    +0.186 A 
ATOM     11  C   UNL     1     -34.341  29.363   2.714  0.00  0.00    +0.207 C 
ATOM     12  C   UNL     1     -36.745  23.832   3.787  0.00  0.00    +0.206 C 
ATOM     13  C   UNL     1     -36.123  28.779   1.176  0.00  0.00    +0.047 C 
ATOM     14  C   UNL     1     -34.963  24.416   5.324  0.00  0.00    +0.046 C 
ATOM     15  C   UNL     1     -37.309  26.583   1.353  0.00  0.00    +0.346 A 
ATOM     16  C   UNL     1     -35.152  29.682   1.625  0.00  0.00    +0.176 C 
ATOM     17  C   UNL     1     -33.777  26.611   5.149  0.00  0.00    +0.346 A 
ATOM     18  C   UNL     1     -35.934  23.512   4.875  0.00  0.00    +0.171 C 
ENDROOT
BRANCH  11  19
ATOM     19  O   UNL     1     -33.397  30.239   3.152  0.00  0.00    -0.465 OA
ATOM     20  C   UNL     1     -32.099  30.145   2.564  0.00  0.00    +0.253 C 
ENDBRANCH  11  19
BRANCH  12  21
ATOM     21  O   UNL     1     -37.689  22.955   3.349  0.00  0.00    -0.465 OA
ATOM     22  C   UNL     1     -37.303  22.044   2.321  0.00  0.00    +0.253 C 
ENDBRANCH  12  21
BRANCH  16  23
ATOM     23  O   UNL     1     -35.009  30.877   0.986  0.00  0.00    -0.468 OA
ATOM     24  C   UNL     1     -35.994  31.875   1.251  0.00  0.00    +0.253 C 
ENDBRANCH  16  23
BRANCH  18  25
ATOM     25  O   UNL     1     -36.076  22.317   5.515  0.00  0.00    -0.503 OA
ATOM     26  H   UNL     1     -35.864  21.520   5.070  0.00  0.00    +0.292 HD
ENDBRANCH  18  25
TORSDOF 4
ENDMDL
MODEL 7
REMARK VINA RESULT:      -5.9      4.269      6.833
REMARK  Name = 5281860
REMARK  4 active torsions:
REMARK  status: ('A' for Active; 'I' for Inactive)
REMARK    1  A    between atoms: C_11  and  O_19
REMARK    2  A    between atoms: C_12  and  O_21
REMARK    3  A    between atoms: C_16  and  O_23
REMARK    4  A    between atoms: C_18  and  O_25
REMARK                            x       y       z     vdW  Elec       q    Type
REMARK                         _______ _______ _______ _____ _____    ______ ____
ROOT
ATOM      1  O   UNL     1     -39.929  21.852   0.594  0.00  0.00    -0.418 OA
ATOM      2  O   UNL     1     -35.422  21.767   2.849  0.00  0.00    -0.418 OA
ATOM      3  O   UNL     1     -34.439  19.857   2.050  0.00  0.00    -0.244 OA
ATOM      4  O   UNL     1     -40.915  23.761   1.395  0.00  0.00    -0.244 OA
ATOM      5  C   UNL     1     -37.697  21.223   1.309  0.00  0.00    +0.047 A 
ATOM      6  C   UNL     1     -37.655  22.395   2.133  0.00  0.00    +0.047 A 
ATOM      7  C   UNL     1     -36.621  20.339   1.257  0.00  0.00    +0.082 A 
ATOM      8  C   UNL     1     -38.832  20.962   0.549  0.00  0.00    +0.186 A 
ATOM      9  C   UNL     1     -38.732  23.279   2.185  0.00  0.00    +0.082 A 
ATOM     10  C   UNL     1     -36.521  22.656   2.893  0.00  0.00    +0.186 A 
ATOM     11  C   UNL     1     -38.922  19.838  -0.266  0.00  0.00    +0.207 C 
ATOM     12  C   UNL     1     -36.431  23.780   3.708  0.00  0.00    +0.206 C 
ATOM     13  C   UNL     1     -36.691  19.202   0.443  0.00  0.00    +0.047 C 
ATOM     14  C   UNL     1     -38.661  24.416   2.999  0.00  0.00    +0.046 C 
ATOM     15  C   UNL     1     -35.405  20.608   2.065  0.00  0.00    +0.346 A 
ATOM     16  C   UNL     1     -37.841  18.957  -0.316  0.00  0.00    +0.176 C 
ATOM     17  C   UNL     1     -39.948  23.011   1.378  0.00  0.00    +0.346 A 
ATOM     18  C   UNL     1     -37.511  24.661   3.757  0.00  0.00    +0.171 C 
ENDROOT
BRANCH  11  19
ATOM     19  O   UNL     1     -40.040  19.602  -1.001  0.00  0.00    -0.465 OA
ATOM     20  C   UNL     1     -40.070  20.130  -2.328  0.00  0.00    +0.253 C 
ENDBRANCH  11  19
BRANCH  12  21
ATOM     21  O   UNL     1     -35.312  24.017   4.444  0.00  0.00    -0.465 OA
ATOM     22  C   UNL     1     -35.243  23.411   5.734  0.00  0.00    +0.253 C 
ENDBRANCH  12  21
BRANCH  16  23
ATOM     23  O   UNL     1     -37.894  17.845  -1.103  0.00  0.00    -0.468 OA
ATOM     24  C   UNL     1     -38.036  16.589  -0.441  0.00  0.00    +0.253 C 
ENDBRANCH  16  23
BRANCH  18  25
ATOM     25  O   UNL     1     -37.458  25.773   4.544  0.00  0.00    -0.503 OA
ATOM     26  H   UNL     1     -37.597  26.620   4.168  0.00  0.00    +0.292 HD
ENDBRANCH  18  25
TORSDOF 4
ENDMDL
MODEL 8
REMARK VINA RESULT:      -5.8      1.779      5.918
REMARK  Name = 5281860
REMARK  4 active torsions:
REMARK  status: ('A' for Active; 'I' for Inactive)
REMARK    1  A    between atoms: C_11  and  O_19
REMARK    2  A    between atoms: C_12  and  O_21
REMARK    3  A    between atoms: C_16  and  O_23
REMARK    4  A    between atoms: C_18  and  O_25
REMARK                            x       y       z     vdW  Elec       q    Type
REMARK                         _______ _______ _______ _____ _____    ______ ____
ROOT
ATOM      1  O   UNL     1     -34.039  26.988   1.145  0.00  0.00    -0.418 OA
ATOM      2  O   UNL     1     -34.349  25.431   5.929  0.00  0.00    -0.418 OA
ATOM      3  O   UNL     1     -33.019  26.902   7.078  0.00  0.00    -0.244 OA
ATOM      4  O   UNL     1     -35.367  25.515  -0.005  0.00  0.00    -0.244 OA
ATOM      5  C   UNL     1     -33.759  26.780   3.547  0.00  0.00    +0.047 A 
ATOM      6  C   UNL     1     -34.628  25.640   3.527  0.00  0.00    +0.047 A 
ATOM      7  C   UNL     1     -33.195  27.236   4.737  0.00  0.00    +0.082 A 
ATOM      8  C   UNL     1     -33.473  27.442   2.358  0.00  0.00    +0.186 A 
ATOM      9  C   UNL     1     -35.192  25.184   2.336  0.00  0.00    +0.082 A 
ATOM     10  C   UNL     1     -34.915  24.978   4.715  0.00  0.00    +0.186 A 
ATOM     11  C   UNL     1     -32.635  28.552   2.325  0.00  0.00    +0.207 C 
ATOM     12  C   UNL     1     -35.753  23.868   4.748  0.00  0.00    +0.206 C 
ATOM     13  C   UNL     1     -32.350  28.351   4.726  0.00  0.00    +0.047 C 
ATOM     14  C   UNL     1     -36.038  24.069   2.348  0.00  0.00    +0.046 C 
ATOM     15  C   UNL     1     -33.495  26.536   6.012  0.00  0.00    +0.346 A 
ATOM     16  C   UNL     1     -32.074  29.006   3.520  0.00  0.00    +0.176 C 
ATOM     17  C   UNL     1     -34.893  25.883   1.062  0.00  0.00    +0.346 A 
ATOM     18  C   UNL     1     -36.314  23.415   3.555  0.00  0.00    +0.171 C 
ENDROOT
BRANCH  11  19
ATOM     19  O   UNL     1     -32.368  29.185   1.153  0.00  0.00    -0.465 OA
ATOM     20  C   UNL     1     -33.241  30.249   0.774  0.00  0.00    +0.253 C 
ENDBRANCH  11  19
BRANCH  12  21
ATOM     21  O   UNL     1     -36.020  23.234   5.922  0.00  0.00    -0.465 OA
ATOM     22  C   UNL     1     -35.238  22.081   6.231  0.00  0.00    +0.253 C 
ENDBRANCH  12  21
BRANCH  16  23
ATOM     23  O   UNL     1     -31.248  30.090   3.525  0.00  0.00    -0.468 OA
ATOM     24  C   UNL     1     -31.316  30.950   4.660  0.00  0.00    +0.253 C 
ENDBRANCH  16  23
BRANCH  18  25
ATOM     25  O   UNL     1     -37.140  22.330   3.548  0.00  0.00    -0.503 OA
ATOM     26  H   UNL     1     -37.976  22.381   3.129  0.00  0.00    +0.292 HD
ENDBRANCH  18  25
TORSDOF 4
ENDMDL
MODEL 9
REMARK VINA RESULT:      -5.8      2.939      5.916
REMARK  Name = 5281860
REMARK  4 active torsions:
REMARK  status: ('A' for Active; 'I' for Inactive)
REMARK    1  A    between atoms: C_11  and  O_19
REMARK    2  A    between atoms: C_12  and  O_21
REMARK    3  A    between atoms: C_16  and  O_23
REMARK    4  A    between atoms: C_18  and  O_25
REMARK                            x       y       z     vdW  Elec       q    Type
REMARK                         _______ _______ _______ _____ _____    ______ ____
ROOT
ATOM      1  O   UNL     1     -37.471  21.309   2.150  0.00  0.00    -0.418 OA
ATOM      2  O   UNL     1     -37.613  26.305   2.801  0.00  0.00    -0.418 OA
ATOM      3  O   UNL     1     -39.559  26.943   1.772  0.00  0.00    -0.244 OA
ATOM      4  O   UNL     1     -35.523  20.671   3.177  0.00  0.00    -0.244 OA
ATOM      5  C   UNL     1     -38.137  23.643   2.110  0.00  0.00    +0.047 A 
ATOM      6  C   UNL     1     -36.948  23.972   2.841  0.00  0.00    +0.047 A 
ATOM      7  C   UNL     1     -39.046  24.629   1.731  0.00  0.00    +0.082 A 
ATOM      8  C   UNL     1     -38.386  22.317   1.772  0.00  0.00    +0.186 A 
ATOM      9  C   UNL     1     -36.038  22.984   3.220  0.00  0.00    +0.082 A 
ATOM     10  C   UNL     1     -36.698  25.296   3.179  0.00  0.00    +0.186 A 
ATOM     11  C   UNL     1     -39.525  21.948   1.062  0.00  0.00    +0.207 C 
ATOM     12  C   UNL     1     -35.560  25.665   3.889  0.00  0.00    +0.206 C 
ATOM     13  C   UNL     1     -40.198  24.278   1.018  0.00  0.00    +0.047 C 
ATOM     14  C   UNL     1     -34.888  23.336   3.934  0.00  0.00    +0.046 C 
ATOM     15  C   UNL     1     -38.788  26.047   2.087  0.00  0.00    +0.346 A 
ATOM     16  C   UNL     1     -40.433  22.938   0.686  0.00  0.00    +0.176 C 
ATOM     17  C   UNL     1     -36.295  21.567   2.864  0.00  0.00    +0.346 A 
ATOM     18  C   UNL     1     -34.652  24.676   4.265  0.00  0.00    +0.171 C 
ENDROOT
BRANCH  11  19
ATOM     19  O   UNL     1     -39.750  20.646   0.741  0.00  0.00    -0.465 OA
ATOM     20  C   UNL     1     -39.242  20.187  -0.512  0.00  0.00    +0.253 C 
ENDBRANCH  11  19
BRANCH  12  21
ATOM     21  O   UNL     1     -35.334  26.968   4.210  0.00  0.00    -0.465 OA
ATOM     22  C   UNL     1     -34.604  27.752   3.267  0.00  0.00    +0.253 C 
ENDBRANCH  12  21
BRANCH  16  23
ATOM     23  O   UNL     1     -41.558  22.613  -0.009  0.00  0.00    -0.468 OA
ATOM     24  C   UNL     1     -42.247  23.677  -0.664  0.00  0.00    +0.253 C 
ENDBRANCH  16  23
BRANCH  18  25
ATOM     25  O   UNL     1     -33.526  25.000   4.961  0.00  0.00    -0.503 OA
ATOM     26  H   UNL     1     -33.590  25.516   5.741  0.00  0.00    +0.292 HD
ENDBRANCH  18  25
TORSDOF 4
ENDMDL
