MODEL 1
REMARK VINA RESULT:      -5.7      0.000      0.000
REMARK  Name = 59035043
REMARK  5 active torsions:
REMARK  status: ('A' for Active; 'I' for Inactive)
REMARK    1  A    between atoms: C2*_2  and  O2*_16
REMARK    2  A    between atoms: C3*_3  and  O3*_18
REMARK    3  A    between atoms: C1*_4  and  N_9
REMARK    4  A    between atoms: C4*_5  and  C5*_20
REMARK    5  A    between atoms: C5*_20  and  O5*_21
REMARK                            x       y       z     vdW  Elec       q    Type
REMARK                         _______ _______ _______ _____ _____    ______ ____
ROOT
ATOM      1  O4* UNL     1     -36.219  24.229   5.512  0.00  0.00    -0.333 OA
ATOM      2  C2* UNL     1     -35.333  23.802   3.356  0.00  0.00    +0.187 C 
ATOM      3  C3* UNL     1     -36.142  22.599   3.795  0.00  0.00    +0.171 C 
ATOM      4  C1* UNL     1     -35.849  24.885   4.289  0.00  0.00    +0.229 C 
ATOM      5  C4* UNL     1     -36.219  22.799   5.302  0.00  0.00    +0.175 C 
ENDROOT
BRANCH   4   9
ATOM      6  S   UNL     1     -31.719  29.008   5.493  0.00  0.00    -0.032 S 
ATOM      7  F   UNL     1     -32.630  26.712   7.323  0.00  0.00    -0.201 F 
ATOM      8  O   UNL     1     -35.101  26.951   2.513  0.00  0.00    -0.252 OA
ATOM      9  N   UNL     1     -34.854  25.879   4.576  0.00  0.00    -0.214 N 
ATOM     10  N   UNL     1     -33.565  27.799   3.996  0.00  0.00    -0.261 N 
ATOM     11  C   UNL     1     -34.552  26.875   3.615  0.00  0.00    +0.314 C 
ATOM     12  C   UNL     1     -34.189  25.865   5.797  0.00  0.00    +0.103 C 
ATOM     13  C   UNL     1     -33.256  26.755   6.132  0.00  0.00    +0.175 C 
ATOM     14  C   UNL     1     -32.872  27.830   5.199  0.00  0.00    +0.117 C 
ATOM     15  H   UNL     1     -33.342  28.498   3.341  0.00  0.00    +0.157 HD
ENDBRANCH   4   9
BRANCH   2  16
ATOM     16  O2* UNL     1     -35.536  24.116   1.994  0.00  0.00    -0.378 OA
ATOM     17  H2* UNL     1     -34.677  24.187   1.548  0.00  0.00    +0.211 HD
ENDBRANCH   2  16
BRANCH   3  18
ATOM     18  O3* UNL     1     -37.467  22.676   3.272  0.00  0.00    -0.379 OA
ATOM     19  H3* UNL     1     -37.429  22.787   2.309  0.00  0.00    +0.211 HD
ENDBRANCH   3  18
BRANCH   5  20
ATOM     20  C5* UNL     1     -35.032  22.209   6.051  0.00  0.00    +0.169 C 
BRANCH  20  21
ATOM     21  O5* UNL     1     -35.062  20.799   5.911  0.00  0.00    -0.379 OA
ATOM     22  H5* UNL     1     -35.814  20.546   5.352  0.00  0.00    +0.211 HD
ENDBRANCH  20  21
ENDBRANCH   5  20
TORSDOF 5
ENDMDL
MODEL 2
REMARK VINA RESULT:      -5.4      4.308      5.422
REMARK  Name = 59035043
REMARK  5 active torsions:
REMARK  status: ('A' for Active; 'I' for Inactive)
REMARK    1  A    between atoms: C2*_2  and  O2*_16
REMARK    2  A    between atoms: C3*_3  and  O3*_18
REMARK    3  A    between atoms: C1*_4  and  N_9
REMARK    4  A    between atoms: C4*_5  and  C5*_20
REMARK    5  A    between atoms: C5*_20  and  O5*_21
REMARK                            x       y       z     vdW  Elec       q    Type
REMARK                         _______ _______ _______ _____ _____    ______ ____
ROOT
ATOM      1  O4* UNL     1     -35.142  23.511   3.847  0.00  0.00    -0.333 OA
ATOM      2  C2* UNL     1     -36.179  25.252   5.076  0.00  0.00    +0.187 C 
ATOM      3  C3* UNL     1     -34.986  24.748   5.861  0.00  0.00    +0.171 C 
ATOM      4  C1* UNL     1     -35.878  24.733   3.680  0.00  0.00    +0.229 C 
ATOM      5  C4* UNL     1     -34.741  23.385   5.230  0.00  0.00    +0.175 C 
ENDROOT
BRANCH   4   9
ATOM      6  S   UNL     1     -40.827  23.585   0.566  0.00  0.00    -0.032 S 
ATOM      7  F   UNL     1     -39.195  21.595   2.245  0.00  0.00    -0.201 F 
ATOM      8  O   UNL     1     -37.289  26.661   2.172  0.00  0.00    -0.252 OA
ATOM      9  N   UNL     1     -37.070  24.460   2.929  0.00  0.00    -0.214 N 
ATOM     10  N   UNL     1     -38.862  25.125   1.504  0.00  0.00    -0.261 N 
ATOM     11  C   UNL     1     -37.703  25.500   2.204  0.00  0.00    +0.314 C 
ATOM     12  C   UNL     1     -37.603  23.175   2.913  0.00  0.00    +0.103 C 
ATOM     13  C   UNL     1     -38.705  22.849   2.239  0.00  0.00    +0.175 C 
ATOM     14  C   UNL     1     -39.434  23.862   1.454  0.00  0.00    +0.117 C 
ATOM     15  H   UNL     1     -39.315  25.834   0.994  0.00  0.00    +0.157 HD
ENDBRANCH   4   9
BRANCH   2  16
ATOM     16  O2* UNL     1     -36.294  26.660   5.120  0.00  0.00    -0.378 OA
ATOM     17  H2* UNL     1     -35.919  26.988   5.952  0.00  0.00    +0.211 HD
ENDBRANCH   2  16
BRANCH   3  18
ATOM     18  O3* UNL     1     -33.844  25.564   5.605  0.00  0.00    -0.379 OA
ATOM     19  H3* UNL     1     -33.964  26.431   6.024  0.00  0.00    +0.211 HD
ENDBRANCH   3  18
BRANCH   5  20
ATOM     20  C5* UNL     1     -35.563  22.270   5.864  0.00  0.00    +0.169 C 
BRANCH  20  21
ATOM     21  O5* UNL     1     -34.902  21.037   5.642  0.00  0.00    -0.379 OA
ATOM     22  H5* UNL     1     -35.363  20.544   4.944  0.00  0.00    +0.211 HD
ENDBRANCH  20  21
ENDBRANCH   5  20
TORSDOF 5
ENDMDL
MODEL 3
REMARK VINA RESULT:      -5.3      3.347      4.932
REMARK  Name = 59035043
REMARK  5 active torsions:
REMARK  status: ('A' for Active; 'I' for Inactive)
REMARK    1  A    between atoms: C2*_2  and  O2*_16
REMARK    2  A    between atoms: C3*_3  and  O3*_18
REMARK    3  A    between atoms: C1*_4  and  N_9
REMARK    4  A    between atoms: C4*_5  and  C5*_20
REMARK    5  A    between atoms: C5*_20  and  O5*_21
REMARK                            x       y       z     vdW  Elec       q    Type
REMARK                         _______ _______ _______ _____ _____    ______ ____
ROOT
ATOM      1  O4* UNL     1     -34.669  20.278   2.018  0.00  0.00    -0.333 OA
ATOM      2  C2* UNL     1     -36.912  20.975   1.709  0.00  0.00    +0.187 C 
ATOM      3  C3* UNL     1     -36.588  19.914   0.679  0.00  0.00    +0.171 C 
ATOM      4  C1* UNL     1     -35.815  20.762   2.737  0.00  0.00    +0.229 C 
ATOM      5  C4* UNL     1     -35.066  19.928   0.674  0.00  0.00    +0.175 C 
ENDROOT
BRANCH   4   9
ATOM      6  S   UNL     1     -34.342  25.800   5.556  0.00  0.00    -0.032 S 
ATOM      7  F   UNL     1     -34.955  25.467   2.562  0.00  0.00    -0.201 F 
ATOM      8  O   UNL     1     -35.273  20.934   5.505  0.00  0.00    -0.252 OA
ATOM      9  N   UNL     1     -35.460  21.973   3.419  0.00  0.00    -0.214 N 
ATOM     10  N   UNL     1     -34.868  23.192   5.381  0.00  0.00    -0.261 N 
ATOM     11  C   UNL     1     -35.207  21.953   4.813  0.00  0.00    +0.314 C 
ATOM     12  C   UNL     1     -35.363  23.167   2.711  0.00  0.00    +0.103 C 
ATOM     13  C   UNL     1     -35.039  24.328   3.277  0.00  0.00    +0.175 C 
ATOM     14  C   UNL     1     -34.758  24.409   4.722  0.00  0.00    +0.117 C 
ATOM     15  H   UNL     1     -34.689  23.197   6.348  0.00  0.00    +0.157 HD
ENDBRANCH   4   9
BRANCH   2  16
ATOM     16  O2* UNL     1     -38.206  20.817   2.254  0.00  0.00    -0.378 OA
ATOM     17  H2* UNL     1     -38.517  21.669   2.600  0.00  0.00    +0.211 HD
ENDBRANCH   2  16
BRANCH   3  18
ATOM     18  O3* UNL     1     -37.015  18.632   1.138  0.00  0.00    -0.379 OA
ATOM     19  H3* UNL     1     -37.618  18.741   1.890  0.00  0.00    +0.211 HD
ENDBRANCH   3  18
BRANCH   5  20
ATOM     20  C5* UNL     1     -34.476  20.959  -0.280  0.00  0.00    +0.169 C 
BRANCH  20  21
ATOM     21  O5* UNL     1     -33.301  21.494   0.301  0.00  0.00    -0.379 OA
ATOM     22  H5* UNL     1     -33.122  21.044   1.143  0.00  0.00    +0.211 HD
ENDBRANCH  20  21
ENDBRANCH   5  20
TORSDOF 5
ENDMDL
MODEL 4
REMARK VINA RESULT:      -5.2      4.648      6.427
REMARK  Name = 59035043
REMARK  5 active torsions:
REMARK  status: ('A' for Active; 'I' for Inactive)
REMARK    1  A    between atoms: C2*_2  and  O2*_16
REMARK    2  A    between atoms: C3*_3  and  O3*_18
REMARK    3  A    between atoms: C1*_4  and  N_9
REMARK    4  A    between atoms: C4*_5  and  C5*_20
REMARK    5  A    between atoms: C5*_20  and  O5*_21
REMARK                            x       y       z     vdW  Elec       q    Type
REMARK                         _______ _______ _______ _____ _____    ______ ____
ROOT
ATOM      1  O4* UNL     1     -36.455  24.215   2.740  0.00  0.00    -0.333 OA
ATOM      2  C2* UNL     1     -35.754  22.987   4.641  0.00  0.00    +0.187 C 
ATOM      3  C3* UNL     1     -35.513  24.459   4.900  0.00  0.00    +0.171 C 
ATOM      4  C1* UNL     1     -36.748  23.027   3.493  0.00  0.00    +0.229 C 
ATOM      5  C4* UNL     1     -35.535  25.038   3.492  0.00  0.00    +0.175 C 
ENDROOT
BRANCH   4   9
ATOM      6  S   UNL     1     -36.256  18.294  -0.093  0.00  0.00    -0.032 S 
ATOM      7  F   UNL     1     -34.035  19.562   1.612  0.00  0.00    -0.201 F 
ATOM      8  O   UNL     1     -38.876  21.957   1.974  0.00  0.00    -0.252 OA
ATOM      9  N   UNL     1     -36.633  21.887   2.629  0.00  0.00    -0.214 N 
ATOM     10  N   UNL     1     -37.542  20.308   1.092  0.00  0.00    -0.261 N 
ATOM     11  C   UNL     1     -37.763  21.429   1.908  0.00  0.00    +0.314 C 
ATOM     12  C   UNL     1     -35.412  21.234   2.498  0.00  0.00    +0.103 C 
ATOM     13  C   UNL     1     -35.231  20.172   1.715  0.00  0.00    +0.175 C 
ATOM     14  C   UNL     1     -36.347  19.620   0.926  0.00  0.00    +0.117 C 
ATOM     15  H   UNL     1     -38.316  19.974   0.584  0.00  0.00    +0.157 HD
ENDBRANCH   4   9
BRANCH   2  16
ATOM     16  O2* UNL     1     -36.263  22.319   5.778  0.00  0.00    -0.378 OA
ATOM     17  H2* UNL     1     -37.210  22.509   5.866  0.00  0.00    +0.211 HD
ENDBRANCH   2  16
BRANCH   3  18
ATOM     18  O3* UNL     1     -36.606  25.020   5.624  0.00  0.00    -0.379 OA
ATOM     19  H3* UNL     1     -36.622  25.982   5.495  0.00  0.00    +0.211 HD
ENDBRANCH   3  18
BRANCH   5  20
ATOM     20  C5* UNL     1     -34.180  24.991   2.799  0.00  0.00    +0.169 C 
BRANCH  20  21
ATOM     21  O5* UNL     1     -33.185  25.401   3.720  0.00  0.00    -0.379 OA
ATOM     22  H5* UNL     1     -33.141  26.370   3.739  0.00  0.00    +0.211 HD
ENDBRANCH  20  21
ENDBRANCH   5  20
TORSDOF 5
ENDMDL
MODEL 5
REMARK VINA RESULT:      -5.2      3.889      5.317
REMARK  Name = 59035043
REMARK  5 active torsions:
REMARK  status: ('A' for Active; 'I' for Inactive)
REMARK    1  A    between atoms: C2*_2  and  O2*_16
REMARK    2  A    between atoms: C3*_3  and  O3*_18
REMARK    3  A    between atoms: C1*_4  and  N_9
REMARK    4  A    between atoms: C4*_5  and  C5*_20
REMARK    5  A    between atoms: C5*_20  and  O5*_21
REMARK                            x       y       z     vdW  Elec       q    Type
REMARK                         _______ _______ _______ _____ _____    ______ ____
ROOT
ATOM      1  O4* UNL     1     -36.722  24.196   4.595  0.00  0.00    -0.333 OA
ATOM      2  C2* UNL     1     -35.460  22.244   4.135  0.00  0.00    +0.187 C 
ATOM      3  C3* UNL     1     -35.229  22.642   5.577  0.00  0.00    +0.171 C 
ATOM      4  C1* UNL     1     -36.735  22.999   3.800  0.00  0.00    +0.229 C 
ATOM      5  C4* UNL     1     -35.671  24.098   5.582  0.00  0.00    +0.175 C 
ENDROOT
BRANCH   4   9
ATOM      6  S   UNL     1     -37.038  24.516  -1.954  0.00  0.00    -0.032 S 
ATOM      7  F   UNL     1     -35.909  26.210   0.349  0.00  0.00    -0.201 F 
ATOM      8  O   UNL     1     -37.801  21.343   1.775  0.00  0.00    -0.252 OA
ATOM      9  N   UNL     1     -36.809  23.361   2.414  0.00  0.00    -0.214 N 
ATOM     10  N   UNL     1     -37.389  22.910   0.146  0.00  0.00    -0.261 N 
ATOM     11  C   UNL     1     -37.364  22.456   1.475  0.00  0.00    +0.314 C 
ATOM     12  C   UNL     1     -36.338  24.600   1.992  0.00  0.00    +0.103 C 
ATOM     13  C   UNL     1     -36.375  25.003   0.724  0.00  0.00    +0.175 C 
ATOM     14  C   UNL     1     -36.933  24.133  -0.327  0.00  0.00    +0.117 C 
ATOM     15  H   UNL     1     -37.770  22.294  -0.521  0.00  0.00    +0.157 HD
ENDBRANCH   4   9
BRANCH   2  16
ATOM     16  O2* UNL     1     -35.599  20.847   3.979  0.00  0.00    -0.378 OA
ATOM     17  H2* UNL     1     -36.320  20.662   3.357  0.00  0.00    +0.211 HD
ENDBRANCH   2  16
BRANCH   3  18
ATOM     18  O3* UNL     1     -36.104  21.913   6.437  0.00  0.00    -0.379 OA
ATOM     19  H3* UNL     1     -36.996  22.292   6.389  0.00  0.00    +0.211 HD
ENDBRANCH   3  18
BRANCH   5  20
ATOM     20  C5* UNL     1     -34.562  25.066   5.192  0.00  0.00    +0.169 C 
BRANCH  20  21
ATOM     21  O5* UNL     1     -34.974  26.382   5.516  0.00  0.00    -0.379 OA
ATOM     22  H5* UNL     1     -34.208  26.978   5.485  0.00  0.00    +0.211 HD
ENDBRANCH  20  21
ENDBRANCH   5  20
TORSDOF 5
ENDMDL
MODEL 6
REMARK VINA RESULT:      -5.1      4.558      5.790
REMARK  Name = 59035043
REMARK  5 active torsions:
REMARK  status: ('A' for Active; 'I' for Inactive)
REMARK    1  A    between atoms: C2*_2  and  O2*_16
REMARK    2  A    between atoms: C3*_3  and  O3*_18
REMARK    3  A    between atoms: C1*_4  and  N_9
REMARK    4  A    between atoms: C4*_5  and  C5*_20
REMARK    5  A    between atoms: C5*_20  and  O5*_21
REMARK                            x       y       z     vdW  Elec       q    Type
REMARK                         _______ _______ _______ _____ _____    ______ ____
ROOT
ATOM      1  O4* UNL     1     -34.906  23.218   3.985  0.00  0.00    -0.333 OA
ATOM      2  C2* UNL     1     -36.714  24.680   4.443  0.00  0.00    +0.187 C 
ATOM      3  C3* UNL     1     -35.747  24.726   5.607  0.00  0.00    +0.171 C 
ATOM      4  C1* UNL     1     -35.853  24.086   3.341  0.00  0.00    +0.229 C 
ATOM      5  C4* UNL     1     -34.951  23.443   5.412  0.00  0.00    +0.175 C 
ENDROOT
BRANCH   4   9
ATOM      6  S   UNL     1     -39.045  20.911  -0.561  0.00  0.00    -0.032 S 
ATOM      7  F   UNL     1     -39.673  21.356   2.414  0.00  0.00    -0.201 F 
ATOM      8  O   UNL     1     -35.163  23.753   0.622  0.00  0.00    -0.252 OA
ATOM      9  N   UNL     1     -36.619  23.322   2.399  0.00  0.00    -0.214 N 
ATOM     10  N   UNL     1     -37.008  22.446   0.216  0.00  0.00    -0.261 N 
ATOM     11  C   UNL     1     -36.186  23.217   1.054  0.00  0.00    +0.314 C 
ATOM     12  C   UNL     1     -37.787  22.685   2.806  0.00  0.00    +0.103 C 
ATOM     13  C   UNL     1     -38.547  21.960   1.987  0.00  0.00    +0.175 C 
ATOM     14  C   UNL     1     -38.179  21.792   0.570  0.00  0.00    +0.117 C 
ATOM     15  H   UNL     1     -36.723  22.362  -0.722  0.00  0.00    +0.157 HD
ENDBRANCH   4   9
BRANCH   2  16
ATOM     16  O2* UNL     1     -37.215  25.959   4.111  0.00  0.00    -0.378 OA
ATOM     17  H2* UNL     1     -36.504  26.494   3.724  0.00  0.00    +0.211 HD
ENDBRANCH   2  16
BRANCH   3  18
ATOM     18  O3* UNL     1     -34.850  25.826   5.462  0.00  0.00    -0.379 OA
ATOM     19  H3* UNL     1     -35.234  26.615   5.877  0.00  0.00    +0.211 HD
ENDBRANCH   3  18
BRANCH   5  20
ATOM     20  C5* UNL     1     -35.597  22.228   6.064  0.00  0.00    +0.169 C 
BRANCH  20  21
ATOM     21  O5* UNL     1     -34.930  21.063   5.614  0.00  0.00    -0.379 OA
ATOM     22  H5* UNL     1     -34.106  21.314   5.165  0.00  0.00    +0.211 HD
ENDBRANCH  20  21
ENDBRANCH   5  20
TORSDOF 5
ENDMDL
MODEL 7
REMARK VINA RESULT:      -5.1      2.309      3.479
REMARK  Name = 59035043
REMARK  5 active torsions:
REMARK  status: ('A' for Active; 'I' for Inactive)
REMARK    1  A    between atoms: C2*_2  and  O2*_16
REMARK    2  A    between atoms: C3*_3  and  O3*_18
REMARK    3  A    between atoms: C1*_4  and  N_9
REMARK    4  A    between atoms: C4*_5  and  C5*_20
REMARK    5  A    between atoms: C5*_20  and  O5*_21
REMARK                            x       y       z     vdW  Elec       q    Type
REMARK                         _______ _______ _______ _____ _____    ______ ____
ROOT
ATOM      1  O4* UNL     1     -33.623  24.785   4.398  0.00  0.00    -0.333 OA
ATOM      2  C2* UNL     1     -35.633  26.023   4.612  0.00  0.00    +0.187 C 
ATOM      3  C3* UNL     1     -35.971  24.630   4.125  0.00  0.00    +0.171 C 
ATOM      4  C1* UNL     1     -34.234  25.829   5.173  0.00  0.00    +0.229 C 
ATOM      5  C4* UNL     1     -34.633  24.146   3.585  0.00  0.00    +0.175 C 
ENDROOT
BRANCH   4   9
ATOM      6  S   UNL     1     -30.912  30.755   4.730  0.00  0.00    -0.032 S 
ATOM      7  F   UNL     1     -32.509  29.394   2.485  0.00  0.00    -0.201 F 
ATOM      8  O   UNL     1     -32.809  26.983   7.322  0.00  0.00    -0.252 OA
ATOM      9  N   UNL     1     -33.433  27.015   5.070  0.00  0.00    -0.214 N 
ATOM     10  N   UNL     1     -32.001  28.679   6.000  0.00  0.00    -0.261 N 
ATOM     11  C   UNL     1     -32.757  27.514   6.211  0.00  0.00    +0.314 C 
ATOM     12  C   UNL     1     -33.321  27.675   3.850  0.00  0.00    +0.103 C 
ATOM     13  C   UNL     1     -32.596  28.779   3.680  0.00  0.00    +0.175 C 
ATOM     14  C   UNL     1     -31.856  29.374   4.807  0.00  0.00    +0.117 C 
ATOM     15  H   UNL     1     -31.524  29.040   6.781  0.00  0.00    +0.157 HD
ENDBRANCH   4   9
BRANCH   2  16
ATOM     16  O2* UNL     1     -36.548  26.490   5.582  0.00  0.00    -0.378 OA
ATOM     17  H2* UNL     1     -37.094  27.194   5.197  0.00  0.00    +0.211 HD
ENDBRANCH   2  16
BRANCH   3  18
ATOM     18  O3* UNL     1     -36.330  23.795   5.225  0.00  0.00    -0.379 OA
ATOM     19  H3* UNL     1     -37.294  23.686   5.248  0.00  0.00    +0.211 HD
ENDBRANCH   3  18
BRANCH   5  20
ATOM     20  C5* UNL     1     -34.391  24.538   2.133  0.00  0.00    +0.169 C 
BRANCH  20  21
ATOM     21  O5* UNL     1     -35.617  24.451   1.430  0.00  0.00    -0.379 OA
ATOM     22  H5* UNL     1     -36.190  23.794   1.858  0.00  0.00    +0.211 HD
ENDBRANCH  20  21
ENDBRANCH   5  20
TORSDOF 5
ENDMDL
MODEL 8
REMARK VINA RESULT:      -5.0      4.514      6.346
REMARK  Name = 59035043
REMARK  5 active torsions:
REMARK  status: ('A' for Active; 'I' for Inactive)
REMARK    1  A    between atoms: C2*_2  and  O2*_16
REMARK    2  A    between atoms: C3*_3  and  O3*_18
REMARK    3  A    between atoms: C1*_4  and  N_9
REMARK    4  A    between atoms: C4*_5  and  C5*_20
REMARK    5  A    between atoms: C5*_20  and  O5*_21
REMARK                            x       y       z     vdW  Elec       q    Type
REMARK                         _______ _______ _______ _____ _____    ______ ____
ROOT
ATOM      1  O4* UNL     1     -37.685  24.046   3.712  0.00  0.00    -0.333 OA
ATOM      2  C2* UNL     1     -35.392  24.634   3.826  0.00  0.00    +0.187 C 
ATOM      3  C3* UNL     1     -36.220  25.824   4.264  0.00  0.00    +0.171 C 
ATOM      4  C1* UNL     1     -36.383  23.492   3.965  0.00  0.00    +0.229 C 
ATOM      5  C4* UNL     1     -37.590  25.487   3.691  0.00  0.00    +0.175 C 
ENDROOT
BRANCH   4   9
ATOM      6  S   UNL     1     -35.362  19.109   0.060  0.00  0.00    -0.032 S 
ATOM      7  F   UNL     1     -36.687  21.823  -0.510  0.00  0.00    -0.201 F 
ATOM      8  O   UNL     1     -35.152  21.035   4.621  0.00  0.00    -0.252 OA
ATOM      9  N   UNL     1     -36.136  22.434   3.027  0.00  0.00    -0.214 N 
ATOM     10  N   UNL     1     -35.316  20.269   2.461  0.00  0.00    -0.261 N 
ATOM     11  C   UNL     1     -35.510  21.238   3.458  0.00  0.00    +0.314 C 
ATOM     12  C   UNL     1     -36.511  22.584   1.696  0.00  0.00    +0.103 C 
ATOM     13  C   UNL     1     -36.313  21.646   0.772  0.00  0.00    +0.175 C 
ATOM     14  C   UNL     1     -35.670  20.367   1.123  0.00  0.00    +0.117 C 
ATOM     15  H   UNL     1     -34.882  19.431   2.742  0.00  0.00    +0.157 HD
ENDBRANCH   4   9
BRANCH   2  16
ATOM     16  O2* UNL     1     -34.242  24.457   4.627  0.00  0.00    -0.378 OA
ATOM     17  H2* UNL     1     -34.388  24.863   5.496  0.00  0.00    +0.211 HD
ENDBRANCH   2  16
BRANCH   3  18
ATOM     18  O3* UNL     1     -36.332  25.851   5.686  0.00  0.00    -0.379 OA
ATOM     19  H3* UNL     1     -35.518  25.503   6.083  0.00  0.00    +0.211 HD
ENDBRANCH   3  18
BRANCH   5  20
ATOM     20  C5* UNL     1     -37.774  25.955   2.254  0.00  0.00    +0.169 C 
BRANCH  20  21
ATOM     21  O5* UNL     1     -37.406  27.321   2.171  0.00  0.00    -0.379 OA
ATOM     22  H5* UNL     1     -36.479  27.423   2.438  0.00  0.00    +0.211 HD
ENDBRANCH  20  21
ENDBRANCH   5  20
TORSDOF 5
ENDMDL
MODEL 9
REMARK VINA RESULT:      -5.0      3.851      4.899
REMARK  Name = 59035043
REMARK  5 active torsions:
REMARK  status: ('A' for Active; 'I' for Inactive)
REMARK    1  A    between atoms: C2*_2  and  O2*_16
REMARK    2  A    between atoms: C3*_3  and  O3*_18
REMARK    3  A    between atoms: C1*_4  and  N_9
REMARK    4  A    between atoms: C4*_5  and  C5*_20
REMARK    5  A    between atoms: C5*_20  and  O5*_21
REMARK                            x       y       z     vdW  Elec       q    Type
REMARK                         _______ _______ _______ _____ _____    ______ ____
ROOT
ATOM      1  O4* UNL     1     -36.588  24.923   5.212  0.00  0.00    -0.333 OA
ATOM      2  C2* UNL     1     -36.173  23.115   3.736  0.00  0.00    +0.187 C 
ATOM      3  C3* UNL     1     -35.349  22.916   4.991  0.00  0.00    +0.171 C 
ATOM      4  C1* UNL     1     -37.216  24.118   4.201  0.00  0.00    +0.229 C 
ATOM      5  C4* UNL     1     -35.331  24.317   5.586  0.00  0.00    +0.175 C 
ENDROOT
BRANCH   4   9
ATOM      6  S   UNL     1     -39.073  27.663  -0.214  0.00  0.00    -0.032 S 
ATOM      7  F   UNL     1     -36.167  26.946   0.484  0.00  0.00    -0.201 F 
ATOM      8  O   UNL     1     -39.928  24.699   3.663  0.00  0.00    -0.252 OA
ATOM      9  N   UNL     1     -37.667  24.971   3.138  0.00  0.00    -0.214 N 
ATOM     10  N   UNL     1     -39.385  26.049   1.886  0.00  0.00    -0.261 N 
ATOM     11  C   UNL     1     -39.053  25.199   2.953  0.00  0.00    +0.314 C 
ATOM     12  C   UNL     1     -36.743  25.575   2.292  0.00  0.00    +0.103 C 
ATOM     13  C   UNL     1     -37.088  26.378   1.287  0.00  0.00    +0.175 C 
ATOM     14  C   UNL     1     -38.505  26.675   1.014  0.00  0.00    +0.117 C 
ATOM     15  H   UNL     1     -40.344  26.219   1.742  0.00  0.00    +0.157 HD
ENDBRANCH   4   9
BRANCH   2  16
ATOM     16  O2* UNL     1     -36.746  21.909   3.274  0.00  0.00    -0.378 OA
ATOM     17  H2* UNL     1     -37.555  22.107   2.775  0.00  0.00    +0.211 HD
ENDBRANCH   2  16
BRANCH   3  18
ATOM     18  O3* UNL     1     -36.034  22.059   5.902  0.00  0.00    -0.379 OA
ATOM     19  H3* UNL     1     -36.780  22.536   6.298  0.00  0.00    +0.211 HD
ENDBRANCH   3  18
BRANCH   5  20
ATOM     20  C5* UNL     1     -34.204  25.187   5.047  0.00  0.00    +0.169 C 
BRANCH  20  21
ATOM     21  O5* UNL     1     -34.420  26.522   5.470  0.00  0.00    -0.379 OA
ATOM     22  H5* UNL     1     -35.308  26.600   5.855  0.00  0.00    +0.211 HD
ENDBRANCH  20  21
ENDBRANCH   5  20
TORSDOF 5
ENDMDL
