MODEL 1
REMARK VINA RESULT:      -6.3      0.000      0.000
REMARK  Name = 193055
REMARK  13 active torsions:
REMARK  status: ('A' for Active; 'I' for Inactive)
REMARK    1  A    between atoms: C_1  and  C_2
REMARK    2  A    between atoms: C_1  and  C_15
REMARK    3  A    between atoms: C_1  and  C_17
REMARK    4  A    between atoms: C_7  and  O_8
REMARK    5  A    between atoms: O_8  and  P_9
REMARK    6  A    between atoms: P_9  and  O_11
REMARK    7  A    between atoms: P_9  and  O_13
REMARK    8  A    between atoms: C_17  and  C_18
REMARK    9  A    between atoms: C_17  and  C_31
REMARK   10  A    between atoms: C_23  and  O_24
REMARK   11  A    between atoms: O_24  and  P_25
REMARK   12  A    between atoms: P_25  and  O_27
REMARK   13  A    between atoms: P_25  and  O_29
REMARK                            x       y       z     vdW  Elec       q    Type
REMARK                         _______ _______ _______ _____ _____    ______ ____
ROOT
ATOM      1  C   UNL     1     -34.723  23.510   4.112  0.00  0.00    +0.026 C 
ENDROOT
BRANCH   1   2
ATOM      2  C   UNL     1     -34.132  24.885   4.424  0.00  0.00    -0.022 C 
ATOM      3  C   UNL     1     -34.201  25.355   5.717  0.00  0.00    -0.001 C 
ATOM      4  C   UNL     1     -33.554  25.602   3.402  0.00  0.00    -0.001 C 
ATOM      5  C   UNL     1     -33.663  26.610   6.002  0.00  0.00    +0.037 C 
ATOM      6  C   UNL     1     -33.016  26.857   3.687  0.00  0.00    +0.037 C 
ATOM      7  C   UNL     1     -33.070  27.360   4.987  0.00  0.00    +0.149 C 
BRANCH   7   8
ATOM      8  O   UNL     1     -32.544  28.585   5.266  0.00  0.00    -0.403 OA
BRANCH   8   9
ATOM      9  P   UNL     1     -31.184  28.850   6.102  0.00  0.00    +0.528 P 
ATOM     10  O   UNL     1     -30.177  27.739   6.056  0.00  0.00    -0.216 OA
BRANCH   9  11
ATOM     11  O   UNL     1     -31.736  29.191   7.584  0.00  0.00    -0.293 OA
ATOM     12  H   UNL     1     -31.432  30.073   7.848  0.00  0.00    +0.223 HD
ENDBRANCH   9  11
BRANCH   9  13
ATOM     13  O   UNL     1     -30.667  30.288   5.569  0.00  0.00    -0.293 OA
ATOM     14  H   UNL     1     -30.688  30.300   4.599  0.00  0.00    +0.223 HD
ENDBRANCH   9  13
ENDBRANCH   8   9
ENDBRANCH   7   8
ENDBRANCH   1   2
BRANCH   1  15
ATOM     15  C   UNL     1     -35.676  23.053   5.245  0.00  0.00    +0.005 C 
ATOM     16  C   UNL     1     -35.226  21.775   5.950  0.00  0.00    +0.000 C 
ENDBRANCH   1  15
BRANCH   1  17
ATOM     17  C   UNL     1     -35.406  23.500   2.694  0.00  0.00    +0.026 C 
BRANCH  17  18
ATOM     18  C   UNL     1     -36.873  23.922   2.789  0.00  0.00    -0.022 C 
ATOM     19  C   UNL     1     -37.164  25.212   3.170  0.00  0.00    -0.001 C 
ATOM     20  C   UNL     1     -37.846  22.995   2.493  0.00  0.00    -0.001 C 
ATOM     21  C   UNL     1     -38.503  25.596   3.257  0.00  0.00    +0.037 C 
ATOM     22  C   UNL     1     -39.184  23.380   2.581  0.00  0.00    +0.037 C 
ATOM     23  C   UNL     1     -39.512  24.680   2.963  0.00  0.00    +0.149 C 
BRANCH  23  24
ATOM     24  O   UNL     1     -40.818  25.057   3.048  0.00  0.00    -0.403 OA
BRANCH  24  25
ATOM     25  P   UNL     1     -41.390  26.525   2.678  0.00  0.00    +0.528 P 
ATOM     26  O   UNL     1     -40.706  27.209   1.529  0.00  0.00    -0.216 OA
BRANCH  25  27
ATOM     27  O   UNL     1     -41.282  27.315   4.086  0.00  0.00    -0.293 OA
ATOM     28  H   UNL     1     -42.162  27.376   4.490  0.00  0.00    +0.223 HD
ENDBRANCH  25  27
BRANCH  25  29
ATOM     29  O   UNL     1     -42.983  26.298   2.511  0.00  0.00    -0.293 OA
ATOM     30  H   UNL     1     -43.227  26.395   1.578  0.00  0.00    +0.223 HD
ENDBRANCH  25  29
ENDBRANCH  24  25
ENDBRANCH  23  24
ENDBRANCH  17  18
BRANCH  17  31
ATOM     31  C   UNL     1     -35.271  22.134   1.974  0.00  0.00    +0.005 C 
ATOM     32  C   UNL     1     -34.340  22.165   0.765  0.00  0.00    +0.000 C 
ENDBRANCH  17  31
ENDBRANCH   1  17
TORSDOF 13
ENDMDL
MODEL 2
REMARK VINA RESULT:      -6.2      5.005      8.138
REMARK  Name = 193055
REMARK  13 active torsions:
REMARK  status: ('A' for Active; 'I' for Inactive)
REMARK    1  A    between atoms: C_1  and  C_2
REMARK    2  A    between atoms: C_1  and  C_15
REMARK    3  A    between atoms: C_1  and  C_17
REMARK    4  A    between atoms: C_7  and  O_8
REMARK    5  A    between atoms: O_8  and  P_9
REMARK    6  A    between atoms: P_9  and  O_11
REMARK    7  A    between atoms: P_9  and  O_13
REMARK    8  A    between atoms: C_17  and  C_18
REMARK    9  A    between atoms: C_17  and  C_31
REMARK   10  A    between atoms: C_23  and  O_24
REMARK   11  A    between atoms: O_24  and  P_25
REMARK   12  A    between atoms: P_25  and  O_27
REMARK   13  A    between atoms: P_25  and  O_29
REMARK                            x       y       z     vdW  Elec       q    Type
REMARK                         _______ _______ _______ _____ _____    ______ ____
ROOT
ATOM      1  C   UNL     1     -36.695  22.802   2.593  0.00  0.00    +0.026 C 
ENDROOT
BRANCH   1   2
ATOM      2  C   UNL     1     -35.925  21.729   1.822  0.00  0.00    -0.022 C 
ATOM      3  C   UNL     1     -36.489  20.480   1.689  0.00  0.00    -0.001 C 
ATOM      4  C   UNL     1     -34.699  22.052   1.289  0.00  0.00    -0.001 C 
ATOM      5  C   UNL     1     -35.786  19.501   0.986  0.00  0.00    +0.037 C 
ATOM      6  C   UNL     1     -33.996  21.073   0.586  0.00  0.00    +0.037 C 
ATOM      7  C   UNL     1     -34.540  19.798   0.435  0.00  0.00    +0.149 C 
BRANCH   7   8
ATOM      8  O   UNL     1     -33.855  18.843  -0.252  0.00  0.00    -0.403 OA
BRANCH   8   9
ATOM      9  P   UNL     1     -33.094  17.579   0.413  0.00  0.00    +0.528 P 
ATOM     10  O   UNL     1     -32.415  17.856   1.722  0.00  0.00    -0.216 OA
BRANCH   9  11
ATOM     11  O   UNL     1     -32.099  17.098  -0.769  0.00  0.00    -0.293 OA
ATOM     12  H   UNL     1     -32.420  16.262  -1.142  0.00  0.00    +0.223 HD
ENDBRANCH   9  11
BRANCH   9  13
ATOM     13  O   UNL     1     -34.216  16.412   0.438  0.00  0.00    -0.293 OA
ATOM     14  H   UNL     1     -34.525  16.241  -0.466  0.00  0.00    +0.223 HD
ENDBRANCH   9  13
ENDBRANCH   8   9
ENDBRANCH   7   8
ENDBRANCH   1   2
BRANCH   1  15
ATOM     15  C   UNL     1     -38.222  22.548   2.508  0.00  0.00    +0.005 C 
ATOM     16  C   UNL     1     -39.065  23.812   2.660  0.00  0.00    +0.000 C 
ENDBRANCH   1  15
BRANCH   1  17
ATOM     17  C   UNL     1     -36.173  22.913   4.074  0.00  0.00    +0.026 C 
BRANCH  17  18
ATOM     18  C   UNL     1     -35.460  24.246   4.305  0.00  0.00    -0.022 C 
ATOM     19  C   UNL     1     -34.309  24.509   3.597  0.00  0.00    -0.001 C 
ATOM     20  C   UNL     1     -35.995  25.131   5.213  0.00  0.00    -0.001 C 
ATOM     21  C   UNL     1     -33.659  25.726   3.809  0.00  0.00    +0.037 C 
ATOM     22  C   UNL     1     -35.344  26.346   5.424  0.00  0.00    +0.037 C 
ATOM     23  C   UNL     1     -34.176  26.644   4.722  0.00  0.00    +0.149 C 
BRANCH  23  24
ATOM     24  O   UNL     1     -33.541  27.831   4.927  0.00  0.00    -0.403 OA
BRANCH  24  25
ATOM     25  P   UNL     1     -32.099  28.005   5.640  0.00  0.00    +0.528 P 
ATOM     26  O   UNL     1     -30.911  27.770   4.751  0.00  0.00    -0.216 OA
BRANCH  25  27
ATOM     27  O   UNL     1     -32.199  26.995   6.900  0.00  0.00    -0.293 OA
ATOM     28  H   UNL     1     -33.025  26.489   6.844  0.00  0.00    +0.223 HD
ENDBRANCH  25  27
BRANCH  25  29
ATOM     29  O   UNL     1     -32.176  29.462   6.337  0.00  0.00    -0.293 OA
ATOM     30  H   UNL     1     -31.649  29.460   7.151  0.00  0.00    +0.223 HD
ENDBRANCH  25  29
ENDBRANCH  24  25
ENDBRANCH  23  24
ENDBRANCH  17  18
BRANCH  17  31
ATOM     31  C   UNL     1     -35.264  21.724   4.478  0.00  0.00    +0.005 C 
ATOM     32  C   UNL     1     -35.063  21.587   5.984  0.00  0.00    +0.000 C 
ENDBRANCH  17  31
ENDBRANCH   1  17
TORSDOF 13
ENDMDL
MODEL 3
REMARK VINA RESULT:      -6.0      1.619      8.216
REMARK  Name = 193055
REMARK  13 active torsions:
REMARK  status: ('A' for Active; 'I' for Inactive)
REMARK    1  A    between atoms: C_1  and  C_2
REMARK    2  A    between atoms: C_1  and  C_15
REMARK    3  A    between atoms: C_1  and  C_17
REMARK    4  A    between atoms: C_7  and  O_8
REMARK    5  A    between atoms: O_8  and  P_9
REMARK    6  A    between atoms: P_9  and  O_11
REMARK    7  A    between atoms: P_9  and  O_13
REMARK    8  A    between atoms: C_17  and  C_18
REMARK    9  A    between atoms: C_17  and  C_31
REMARK   10  A    between atoms: C_23  and  O_24
REMARK   11  A    between atoms: O_24  and  P_25
REMARK   12  A    between atoms: P_25  and  O_27
REMARK   13  A    between atoms: P_25  and  O_29
REMARK                            x       y       z     vdW  Elec       q    Type
REMARK                         _______ _______ _______ _____ _____    ______ ____
ROOT
ATOM      1  C   UNL     1     -35.724  23.441   4.237  0.00  0.00    +0.026 C 
ENDROOT
BRANCH   1   2
ATOM      2  C   UNL     1     -37.070  23.403   3.512  0.00  0.00    -0.022 C 
ATOM      3  C   UNL     1     -37.901  24.497   3.608  0.00  0.00    -0.001 C 
ATOM      4  C   UNL     1     -37.401  22.278   2.793  0.00  0.00    -0.001 C 
ATOM      5  C   UNL     1     -39.130  24.463   2.949  0.00  0.00    +0.037 C 
ATOM      6  C   UNL     1     -38.630  22.244   2.133  0.00  0.00    +0.037 C 
ATOM      7  C   UNL     1     -39.494  23.337   2.211  0.00  0.00    +0.149 C 
BRANCH   7   8
ATOM      8  O   UNL     1     -40.693  23.304   1.566  0.00  0.00    -0.403 OA
BRANCH   8   9
ATOM      9  P   UNL     1     -41.001  23.987   0.132  0.00  0.00    +0.528 P 
ATOM     10  O   UNL     1     -39.858  23.983  -0.839  0.00  0.00    -0.216 OA
BRANCH   9  11
ATOM     11  O   UNL     1     -41.525  25.462   0.544  0.00  0.00    -0.293 OA
ATOM     12  H   UNL     1     -42.309  25.380   1.108  0.00  0.00    +0.223 HD
ENDBRANCH   9  11
BRANCH   9  13
ATOM     13  O   UNL     1     -42.352  23.252  -0.372  0.00  0.00    -0.293 OA
ATOM     14  H   UNL     1     -42.797  23.809  -1.031  0.00  0.00    +0.223 HD
ENDBRANCH   9  13
ENDBRANCH   8   9
ENDBRANCH   7   8
ENDBRANCH   1   2
BRANCH   1  15
ATOM     15  C   UNL     1     -35.337  22.029   4.748  0.00  0.00    +0.005 C 
ATOM     16  C   UNL     1     -35.186  21.945   6.265  0.00  0.00    +0.000 C 
ENDBRANCH   1  15
BRANCH   1  17
ATOM     17  C   UNL     1     -34.615  24.090   3.328  0.00  0.00    +0.026 C 
BRANCH  17  18
ATOM     18  C   UNL     1     -34.023  25.334   3.992  0.00  0.00    -0.022 C 
ATOM     19  C   UNL     1     -33.347  26.242   3.208  0.00  0.00    -0.001 C 
ATOM     20  C   UNL     1     -34.185  25.499   5.349  0.00  0.00    -0.001 C 
ATOM     21  C   UNL     1     -32.806  27.376   3.814  0.00  0.00    +0.037 C 
ATOM     22  C   UNL     1     -33.644  26.633   5.954  0.00  0.00    +0.037 C 
ATOM     23  C   UNL     1     -32.955  27.572   5.187  0.00  0.00    +0.149 C 
BRANCH  23  24
ATOM     24  O   UNL     1     -32.428  28.680   5.777  0.00  0.00    -0.403 OA
BRANCH  24  25
ATOM     25  P   UNL     1     -30.884  28.848   6.231  0.00  0.00    +0.528 P 
ATOM     26  O   UNL     1     -29.975  29.456   5.202  0.00  0.00    -0.216 OA
BRANCH  25  27
ATOM     27  O   UNL     1     -30.477  27.347   6.678  0.00  0.00    -0.293 OA
ATOM     28  H   UNL     1     -30.549  26.752   5.915  0.00  0.00    +0.223 HD
ENDBRANCH  25  27
BRANCH  25  29
ATOM     29  O   UNL     1     -30.970  29.634   7.642  0.00  0.00    -0.293 OA
ATOM     30  H   UNL     1     -31.864  29.991   7.760  0.00  0.00    +0.223 HD
ENDBRANCH  25  29
ENDBRANCH  24  25
ENDBRANCH  23  24
ENDBRANCH  17  18
BRANCH  17  31
ATOM     31  C   UNL     1     -35.125  24.416   1.902  0.00  0.00    +0.005 C 
ATOM     32  C   UNL     1     -34.463  23.586   0.806  0.00  0.00    +0.000 C 
ENDBRANCH  17  31
ENDBRANCH   1  17
TORSDOF 13
ENDMDL
MODEL 4
REMARK VINA RESULT:      -6.0      4.348      5.416
REMARK  Name = 193055
REMARK  13 active torsions:
REMARK  status: ('A' for Active; 'I' for Inactive)
REMARK    1  A    between atoms: C_1  and  C_2
REMARK    2  A    between atoms: C_1  and  C_15
REMARK    3  A    between atoms: C_1  and  C_17
REMARK    4  A    between atoms: C_7  and  O_8
REMARK    5  A    between atoms: O_8  and  P_9
REMARK    6  A    between atoms: P_9  and  O_11
REMARK    7  A    between atoms: P_9  and  O_13
REMARK    8  A    between atoms: C_17  and  C_18
REMARK    9  A    between atoms: C_17  and  C_31
REMARK   10  A    between atoms: C_23  and  O_24
REMARK   11  A    between atoms: O_24  and  P_25
REMARK   12  A    between atoms: P_25  and  O_27
REMARK   13  A    between atoms: P_25  and  O_29
REMARK                            x       y       z     vdW  Elec       q    Type
REMARK                         _______ _______ _______ _____ _____    ______ ____
ROOT
ATOM      1  C   UNL     1     -35.341  22.915   4.393  0.00  0.00    +0.026 C 
ENDROOT
BRANCH   1   2
ATOM      2  C   UNL     1     -34.731  24.314   4.494  0.00  0.00    -0.022 C 
ATOM      3  C   UNL     1     -34.976  25.060   5.625  0.00  0.00    -0.001 C 
ATOM      4  C   UNL     1     -33.959  24.774   3.452  0.00  0.00    -0.001 C 
ATOM      5  C   UNL     1     -34.421  26.336   5.717  0.00  0.00    +0.037 C 
ATOM      6  C   UNL     1     -33.403  26.050   3.545  0.00  0.00    +0.037 C 
ATOM      7  C   UNL     1     -33.634  26.831   4.677  0.00  0.00    +0.149 C 
BRANCH   7   8
ATOM      8  O   UNL     1     -33.090  28.076   4.768  0.00  0.00    -0.403 OA
BRANCH   8   9
ATOM      9  P   UNL     1     -31.747  28.451   5.588  0.00  0.00    +0.528 P 
ATOM     10  O   UNL     1     -31.653  29.877   6.048  0.00  0.00    -0.216 OA
BRANCH   9  11
ATOM     11  O   UNL     1     -30.570  27.997   4.575  0.00  0.00    -0.293 OA
ATOM     12  H   UNL     1     -29.708  28.149   4.991  0.00  0.00    +0.223 HD
ENDBRANCH   9  11
BRANCH   9  13
ATOM     13  O   UNL     1     -31.671  27.332   6.755  0.00  0.00    -0.293 OA
ATOM     14  H   UNL     1     -31.145  26.578   6.446  0.00  0.00    +0.223 HD
ENDBRANCH   9  13
ENDBRANCH   8   9
ENDBRANCH   7   8
ENDBRANCH   1   2
BRANCH   1  15
ATOM     15  C   UNL     1     -35.702  22.372   5.799  0.00  0.00    +0.005 C 
ATOM     16  C   UNL     1     -34.726  21.320   6.320  0.00  0.00    +0.000 C 
ENDBRANCH   1  15
BRANCH   1  17
ATOM     17  C   UNL     1     -36.562  22.906   3.399  0.00  0.00    +0.026 C 
BRANCH  17  18
ATOM     18  C   UNL     1     -36.353  21.880   2.284  0.00  0.00    -0.022 C 
ATOM     19  C   UNL     1     -35.351  20.947   2.426  0.00  0.00    -0.001 C 
ATOM     20  C   UNL     1     -37.173  21.930   1.180  0.00  0.00    -0.001 C 
ATOM     21  C   UNL     1     -35.160  20.012   1.408  0.00  0.00    +0.037 C 
ATOM     22  C   UNL     1     -36.982  20.995   0.163  0.00  0.00    +0.037 C 
ATOM     23  C   UNL     1     -35.976  20.036   0.277  0.00  0.00    +0.149 C 
BRANCH  23  24
ATOM     24  O   UNL     1     -35.789  19.122  -0.715  0.00  0.00    -0.403 OA
BRANCH  24  25
ATOM     25  P   UNL     1     -36.185  17.555  -0.625  0.00  0.00    +0.528 P 
ATOM     26  O   UNL     1     -36.544  16.908  -1.932  0.00  0.00    -0.216 OA
BRANCH  25  27
ATOM     27  O   UNL     1     -37.376  17.550   0.471  0.00  0.00    -0.293 OA
ATOM     28  H   UNL     1     -37.430  18.423   0.894  0.00  0.00    +0.223 HD
ENDBRANCH  25  27
BRANCH  25  29
ATOM     29  O   UNL     1     -34.953  16.881   0.177  0.00  0.00    -0.293 OA
ATOM     30  H   UNL     1     -34.718  16.038  -0.241  0.00  0.00    +0.223 HD
ENDBRANCH  25  29
ENDBRANCH  24  25
ENDBRANCH  23  24
ENDBRANCH  17  18
BRANCH  17  31
ATOM     31  C   UNL     1     -36.864  24.307   2.809  0.00  0.00    +0.005 C 
ATOM     32  C   UNL     1     -38.143  24.940   3.350  0.00  0.00    +0.000 C 
ENDBRANCH  17  31
ENDBRANCH   1  17
TORSDOF 13
ENDMDL
MODEL 5
REMARK VINA RESULT:      -5.9      0.887      7.894
REMARK  Name = 193055
REMARK  13 active torsions:
REMARK  status: ('A' for Active; 'I' for Inactive)
REMARK    1  A    between atoms: C_1  and  C_2
REMARK    2  A    between atoms: C_1  and  C_15
REMARK    3  A    between atoms: C_1  and  C_17
REMARK    4  A    between atoms: C_7  and  O_8
REMARK    5  A    between atoms: O_8  and  P_9
REMARK    6  A    between atoms: P_9  and  O_11
REMARK    7  A    between atoms: P_9  and  O_13
REMARK    8  A    between atoms: C_17  and  C_18
REMARK    9  A    between atoms: C_17  and  C_31
REMARK   10  A    between atoms: C_23  and  O_24
REMARK   11  A    between atoms: O_24  and  P_25
REMARK   12  A    between atoms: P_25  and  O_27
REMARK   13  A    between atoms: P_25  and  O_29
REMARK                            x       y       z     vdW  Elec       q    Type
REMARK                         _______ _______ _______ _____ _____    ______ ____
ROOT
ATOM      1  C   UNL     1     -35.831  23.616   4.086  0.00  0.00    +0.026 C 
ENDROOT
BRANCH   1   2
ATOM      2  C   UNL     1     -37.119  24.124   3.437  0.00  0.00    -0.022 C 
ATOM      3  C   UNL     1     -37.980  23.208   2.874  0.00  0.00    -0.001 C 
ATOM      4  C   UNL     1     -37.370  25.476   3.438  0.00  0.00    -0.001 C 
ATOM      5  C   UNL     1     -39.154  23.670   2.281  0.00  0.00    +0.037 C 
ATOM      6  C   UNL     1     -38.545  25.939   2.845  0.00  0.00    +0.037 C 
ATOM      7  C   UNL     1     -39.437  25.036   2.267  0.00  0.00    +0.149 C 
BRANCH   7   8
ATOM      8  O   UNL     1     -40.584  25.487   1.689  0.00  0.00    -0.403 OA
BRANCH   8   9
ATOM      9  P   UNL     1     -41.629  26.520   2.368  0.00  0.00    +0.528 P 
ATOM     10  O   UNL     1     -41.471  27.954   1.957  0.00  0.00    -0.216 OA
BRANCH   9  11
ATOM     11  O   UNL     1     -41.421  26.251   3.950  0.00  0.00    -0.293 OA
ATOM     12  H   UNL     1     -40.879  25.456   4.074  0.00  0.00    +0.223 HD
ENDBRANCH   9  11
BRANCH   9  13
ATOM     13  O   UNL     1     -43.079  25.863   2.077  0.00  0.00    -0.293 OA
ATOM     14  H   UNL     1     -43.680  26.069   2.810  0.00  0.00    +0.223 HD
ENDBRANCH   9  13
ENDBRANCH   8   9
ENDBRANCH   7   8
ENDBRANCH   1   2
BRANCH   1  15
ATOM     15  C   UNL     1     -35.852  22.071   4.210  0.00  0.00    +0.005 C 
ATOM     16  C   UNL     1     -35.196  21.548   5.486  0.00  0.00    +0.000 C 
ENDBRANCH   1  15
BRANCH   1  17
ATOM     17  C   UNL     1     -34.566  24.154   3.319  0.00  0.00    +0.026 C 
BRANCH  17  18
ATOM     18  C   UNL     1     -33.965  25.364   4.035  0.00  0.00    -0.022 C 
ATOM     19  C   UNL     1     -34.145  25.482   5.395  0.00  0.00    -0.001 C 
ATOM     20  C   UNL     1     -33.267  26.290   3.293  0.00  0.00    -0.001 C 
ATOM     21  C   UNL     1     -33.596  26.587   6.048  0.00  0.00    +0.037 C 
ATOM     22  C   UNL     1     -32.720  27.395   3.947  0.00  0.00    +0.037 C 
ATOM     23  C   UNL     1     -32.884  27.543   5.323  0.00  0.00    +0.149 C 
BRANCH  23  24
ATOM     24  O   UNL     1     -32.349  28.619   5.962  0.00  0.00    -0.403 OA
BRANCH  24  25
ATOM     25  P   UNL     1     -30.772  28.840   6.256  0.00  0.00    +0.528 P 
ATOM     26  O   UNL     1     -29.993  29.470   5.137  0.00  0.00    -0.216 OA
BRANCH  25  27
ATOM     27  O   UNL     1     -30.274  27.354   6.662  0.00  0.00    -0.293 OA
ATOM     28  H   UNL     1     -30.466  26.739   5.937  0.00  0.00    +0.223 HD
ENDBRANCH  25  27
BRANCH  25  29
ATOM     29  O   UNL     1     -30.739  29.631   7.666  0.00  0.00    -0.293 OA
ATOM     30  H   UNL     1     -31.281  29.157   8.316  0.00  0.00    +0.223 HD
ENDBRANCH  25  29
ENDBRANCH  24  25
ENDBRANCH  23  24
ENDBRANCH  17  18
BRANCH  17  31
ATOM     31  C   UNL     1     -34.862  24.484   1.834  0.00  0.00    +0.005 C 
ATOM     32  C   UNL     1     -34.469  23.371   0.866  0.00  0.00    +0.000 C 
ENDBRANCH  17  31
ENDBRANCH   1  17
TORSDOF 13
ENDMDL
MODEL 6
REMARK VINA RESULT:      -5.8      6.187      8.193
REMARK  Name = 193055
REMARK  13 active torsions:
REMARK  status: ('A' for Active; 'I' for Inactive)
REMARK    1  A    between atoms: C_1  and  C_2
REMARK    2  A    between atoms: C_1  and  C_15
REMARK    3  A    between atoms: C_1  and  C_17
REMARK    4  A    between atoms: C_7  and  O_8
REMARK    5  A    between atoms: O_8  and  P_9
REMARK    6  A    between atoms: P_9  and  O_11
REMARK    7  A    between atoms: P_9  and  O_13
REMARK    8  A    between atoms: C_17  and  C_18
REMARK    9  A    between atoms: C_17  and  C_31
REMARK   10  A    between atoms: C_23  and  O_24
REMARK   11  A    between atoms: O_24  and  P_25
REMARK   12  A    between atoms: P_25  and  O_27
REMARK   13  A    between atoms: P_25  and  O_29
REMARK                            x       y       z     vdW  Elec       q    Type
REMARK                         _______ _______ _______ _____ _____    ______ ____
ROOT
ATOM      1  C   UNL     1     -33.350  19.566   0.326  0.00  0.00    +0.026 C 
ENDROOT
BRANCH   1   2
ATOM      2  C   UNL     1     -34.194  20.561   1.123  0.00  0.00    -0.022 C 
ATOM      3  C   UNL     1     -34.285  21.859   0.671  0.00  0.00    -0.001 C 
ATOM      4  C   UNL     1     -34.830  20.124   2.262  0.00  0.00    -0.001 C 
ATOM      5  C   UNL     1     -35.054  22.768   1.398  0.00  0.00    +0.037 C 
ATOM      6  C   UNL     1     -35.599  21.033   2.989  0.00  0.00    +0.037 C 
ATOM      7  C   UNL     1     -35.711  22.354   2.557  0.00  0.00    +0.149 C 
BRANCH   7   8
ATOM      8  O   UNL     1     -36.462  23.241   3.266  0.00  0.00    -0.403 OA
BRANCH   8   9
ATOM      9  P   UNL     1     -35.945  24.095   4.540  0.00  0.00    +0.528 P 
ATOM     10  O   UNL     1     -34.587  24.714   4.387  0.00  0.00    -0.216 OA
BRANCH   9  11
ATOM     11  O   UNL     1     -36.063  23.033   5.755  0.00  0.00    -0.293 OA
ATOM     12  H   UNL     1     -36.672  22.321   5.504  0.00  0.00    +0.223 HD
ENDBRANCH   9  11
BRANCH   9  13
ATOM     13  O   UNL     1     -37.155  25.126   4.842  0.00  0.00    -0.293 OA
ATOM     14  H   UNL     1     -37.981  24.770   4.477  0.00  0.00    +0.223 HD
ENDBRANCH   9  13
ENDBRANCH   8   9
ENDBRANCH   7   8
ENDBRANCH   1   2
BRANCH   1  15
ATOM     15  C   UNL     1     -32.941  18.361   1.212  0.00  0.00    +0.005 C 
ATOM     16  C   UNL     1     -31.454  18.026   1.146  0.00  0.00    +0.000 C 
ENDBRANCH   1  15
BRANCH   1  17
ATOM     17  C   UNL     1     -34.088  19.134  -0.995  0.00  0.00    +0.026 C 
BRANCH  17  18
ATOM     18  C   UNL     1     -35.198  18.125  -0.698  0.00  0.00    -0.022 C 
ATOM     19  C   UNL     1     -34.875  16.789  -0.634  0.00  0.00    -0.001 C 
ATOM     20  C   UNL     1     -36.479  18.591  -0.508  0.00  0.00    -0.001 C 
ATOM     21  C   UNL     1     -35.889  15.869  -0.364  0.00  0.00    +0.037 C 
ATOM     22  C   UNL     1     -37.492  17.671  -0.238  0.00  0.00    +0.037 C 
ATOM     23  C   UNL     1     -37.197  16.310  -0.166  0.00  0.00    +0.149 C 
BRANCH  23  24
ATOM     24  O   UNL     1     -38.184  15.411   0.098  0.00  0.00    -0.403 OA
BRANCH  24  25
ATOM     25  P   UNL     1     -39.413  15.057  -0.894  0.00  0.00    +0.528 P 
ATOM     26  O   UNL     1     -40.657  15.874  -0.690  0.00  0.00    -0.216 OA
BRANCH  25  27
ATOM     27  O   UNL     1     -39.613  13.468  -0.663  0.00  0.00    -0.293 OA
ATOM     28  H   UNL     1     -39.790  13.037  -1.515  0.00  0.00    +0.223 HD
ENDBRANCH  25  27
BRANCH  25  29
ATOM     29  O   UNL     1     -38.761  15.129  -2.372  0.00  0.00    -0.293 OA
ATOM     30  H   UNL     1     -39.464  15.081  -3.039  0.00  0.00    +0.223 HD
ENDBRANCH  25  29
ENDBRANCH  24  25
ENDBRANCH  23  24
ENDBRANCH  17  18
BRANCH  17  31
ATOM     31  C   UNL     1     -33.117  18.585  -2.071  0.00  0.00    +0.005 C 
ATOM     32  C   UNL     1     -31.894  19.468  -2.304  0.00  0.00    +0.000 C 
ENDBRANCH  17  31
ENDBRANCH   1  17
TORSDOF 13
ENDMDL
MODEL 7
REMARK VINA RESULT:      -5.8      4.252      5.419
REMARK  Name = 193055
REMARK  13 active torsions:
REMARK  status: ('A' for Active; 'I' for Inactive)
REMARK    1  A    between atoms: C_1  and  C_2
REMARK    2  A    between atoms: C_1  and  C_15
REMARK    3  A    between atoms: C_1  and  C_17
REMARK    4  A    between atoms: C_7  and  O_8
REMARK    5  A    between atoms: O_8  and  P_9
REMARK    6  A    between atoms: P_9  and  O_11
REMARK    7  A    between atoms: P_9  and  O_13
REMARK    8  A    between atoms: C_17  and  C_18
REMARK    9  A    between atoms: C_17  and  C_31
REMARK   10  A    between atoms: C_23  and  O_24
REMARK   11  A    between atoms: O_24  and  P_25
REMARK   12  A    between atoms: P_25  and  O_27
REMARK   13  A    between atoms: P_25  and  O_29
REMARK                            x       y       z     vdW  Elec       q    Type
REMARK                         _______ _______ _______ _____ _____    ______ ____
ROOT
ATOM      1  C   UNL     1     -35.000  23.323   4.534  0.00  0.00    +0.026 C 
ENDROOT
BRANCH   1   2
ATOM      2  C   UNL     1     -34.356  24.696   4.338  0.00  0.00    -0.022 C 
ATOM      3  C   UNL     1     -33.776  24.985   3.123  0.00  0.00    -0.001 C 
ATOM      4  C   UNL     1     -34.379  25.590   5.383  0.00  0.00    -0.001 C 
ATOM      5  C   UNL     1     -33.187  26.237   2.945  0.00  0.00    +0.037 C 
ATOM      6  C   UNL     1     -33.790  26.842   5.205  0.00  0.00    +0.037 C 
ATOM      7  C   UNL     1     -33.195  27.165   3.986  0.00  0.00    +0.149 C 
BRANCH   7   8
ATOM      8  O   UNL     1     -32.621  28.388   3.811  0.00  0.00    -0.403 OA
BRANCH   8   9
ATOM      9  P   UNL     1     -31.611  29.103   4.855  0.00  0.00    +0.528 P 
ATOM     10  O   UNL     1     -32.268  29.768   6.028  0.00  0.00    -0.216 OA
BRANCH   9  11
ATOM     11  O   UNL     1     -30.766  30.104   3.905  0.00  0.00    -0.293 OA
ATOM     12  H   UNL     1     -29.882  30.238   4.282  0.00  0.00    +0.223 HD
ENDBRANCH   9  11
BRANCH   9  13
ATOM     13  O   UNL     1     -30.534  27.950   5.215  0.00  0.00    -0.293 OA
ATOM     14  H   UNL     1     -29.664  28.355   5.359  0.00  0.00    +0.223 HD
ENDBRANCH   9  13
ENDBRANCH   8   9
ENDBRANCH   7   8
ENDBRANCH   1   2
BRANCH   1  15
ATOM     15  C   UNL     1     -35.346  23.087   6.026  0.00  0.00    +0.005 C 
ATOM     16  C   UNL     1     -35.462  21.612   6.405  0.00  0.00    +0.000 C 
ENDBRANCH   1  15
BRANCH   1  17
ATOM     17  C   UNL     1     -36.239  23.142   3.580  0.00  0.00    +0.026 C 
BRANCH  17  18
ATOM     18  C   UNL     1     -35.954  22.091   2.505  0.00  0.00    -0.022 C 
ATOM     19  C   UNL     1     -36.494  22.268   1.251  0.00  0.00    -0.001 C 
ATOM     20  C   UNL     1     -35.170  21.008   2.833  0.00  0.00    -0.001 C 
ATOM     21  C   UNL     1     -36.234  21.308   0.272  0.00  0.00    +0.037 C 
ATOM     22  C   UNL     1     -34.912  20.050   1.854  0.00  0.00    +0.037 C 
ATOM     23  C   UNL     1     -35.444  20.199   0.573  0.00  0.00    +0.149 C 
BRANCH  23  24
ATOM     24  O   UNL     1     -35.190  19.265  -0.384  0.00  0.00    -0.403 OA
BRANCH  24  25
ATOM     25  P   UNL     1     -35.999  17.875  -0.566  0.00  0.00    +0.528 P 
ATOM     26  O   UNL     1     -36.419  17.557  -1.973  0.00  0.00    -0.216 OA
BRANCH  25  27
ATOM     27  O   UNL     1     -37.226  18.036   0.476  0.00  0.00    -0.293 OA
ATOM     28  H   UNL     1     -36.878  18.072   1.381  0.00  0.00    +0.223 HD
ENDBRANCH  25  27
BRANCH  25  29
ATOM     29  O   UNL     1     -35.057  16.773   0.151  0.00  0.00    -0.293 OA
ATOM     30  H   UNL     1     -35.368  15.883  -0.078  0.00  0.00    +0.223 HD
ENDBRANCH  25  29
ENDBRANCH  24  25
ENDBRANCH  23  24
ENDBRANCH  17  18
BRANCH  17  31
ATOM     31  C   UNL     1     -36.699  24.476   2.939  0.00  0.00    +0.005 C 
ATOM     32  C   UNL     1     -37.988  25.033   3.536  0.00  0.00    +0.000 C 
ENDBRANCH  17  31
ENDBRANCH   1  17
TORSDOF 13
ENDMDL
MODEL 8
REMARK VINA RESULT:      -5.8      4.998      8.426
REMARK  Name = 193055
REMARK  13 active torsions:
REMARK  status: ('A' for Active; 'I' for Inactive)
REMARK    1  A    between atoms: C_1  and  C_2
REMARK    2  A    between atoms: C_1  and  C_15
REMARK    3  A    between atoms: C_1  and  C_17
REMARK    4  A    between atoms: C_7  and  O_8
REMARK    5  A    between atoms: O_8  and  P_9
REMARK    6  A    between atoms: P_9  and  O_11
REMARK    7  A    between atoms: P_9  and  O_13
REMARK    8  A    between atoms: C_17  and  C_18
REMARK    9  A    between atoms: C_17  and  C_31
REMARK   10  A    between atoms: C_23  and  O_24
REMARK   11  A    between atoms: O_24  and  P_25
REMARK   12  A    between atoms: P_25  and  O_27
REMARK   13  A    between atoms: P_25  and  O_29
REMARK                            x       y       z     vdW  Elec       q    Type
REMARK                         _______ _______ _______ _____ _____    ______ ____
ROOT
ATOM      1  C   UNL     1     -36.194  21.922   3.570  0.00  0.00    +0.026 C 
ENDROOT
BRANCH   1   2
ATOM      2  C   UNL     1     -35.881  20.943   2.438  0.00  0.00    -0.022 C 
ATOM      3  C   UNL     1     -36.909  20.527   1.621  0.00  0.00    -0.001 C 
ATOM      4  C   UNL     1     -34.584  20.512   2.278  0.00  0.00    -0.001 C 
ATOM      5  C   UNL     1     -36.624  19.633   0.590  0.00  0.00    +0.037 C 
ATOM      6  C   UNL     1     -34.299  19.617   1.246  0.00  0.00    +0.037 C 
ATOM      7  C   UNL     1     -35.319  19.179   0.402  0.00  0.00    +0.149 C 
BRANCH   7   8
ATOM      8  O   UNL     1     -35.041  18.306  -0.606  0.00  0.00    -0.403 OA
BRANCH   8   9
ATOM      9  P   UNL     1     -34.680  16.740  -0.413  0.00  0.00    +0.528 P 
ATOM     10  O   UNL     1     -33.363  16.463   0.250  0.00  0.00    -0.216 OA
BRANCH   9  11
ATOM     11  O   UNL     1     -34.809  16.156  -1.916  0.00  0.00    -0.293 OA
ATOM     12  H   UNL     1     -35.575  15.563  -1.968  0.00  0.00    +0.223 HD
ENDBRANCH   9  11
BRANCH   9  13
ATOM     13  O   UNL     1     -35.981  16.124   0.327  0.00  0.00    -0.293 OA
ATOM     14  H   UNL     1     -36.655  15.904  -0.335  0.00  0.00    +0.223 HD
ENDBRANCH   9  13
ENDBRANCH   8   9
ENDBRANCH   7   8
ENDBRANCH   1   2
BRANCH   1  15
ATOM     15  C   UNL     1     -35.082  21.887   4.649  0.00  0.00    +0.005 C 
ATOM     16  C   UNL     1     -35.604  21.634   6.061  0.00  0.00    +0.000 C 
ENDBRANCH   1  15
BRANCH   1  17
ATOM     17  C   UNL     1     -36.457  23.368   3.005  0.00  0.00    +0.026 C 
BRANCH  17  18
ATOM     18  C   UNL     1     -35.602  24.404   3.735  0.00  0.00    -0.022 C 
ATOM     19  C   UNL     1     -36.116  25.011   4.859  0.00  0.00    -0.001 C 
ATOM     20  C   UNL     1     -34.350  24.694   3.240  0.00  0.00    -0.001 C 
ATOM     21  C   UNL     1     -35.335  25.957   5.523  0.00  0.00    +0.037 C 
ATOM     22  C   UNL     1     -33.571  25.640   3.905  0.00  0.00    +0.037 C 
ATOM     23  C   UNL     1     -34.063  26.272   5.046  0.00  0.00    +0.149 C 
BRANCH  23  24
ATOM     24  O   UNL     1     -33.302  27.194   5.697  0.00  0.00    -0.403 OA
BRANCH  24  25
ATOM     25  P   UNL     1     -32.381  28.316   4.980  0.00  0.00    +0.528 P 
ATOM     26  O   UNL     1     -31.075  27.818   4.431  0.00  0.00    -0.216 OA
BRANCH  25  27
ATOM     27  O   UNL     1     -32.235  29.446   6.129  0.00  0.00    -0.293 OA
ATOM     28  H   UNL     1     -33.103  29.612   6.530  0.00  0.00    +0.223 HD
ENDBRANCH  25  27
BRANCH  25  29
ATOM     29  O   UNL     1     -33.371  29.015   3.908  0.00  0.00    -0.293 OA
ATOM     30  H   UNL     1     -33.941  29.654   4.363  0.00  0.00    +0.223 HD
ENDBRANCH  25  29
ENDBRANCH  24  25
ENDBRANCH  23  24
ENDBRANCH  17  18
BRANCH  17  31
ATOM     31  C   UNL     1     -37.955  23.762   3.045  0.00  0.00    +0.005 C 
ATOM     32  C   UNL     1     -38.633  23.742   1.678  0.00  0.00    +0.000 C 
ENDBRANCH  17  31
ENDBRANCH   1  17
TORSDOF 13
ENDMDL
MODEL 9
REMARK VINA RESULT:      -5.7      2.242      2.892
REMARK  Name = 193055
REMARK  13 active torsions:
REMARK  status: ('A' for Active; 'I' for Inactive)
REMARK    1  A    between atoms: C_1  and  C_2
REMARK    2  A    between atoms: C_1  and  C_15
REMARK    3  A    between atoms: C_1  and  C_17
REMARK    4  A    between atoms: C_7  and  O_8
REMARK    5  A    between atoms: O_8  and  P_9
REMARK    6  A    between atoms: P_9  and  O_11
REMARK    7  A    between atoms: P_9  and  O_13
REMARK    8  A    between atoms: C_17  and  C_18
REMARK    9  A    between atoms: C_17  and  C_31
REMARK   10  A    between atoms: C_23  and  O_24
REMARK   11  A    between atoms: O_24  and  P_25
REMARK   12  A    between atoms: P_25  and  O_27
REMARK   13  A    between atoms: P_25  and  O_29
REMARK                            x       y       z     vdW  Elec       q    Type
REMARK                         _______ _______ _______ _____ _____    ______ ____
ROOT
ATOM      1  C   UNL     1     -35.059  22.906   3.633  0.00  0.00    +0.026 C 
ENDROOT
BRANCH   1   2
ATOM      2  C   UNL     1     -34.818  24.415   3.603  0.00  0.00    -0.022 C 
ATOM      3  C   UNL     1     -35.488  25.208   4.508  0.00  0.00    -0.001 C 
ATOM      4  C   UNL     1     -33.943  24.926   2.672  0.00  0.00    -0.001 C 
ATOM      5  C   UNL     1     -35.269  26.586   4.480  0.00  0.00    +0.037 C 
ATOM      6  C   UNL     1     -33.724  26.303   2.644  0.00  0.00    +0.037 C 
ATOM      7  C   UNL     1     -34.387  27.133   3.548  0.00  0.00    +0.149 C 
BRANCH   7   8
ATOM      8  O   UNL     1     -34.173  28.477   3.521  0.00  0.00    -0.403 OA
BRANCH   8   9
ATOM      9  P   UNL     1     -34.968  29.531   2.585  0.00  0.00    +0.528 P 
ATOM     10  O   UNL     1     -36.035  28.937   1.714  0.00  0.00    -0.216 OA
BRANCH   9  11
ATOM     11  O   UNL     1     -33.773  30.261   1.774  0.00  0.00    -0.293 OA
ATOM     12  H   UNL     1     -34.143  30.960   1.213  0.00  0.00    +0.223 HD
ENDBRANCH   9  11
BRANCH   9  13
ATOM     13  O   UNL     1     -35.461  30.679   3.614  0.00  0.00    -0.293 OA
ATOM     14  H   UNL     1     -35.175  30.452   4.512  0.00  0.00    +0.223 HD
ENDBRANCH   9  13
ENDBRANCH   8   9
ENDBRANCH   7   8
ENDBRANCH   1   2
BRANCH   1  15
ATOM     15  C   UNL     1     -35.883  22.507   4.884  0.00  0.00    +0.005 C 
ATOM     16  C   UNL     1     -35.076  21.751   5.936  0.00  0.00    +0.000 C 
ENDBRANCH   1  15
BRANCH   1  17
ATOM     17  C   UNL     1     -35.709  22.413   2.287  0.00  0.00    +0.026 C 
BRANCH  17  18
ATOM     18  C   UNL     1     -37.046  23.113   2.035  0.00  0.00    -0.022 C 
ATOM     19  C   UNL     1     -38.192  22.551   2.549  0.00  0.00    -0.001 C 
ATOM     20  C   UNL     1     -37.052  24.279   1.303  0.00  0.00    -0.001 C 
ATOM     21  C   UNL     1     -39.411  23.190   2.319  0.00  0.00    +0.037 C 
ATOM     22  C   UNL     1     -38.271  24.916   1.073  0.00  0.00    +0.037 C 
ATOM     23  C   UNL     1     -39.450  24.372   1.580  0.00  0.00    +0.149 C 
BRANCH  23  24
ATOM     24  O   UNL     1     -40.640  24.995   1.358  0.00  0.00    -0.403 OA
BRANCH  24  25
ATOM     25  P   UNL     1     -41.163  26.313   2.139  0.00  0.00    +0.528 P 
ATOM     26  O   UNL     1     -42.636  26.345   2.427  0.00  0.00    -0.216 OA
BRANCH  25  27
ATOM     27  O   UNL     1     -40.641  27.519   1.195  0.00  0.00    -0.293 OA
ATOM     28  H   UNL     1     -40.225  28.202   1.744  0.00  0.00    +0.223 HD
ENDBRANCH  25  27
BRANCH  25  29
ATOM     29  O   UNL     1     -40.193  26.418   3.429  0.00  0.00    -0.293 OA
ATOM     30  H   UNL     1     -40.725  26.606   4.219  0.00  0.00    +0.223 HD
ENDBRANCH  25  29
ENDBRANCH  24  25
ENDBRANCH  23  24
ENDBRANCH  17  18
BRANCH  17  31
ATOM     31  C   UNL     1     -35.875  20.873   2.231  0.00  0.00    +0.005 C 
ATOM     32  C   UNL     1     -34.605  20.133   1.821  0.00  0.00    +0.000 C 
ENDBRANCH  17  31
ENDBRANCH   1  17
TORSDOF 13
ENDMDL
