MODEL 1
REMARK VINA RESULT:      -7.0      0.000      0.000
REMARK  Name = 193642
REMARK  8 active torsions:
REMARK  status: ('A' for Active; 'I' for Inactive)
REMARK    1  A    between atoms: CA_1  and  C_2
REMARK    2  A    between atoms: CA_1  and  C_10
REMARK    3  A    between atoms: CA_1  and  N_27
REMARK    4  A    between atoms: N_9  and  CA_18
REMARK    5  A    between atoms: CA_17  and  C_23
REMARK    6  A    between atoms: C_23  and  O_24
REMARK    7  A    between atoms: C_28  and  N_30
REMARK    8  A    between atoms: N_30  and  C_33
REMARK                            x       y       z     vdW  Elec       q    Type
REMARK                         _______ _______ _______ _____ _____    ______ ____
ROOT
ATOM      1  CA  UNL     1     -35.274  19.901   0.956  0.00  0.00    +0.173 C 
ENDROOT
BRANCH   1   2
ATOM      2  C   UNL     1     -33.810  19.575   0.782  0.00  0.00    +0.004 C 
ATOM      3  C   UNL     1     -32.978  20.496   0.166  0.00  0.00    -0.002 C 
ATOM      4  C   UNL     1     -33.327  18.361   1.240  0.00  0.00    -0.002 C 
ATOM      5  C   UNL     1     -31.625  20.194   0.005  0.00  0.00    -0.000 C 
ATOM      6  C   UNL     1     -31.974  18.059   1.079  0.00  0.00    -0.000 C 
ATOM      7  C   UNL     1     -31.124  18.976   0.461  0.00  0.00    -0.000 C 
ENDBRANCH   1   2
BRANCH   1  10
ATOM      8  O   UNL     1     -35.045  20.265   3.343  0.00  0.00    -0.273 OA
ATOM      9  N   UNL     1     -36.369  21.733   2.128  0.00  0.00    -0.295 N 
ATOM     10  C   UNL     1     -35.541  20.617   2.274  0.00  0.00    +0.245 C 
ATOM     11  H   UNL     1     -36.724  21.943   1.234  0.00  0.00    +0.150 HD
BRANCH   9  18
ATOM     12  S   UNL     1     -34.824  24.358   2.044  0.00  0.00    -0.118 S 
ATOM     13  O   UNL     1     -39.008  23.463   2.502  0.00  0.00    -0.273 OA
ATOM     14  N   UNL     1     -37.126  24.655   3.298  0.00  0.00    -0.260 N 
ATOM     15  C   UNL     1     -35.890  23.875   3.470  0.00  0.00    +0.151 C 
ATOM     16  C   UNL     1     -36.028  25.623   1.385  0.00  0.00    +0.068 C 
ATOM     17  CA  UNL     1     -36.971  25.900   2.568  0.00  0.00    +0.184 C 
ATOM     18  CA  UNL     1     -36.732  22.610   3.251  0.00  0.00    +0.178 C 
ATOM     19  C   UNL     1     -37.890  23.574   2.955  0.00  0.00    +0.247 C 
ATOM     20  C   UNL     1     -35.247  26.884   1.001  0.00  0.00    +0.013 C 
ATOM     21  C   UNL     1     -36.698  25.032   0.139  0.00  0.00    +0.013 C 
BRANCH  17  23
ATOM     22  OXT UNL     1     -38.624  27.013   1.202  0.00  0.00    -0.248 OA
ATOM     23  C   UNL     1     -38.307  26.506   2.269  0.00  0.00    +0.333 C 
BRANCH  23  24
ATOM     24  O   UNL     1     -39.125  26.420   3.345  0.00  0.00    -0.479 OA
ATOM     25  H   UNL     1     -39.759  27.092   3.508  0.00  0.00    +0.295 HD
ENDBRANCH  23  24
ENDBRANCH  17  23
ENDBRANCH   9  18
ENDBRANCH   1  10
BRANCH   1  27
ATOM     26  O   UNL     1     -36.329  18.663  -1.378  0.00  0.00    -0.251 OA
ATOM     27  N   UNL     1     -36.099  18.719   0.911  0.00  0.00    -0.278 N 
ATOM     28  C   UNL     1     -36.573  18.179  -0.273  0.00  0.00    +0.327 C 
ATOM     29  H   UNL     1     -36.336  18.278   1.759  0.00  0.00    +0.152 HD
BRANCH  28  30
ATOM     30  N   UNL     1     -37.308  17.034  -0.061  0.00  0.00    -0.130 NA
BRANCH  30  33
ATOM     31  N   UNL     1     -35.638  15.364   0.410  0.00  0.00    -0.372 N 
ATOM     32  N   UNL     1     -37.237  14.989  -1.173  0.00  0.00    -0.372 N 
ATOM     33  C   UNL     1     -36.742  15.869  -0.239  0.00  0.00    +0.186 C 
ATOM     34  H   UNL     1     -35.189  15.898   1.105  0.00  0.00    +0.159 HD
ATOM     35  H   UNL     1     -35.298  14.470   0.181  0.00  0.00    +0.159 HD
ATOM     36  H   UNL     1     -38.027  15.231  -1.708  0.00  0.00    +0.159 HD
ATOM     37  H   UNL     1     -36.800  14.117  -1.308  0.00  0.00    +0.159 HD
ENDBRANCH  30  33
ENDBRANCH  28  30
ENDBRANCH   1  27
TORSDOF 8
ENDMDL
MODEL 2
REMARK VINA RESULT:      -7.0      3.101      8.139
REMARK  Name = 193642
REMARK  8 active torsions:
REMARK  status: ('A' for Active; 'I' for Inactive)
REMARK    1  A    between atoms: CA_1  and  C_2
REMARK    2  A    between atoms: CA_1  and  C_10
REMARK    3  A    between atoms: CA_1  and  N_27
REMARK    4  A    between atoms: N_9  and  CA_18
REMARK    5  A    between atoms: CA_17  and  C_23
REMARK    6  A    between atoms: C_23  and  O_24
REMARK    7  A    between atoms: C_28  and  N_30
REMARK    8  A    between atoms: N_30  and  C_33
REMARK                            x       y       z     vdW  Elec       q    Type
REMARK                         _______ _______ _______ _____ _____    ______ ____
ROOT
ATOM      1  CA  UNL     1     -35.417  20.101   1.695  0.00  0.00    +0.173 C 
ENDROOT
BRANCH   1   2
ATOM      2  C   UNL     1     -34.015  19.852   1.191  0.00  0.00    +0.004 C 
ATOM      3  C   UNL     1     -33.368  18.677   1.540  0.00  0.00    -0.002 C 
ATOM      4  C   UNL     1     -33.403  20.802   0.392  0.00  0.00    -0.002 C 
ATOM      5  C   UNL     1     -32.074  18.446   1.075  0.00  0.00    -0.000 C 
ATOM      6  C   UNL     1     -32.108  20.572  -0.073  0.00  0.00    -0.000 C 
ATOM      7  C   UNL     1     -31.443  19.394   0.269  0.00  0.00    -0.000 C 
ENDBRANCH   1   2
BRANCH   1  10
ATOM      8  O   UNL     1     -37.052  20.544  -0.042  0.00  0.00    -0.273 OA
ATOM      9  N   UNL     1     -36.656  18.338   0.561  0.00  0.00    -0.295 N 
ATOM     10  C   UNL     1     -36.467  19.719   0.659  0.00  0.00    +0.245 C 
ATOM     11  H   UNL     1     -36.145  17.748   1.162  0.00  0.00    +0.150 HD
BRANCH   9  18
ATOM     12  S   UNL     1     -35.264  17.666  -2.065  0.00  0.00    -0.118 S 
ATOM     13  O   UNL     1     -37.805  15.376   0.545  0.00  0.00    -0.273 OA
ATOM     14  N   UNL     1     -37.338  16.086  -1.663  0.00  0.00    -0.260 N 
ATOM     15  C   UNL     1     -37.090  17.526  -1.841  0.00  0.00    +0.151 C 
ATOM     16  C   UNL     1     -34.970  15.824  -2.014  0.00  0.00    +0.068 C 
ATOM     17  CA  UNL     1     -36.357  15.212  -2.277  0.00  0.00    +0.184 C 
ATOM     18  CA  UNL     1     -37.584  17.726  -0.401  0.00  0.00    +0.178 C 
ATOM     19  C   UNL     1     -37.648  16.193  -0.335  0.00  0.00    +0.247 C 
ATOM     20  C   UNL     1     -33.988  15.458  -3.133  0.00  0.00    +0.013 C 
ATOM     21  C   UNL     1     -34.351  15.482  -0.655  0.00  0.00    +0.013 C 
BRANCH  17  23
ATOM     22  OXT UNL     1     -35.698  12.996  -1.575  0.00  0.00    -0.248 OA
ATOM     23  C   UNL     1     -36.582  13.791  -1.863  0.00  0.00    +0.333 C 
BRANCH  23  24
ATOM     24  O   UNL     1     -37.904  13.499  -1.852  0.00  0.00    -0.479 OA
ATOM     25  H   UNL     1     -38.405  13.617  -1.068  0.00  0.00    +0.295 HD
ENDBRANCH  23  24
ENDBRANCH  17  23
ENDBRANCH   9  18
ENDBRANCH   1  10
BRANCH   1  27
ATOM     26  O   UNL     1     -35.326  21.196   4.318  0.00  0.00    -0.251 OA
ATOM     27  N   UNL     1     -35.623  21.482   2.054  0.00  0.00    -0.278 N 
ATOM     28  C   UNL     1     -35.561  21.934   3.363  0.00  0.00    +0.327 C 
ATOM     29  H   UNL     1     -35.816  22.131   1.340  0.00  0.00    +0.152 HD
BRANCH  28  30
ATOM     30  N   UNL     1     -35.758  23.295   3.448  0.00  0.00    -0.130 NA
BRANCH  30  33
ATOM     31  N   UNL     1     -35.844  23.507   5.846  0.00  0.00    -0.372 N 
ATOM     32  N   UNL     1     -37.228  24.746   4.523  0.00  0.00    -0.372 N 
ATOM     33  C   UNL     1     -36.226  23.805   4.557  0.00  0.00    +0.186 C 
ATOM     34  H   UNL     1     -35.132  22.846   6.007  0.00  0.00    +0.159 HD
ATOM     35  H   UNL     1     -36.280  23.954   6.605  0.00  0.00    +0.159 HD
ATOM     36  H   UNL     1     -37.593  25.047   3.660  0.00  0.00    +0.159 HD
ATOM     37  H   UNL     1     -37.582  25.119   5.363  0.00  0.00    +0.159 HD
ENDBRANCH  30  33
ENDBRANCH  28  30
ENDBRANCH   1  27
TORSDOF 8
ENDMDL
MODEL 3
REMARK VINA RESULT:      -6.5      4.143      7.567
REMARK  Name = 193642
REMARK  8 active torsions:
REMARK  status: ('A' for Active; 'I' for Inactive)
REMARK    1  A    between atoms: CA_1  and  C_2
REMARK    2  A    between atoms: CA_1  and  C_10
REMARK    3  A    between atoms: CA_1  and  N_27
REMARK    4  A    between atoms: N_9  and  CA_18
REMARK    5  A    between atoms: CA_17  and  C_23
REMARK    6  A    between atoms: C_23  and  O_24
REMARK    7  A    between atoms: C_28  and  N_30
REMARK    8  A    between atoms: N_30  and  C_33
REMARK                            x       y       z     vdW  Elec       q    Type
REMARK                         _______ _______ _______ _____ _____    ______ ____
ROOT
ATOM      1  CA  UNL     1     -37.003  24.963   4.008  0.00  0.00    +0.173 C 
ENDROOT
BRANCH   1   2
ATOM      2  C   UNL     1     -36.296  23.697   4.432  0.00  0.00    +0.004 C 
ATOM      3  C   UNL     1     -35.765  23.612   5.709  0.00  0.00    -0.002 C 
ATOM      4  C   UNL     1     -36.191  22.647   3.536  0.00  0.00    -0.002 C 
ATOM      5  C   UNL     1     -35.112  22.443   6.101  0.00  0.00    -0.000 C 
ATOM      6  C   UNL     1     -35.538  21.478   3.928  0.00  0.00    -0.000 C 
ATOM      7  C   UNL     1     -34.998  21.377   5.210  0.00  0.00    -0.000 C 
ENDBRANCH   1   2
BRANCH   1  10
ATOM      8  O   UNL     1     -39.401  24.626   3.878  0.00  0.00    -0.273 OA
ATOM      9  N   UNL     1     -38.163  24.493   1.920  0.00  0.00    -0.295 N 
ATOM     10  C   UNL     1     -38.318  24.666   3.298  0.00  0.00    +0.245 C 
ATOM     11  H   UNL     1     -37.257  24.540   1.538  0.00  0.00    +0.150 HD
BRANCH   9  18
ATOM     12  S   UNL     1     -37.218  23.607  -0.838  0.00  0.00    -0.118 S 
ATOM     13  O   UNL     1     -40.139  22.005   1.885  0.00  0.00    -0.273 OA
ATOM     14  N   UNL     1     -39.635  22.683  -0.325  0.00  0.00    -0.260 N 
ATOM     15  C   UNL     1     -38.983  23.995  -0.467  0.00  0.00    +0.151 C 
ATOM     16  C   UNL     1     -37.482  21.760  -0.884  0.00  0.00    +0.068 C 
ATOM     17  CA  UNL     1     -39.002  21.599  -1.053  0.00  0.00    +0.184 C 
ATOM     18  CA  UNL     1     -39.295  24.242   1.016  0.00  0.00    +0.178 C 
ATOM     19  C   UNL     1     -39.807  22.793   1.028  0.00  0.00    +0.247 C 
ATOM     20  C   UNL     1     -36.733  21.192  -2.095  0.00  0.00    +0.013 C 
ATOM     21  C   UNL     1     -36.900  21.168   0.404  0.00  0.00    +0.013 C 
BRANCH  17  23
ATOM     22  OXT UNL     1     -38.985  19.253  -0.478  0.00  0.00    -0.248 OA
ATOM     23  C   UNL     1     -39.611  20.284  -0.677  0.00  0.00    +0.333 C 
BRANCH  23  24
ATOM     24  O   UNL     1     -40.959  20.387  -0.590  0.00  0.00    -0.479 OA
ATOM     25  H   UNL     1     -41.422  20.975  -1.154  0.00  0.00    +0.295 HD
ENDBRANCH  23  24
ENDBRANCH  17  23
ENDBRANCH   9  18
ENDBRANCH   1  10
BRANCH   1  27
ATOM     26  O   UNL     1     -35.153  26.978   4.788  0.00  0.00    -0.251 OA
ATOM     27  N   UNL     1     -36.189  25.766   3.129  0.00  0.00    -0.278 N 
ATOM     28  C   UNL     1     -35.310  26.731   3.593  0.00  0.00    +0.327 C 
ATOM     29  H   UNL     1     -36.262  25.624   2.158  0.00  0.00    +0.152 HD
BRANCH  28  30
ATOM     30  N   UNL     1     -34.622  27.339   2.567  0.00  0.00    -0.130 NA
BRANCH  30  33
ATOM     31  N   UNL     1     -33.037  29.145   2.398  0.00  0.00    -0.372 N 
ATOM     32  N   UNL     1     -35.147  29.525   3.177  0.00  0.00    -0.372 N 
ATOM     33  C   UNL     1     -34.263  28.590   2.692  0.00  0.00    +0.186 C 
ATOM     34  H   UNL     1     -32.314  28.580   2.042  0.00  0.00    +0.159 HD
ATOM     35  H   UNL     1     -32.884  30.106   2.544  0.00  0.00    +0.159 HD
ATOM     36  H   UNL     1     -36.061  29.256   3.425  0.00  0.00    +0.159 HD
ATOM     37  H   UNL     1     -34.867  30.463   3.277  0.00  0.00    +0.159 HD
ENDBRANCH  30  33
ENDBRANCH  28  30
ENDBRANCH   1  27
TORSDOF 8
ENDMDL
MODEL 4
REMARK VINA RESULT:      -6.5      5.102      7.088
REMARK  Name = 193642
REMARK  8 active torsions:
REMARK  status: ('A' for Active; 'I' for Inactive)
REMARK    1  A    between atoms: CA_1  and  C_2
REMARK    2  A    between atoms: CA_1  and  C_10
REMARK    3  A    between atoms: CA_1  and  N_27
REMARK    4  A    between atoms: N_9  and  CA_18
REMARK    5  A    between atoms: CA_17  and  C_23
REMARK    6  A    between atoms: C_23  and  O_24
REMARK    7  A    between atoms: C_28  and  N_30
REMARK    8  A    between atoms: N_30  and  C_33
REMARK                            x       y       z     vdW  Elec       q    Type
REMARK                         _______ _______ _______ _____ _____    ______ ____
ROOT
ATOM      1  CA  UNL     1     -36.358  24.738   3.837  0.00  0.00    +0.173 C 
ENDROOT
BRANCH   1   2
ATOM      2  C   UNL     1     -35.868  23.454   4.463  0.00  0.00    +0.004 C 
ATOM      3  C   UNL     1     -35.618  23.416   5.826  0.00  0.00    -0.002 C 
ATOM      4  C   UNL     1     -35.679  22.339   3.665  0.00  0.00    -0.002 C 
ATOM      5  C   UNL     1     -35.166  22.231   6.405  0.00  0.00    -0.000 C 
ATOM      6  C   UNL     1     -35.227  21.153   4.244  0.00  0.00    -0.000 C 
ATOM      7  C   UNL     1     -34.970  21.099   5.614  0.00  0.00    -0.000 C 
ENDBRANCH   1   2
BRANCH   1  10
ATOM      8  O   UNL     1     -35.971  26.648   5.281  0.00  0.00    -0.273 OA
ATOM      9  N   UNL     1     -34.375  26.142   3.673  0.00  0.00    -0.295 N 
ATOM     10  C   UNL     1     -35.584  25.948   4.347  0.00  0.00    +0.245 C 
ATOM     11  H   UNL     1     -34.144  25.533   2.935  0.00  0.00    +0.150 HD
BRANCH   9  18
ATOM     12  S   UNL     1     -32.082  26.308   1.674  0.00  0.00    -0.118 S 
ATOM     13  O   UNL     1     -34.744  29.275   3.294  0.00  0.00    -0.273 OA
ATOM     14  N   UNL     1     -32.514  28.647   2.814  0.00  0.00    -0.260 N 
ATOM     15  C   UNL     1     -32.118  27.294   3.233  0.00  0.00    +0.151 C 
ATOM     16  C   UNL     1     -32.485  27.761   0.575  0.00  0.00    +0.068 C 
ATOM     17  CA  UNL     1     -32.176  28.991   1.445  0.00  0.00    +0.184 C 
ATOM     18  CA  UNL     1     -33.435  27.218   4.018  0.00  0.00    +0.178 C 
ATOM     19  C   UNL     1     -33.759  28.575   3.375  0.00  0.00    +0.247 C 
ATOM     20  C   UNL     1     -31.566  27.712  -0.651  0.00  0.00    +0.013 C 
ATOM     21  C   UNL     1     -33.945  27.624   0.129  0.00  0.00    +0.013 C 
BRANCH  17  23
ATOM     22  OXT UNL     1     -33.325  30.528  -0.023  0.00  0.00    -0.248 OA
ATOM     23  C   UNL     1     -32.803  30.295   1.058  0.00  0.00    +0.333 C 
BRANCH  23  24
ATOM     24  O   UNL     1     -32.711  31.190   2.070  0.00  0.00    -0.479 OA
ATOM     25  H   UNL     1     -32.496  32.084   1.888  0.00  0.00    +0.295 HD
ENDBRANCH  23  24
ENDBRANCH  17  23
ENDBRANCH   9  18
ENDBRANCH   1  10
BRANCH   1  27
ATOM     26  O   UNL     1     -38.525  23.958   2.168  0.00  0.00    -0.251 OA
ATOM     27  N   UNL     1     -37.759  24.962   4.092  0.00  0.00    -0.278 N 
ATOM     28  C   UNL     1     -38.756  24.548   3.222  0.00  0.00    +0.327 C 
ATOM     29  H   UNL     1     -38.020  25.429   4.918  0.00  0.00    +0.152 HD
BRANCH  28  30
ATOM     30  N   UNL     1     -40.013  24.845   3.700  0.00  0.00    -0.130 NA
BRANCH  30  33
ATOM     31  N   UNL     1     -41.388  26.799   4.001  0.00  0.00    -0.372 N 
ATOM     32  N   UNL     1     -40.554  26.276   1.943  0.00  0.00    -0.372 N 
ATOM     33  C   UNL     1     -40.623  25.918   3.270  0.00  0.00    +0.186 C 
ATOM     34  H   UNL     1     -41.517  26.655   4.966  0.00  0.00    +0.159 HD
ATOM     35  H   UNL     1     -41.807  27.572   3.559  0.00  0.00    +0.159 HD
ATOM     36  H   UNL     1     -40.036  25.727   1.312  0.00  0.00    +0.159 HD
ATOM     37  H   UNL     1     -41.023  27.081   1.625  0.00  0.00    +0.159 HD
ENDBRANCH  30  33
ENDBRANCH  28  30
ENDBRANCH   1  27
TORSDOF 8
ENDMDL
MODEL 5
REMARK VINA RESULT:      -6.4      3.603      6.783
REMARK  Name = 193642
REMARK  8 active torsions:
REMARK  status: ('A' for Active; 'I' for Inactive)
REMARK    1  A    between atoms: CA_1  and  C_2
REMARK    2  A    between atoms: CA_1  and  C_10
REMARK    3  A    between atoms: CA_1  and  N_27
REMARK    4  A    between atoms: N_9  and  CA_18
REMARK    5  A    between atoms: CA_17  and  C_23
REMARK    6  A    between atoms: C_23  and  O_24
REMARK    7  A    between atoms: C_28  and  N_30
REMARK    8  A    between atoms: N_30  and  C_33
REMARK                            x       y       z     vdW  Elec       q    Type
REMARK                         _______ _______ _______ _____ _____    ______ ____
ROOT
ATOM      1  CA  UNL     1     -35.721  22.453   3.185  0.00  0.00    +0.173 C 
ENDROOT
BRANCH   1   2
ATOM      2  C   UNL     1     -35.139  21.619   2.068  0.00  0.00    +0.004 C 
ATOM      3  C   UNL     1     -35.250  20.239   2.124  0.00  0.00    -0.002 C 
ATOM      4  C   UNL     1     -34.507  22.249   1.010  0.00  0.00    -0.002 C 
ATOM      5  C   UNL     1     -34.713  19.468   1.093  0.00  0.00    -0.000 C 
ATOM      6  C   UNL     1     -33.969  21.479  -0.021  0.00  0.00    -0.000 C 
ATOM      7  C   UNL     1     -34.073  20.088   0.020  0.00  0.00    -0.000 C 
ENDBRANCH   1   2
BRANCH   1  10
ATOM      8  O   UNL     1     -37.840  23.532   3.664  0.00  0.00    -0.273 OA
ATOM      9  N   UNL     1     -37.508  22.651   1.543  0.00  0.00    -0.295 N 
ATOM     10  C   UNL     1     -37.131  22.930   2.860  0.00  0.00    +0.245 C 
ATOM     11  H   UNL     1     -36.878  22.163   0.965  0.00  0.00    +0.150 HD
BRANCH   9  18
ATOM     12  S   UNL     1     -37.638  22.148  -1.459  0.00  0.00    -0.118 S 
ATOM     13  O   UNL     1     -40.301  21.155   1.770  0.00  0.00    -0.273 OA
ATOM     14  N   UNL     1     -40.047  22.093  -0.386  0.00  0.00    -0.260 N 
ATOM     15  C   UNL     1     -38.953  23.064  -0.545  0.00  0.00    +0.151 C 
ATOM     16  C   UNL     1     -38.654  20.596  -1.659  0.00  0.00    +0.068 C 
ATOM     17  CA  UNL     1     -40.100  21.054  -1.398  0.00  0.00    +0.184 C 
ATOM     18  CA  UNL     1     -38.806  23.056   0.983  0.00  0.00    +0.178 C 
ATOM     19  C   UNL     1     -39.862  21.940   0.960  0.00  0.00    +0.247 C 
ATOM     20  C   UNL     1     -38.492  20.091  -3.097  0.00  0.00    +0.013 C 
ATOM     21  C   UNL     1     -38.113  19.548  -0.681  0.00  0.00    +0.013 C 
BRANCH  17  23
ATOM     22  OXT UNL     1     -41.017  18.821  -1.304  0.00  0.00    -0.248 OA
ATOM     23  C   UNL     1     -41.107  20.009  -1.030  0.00  0.00    +0.333 C 
BRANCH  23  24
ATOM     24  O   UNL     1     -42.142  20.559  -0.351  0.00  0.00    -0.479 OA
ATOM     25  H   UNL     1     -42.761  21.103  -0.798  0.00  0.00    +0.295 HD
ENDBRANCH  23  24
ENDBRANCH  17  23
ENDBRANCH   9  18
ENDBRANCH   1  10
BRANCH   1  27
ATOM     26  O   UNL     1     -34.763  23.257   5.740  0.00  0.00    -0.251 OA
ATOM     27  N   UNL     1     -34.910  23.611   3.471  0.00  0.00    -0.278 N 
ATOM     28  C   UNL     1     -34.485  23.932   4.749  0.00  0.00    +0.327 C 
ATOM     29  H   UNL     1     -34.649  24.199   2.725  0.00  0.00    +0.152 HD
BRANCH  28  30
ATOM     30  N   UNL     1     -33.697  25.062   4.763  0.00  0.00    -0.130 NA
BRANCH  30  33
ATOM     31  N   UNL     1     -33.306  27.012   6.120  0.00  0.00    -0.372 N 
ATOM     32  N   UNL     1     -35.429  26.406   5.549  0.00  0.00    -0.372 N 
ATOM     33  C   UNL     1     -34.091  26.108   5.441  0.00  0.00    +0.186 C 
ATOM     34  H   UNL     1     -32.326  26.911   6.121  0.00  0.00    +0.159 HD
ATOM     35  H   UNL     1     -33.723  27.760   6.605  0.00  0.00    +0.159 HD
ATOM     36  H   UNL     1     -36.098  25.835   5.107  0.00  0.00    +0.159 HD
ATOM     37  H   UNL     1     -35.718  27.190   6.068  0.00  0.00    +0.159 HD
ENDBRANCH  30  33
ENDBRANCH  28  30
ENDBRANCH   1  27
TORSDOF 8
ENDMDL
MODEL 6
REMARK VINA RESULT:      -6.3      2.827      5.141
REMARK  Name = 193642
REMARK  8 active torsions:
REMARK  status: ('A' for Active; 'I' for Inactive)
REMARK    1  A    between atoms: CA_1  and  C_2
REMARK    2  A    between atoms: CA_1  and  C_10
REMARK    3  A    between atoms: CA_1  and  N_27
REMARK    4  A    between atoms: N_9  and  CA_18
REMARK    5  A    between atoms: CA_17  and  C_23
REMARK    6  A    between atoms: C_23  and  O_24
REMARK    7  A    between atoms: C_28  and  N_30
REMARK    8  A    between atoms: N_30  and  C_33
REMARK                            x       y       z     vdW  Elec       q    Type
REMARK                         _______ _______ _______ _____ _____    ______ ____
ROOT
ATOM      1  CA  UNL     1     -34.975  19.877   1.609  0.00  0.00    +0.173 C 
ENDROOT
BRANCH   1   2
ATOM      2  C   UNL     1     -33.576  19.582   1.123  0.00  0.00    +0.004 C 
ATOM      3  C   UNL     1     -32.964  18.396   1.497  0.00  0.00    -0.002 C 
ATOM      4  C   UNL     1     -32.931  20.503   0.315  0.00  0.00    -0.002 C 
ATOM      5  C   UNL     1     -31.672  18.124   1.048  0.00  0.00    -0.000 C 
ATOM      6  C   UNL     1     -31.638  20.230  -0.134  0.00  0.00    -0.000 C 
ATOM      7  C   UNL     1     -31.009  19.041   0.233  0.00  0.00    -0.000 C 
ENDBRANCH   1   2
BRANCH   1  10
ATOM      8  O   UNL     1     -35.875  18.815  -0.377  0.00  0.00    -0.273 OA
ATOM      9  N   UNL     1     -37.150  20.445   0.674  0.00  0.00    -0.295 N 
ATOM     10  C   UNL     1     -36.014  19.647   0.518  0.00  0.00    +0.245 C 
ATOM     11  H   UNL     1     -37.177  21.086   1.421  0.00  0.00    +0.150 HD
BRANCH   9  18
ATOM     12  S   UNL     1     -39.560  21.919   1.815  0.00  0.00    -0.118 S 
ATOM     13  O   UNL     1     -37.641  22.031  -2.035  0.00  0.00    -0.273 OA
ATOM     14  N   UNL     1     -39.662  21.837  -0.820  0.00  0.00    -0.260 N 
ATOM     15  C   UNL     1     -39.657  20.877   0.296  0.00  0.00    +0.151 C 
ATOM     16  C   UNL     1     -39.638  23.537   0.887  0.00  0.00    +0.068 C 
ATOM     17  CA  UNL     1     -40.185  23.152  -0.499  0.00  0.00    +0.184 C 
ATOM     18  CA  UNL     1     -38.308  20.368  -0.229  0.00  0.00    +0.178 C 
ATOM     19  C   UNL     1     -38.400  21.520  -1.242  0.00  0.00    +0.247 C 
ATOM     20  C   UNL     1     -40.608  24.471   1.619  0.00  0.00    +0.013 C 
ATOM     21  C   UNL     1     -38.233  24.149   0.888  0.00  0.00    +0.013 C 
BRANCH  17  23
ATOM     22  OXT UNL     1     -39.541  25.250  -1.509  0.00  0.00    -0.248 OA
ATOM     23  C   UNL     1     -39.952  24.105  -1.630  0.00  0.00    +0.333 C 
BRANCH  23  24
ATOM     24  O   UNL     1     -40.262  23.526  -2.815  0.00  0.00    -0.479 OA
ATOM     25  H   UNL     1     -40.897  22.836  -2.849  0.00  0.00    +0.295 HD
ENDBRANCH  23  24
ENDBRANCH  17  23
ENDBRANCH   9  18
ENDBRANCH   1  10
BRANCH   1  27
ATOM     26  O   UNL     1     -35.208  20.719   4.317  0.00  0.00    -0.251 OA
ATOM     27  N   UNL     1     -35.108  21.235   2.076  0.00  0.00    -0.278 N 
ATOM     28  C   UNL     1     -35.217  21.560   3.419  0.00  0.00    +0.327 C 
ATOM     29  H   UNL     1     -35.124  21.962   1.413  0.00  0.00    +0.152 HD
BRANCH  28  30
ATOM     30  N   UNL     1     -35.299  22.921   3.615  0.00  0.00    -0.130 NA
BRANCH  30  33
ATOM     31  N   UNL     1     -37.098  24.315   4.403  0.00  0.00    -0.372 N 
ATOM     32  N   UNL     1     -35.969  22.957   5.846  0.00  0.00    -0.372 N 
ATOM     33  C   UNL     1     -36.093  23.386   4.545  0.00  0.00    +0.186 C 
ATOM     34  H   UNL     1     -37.289  24.701   3.517  0.00  0.00    +0.159 HD
ATOM     35  H   UNL     1     -37.625  24.594   5.184  0.00  0.00    +0.159 HD
ATOM     36  H   UNL     1     -35.285  22.290   6.082  0.00  0.00    +0.159 HD
ATOM     37  H   UNL     1     -36.564  23.318   6.542  0.00  0.00    +0.159 HD
ENDBRANCH  30  33
ENDBRANCH  28  30
ENDBRANCH   1  27
TORSDOF 8
ENDMDL
MODEL 7
REMARK VINA RESULT:      -6.3      4.125      8.967
REMARK  Name = 193642
REMARK  8 active torsions:
REMARK  status: ('A' for Active; 'I' for Inactive)
REMARK    1  A    between atoms: CA_1  and  C_2
REMARK    2  A    between atoms: CA_1  and  C_10
REMARK    3  A    between atoms: CA_1  and  N_27
REMARK    4  A    between atoms: N_9  and  CA_18
REMARK    5  A    between atoms: CA_17  and  C_23
REMARK    6  A    between atoms: C_23  and  O_24
REMARK    7  A    between atoms: C_28  and  N_30
REMARK    8  A    between atoms: N_30  and  C_33
REMARK                            x       y       z     vdW  Elec       q    Type
REMARK                         _______ _______ _______ _____ _____    ______ ____
ROOT
ATOM      1  CA  UNL     1     -33.856  26.791   3.922  0.00  0.00    +0.173 C 
ENDROOT
BRANCH   1   2
ATOM      2  C   UNL     1     -34.143  27.502   2.621  0.00  0.00    +0.004 C 
ATOM      3  C   UNL     1     -33.588  27.019   1.447  0.00  0.00    -0.002 C 
ATOM      4  C   UNL     1     -34.954  28.625   2.626  0.00  0.00    -0.002 C 
ATOM      5  C   UNL     1     -33.853  27.676   0.245  0.00  0.00    -0.000 C 
ATOM      6  C   UNL     1     -35.219  29.282   1.425  0.00  0.00    -0.000 C 
ATOM      7  C   UNL     1     -34.668  28.807   0.234  0.00  0.00    -0.000 C 
ENDBRANCH   1   2
BRANCH   1  10
ATOM      8  O   UNL     1     -35.851  26.431   5.253  0.00  0.00    -0.273 OA
ATOM      9  N   UNL     1     -35.199  24.765   3.775  0.00  0.00    -0.295 N 
ATOM     10  C   UNL     1     -35.063  26.001   4.413  0.00  0.00    +0.245 C 
ATOM     11  H   UNL     1     -34.520  24.499   3.113  0.00  0.00    +0.150 HD
BRANCH   9  18
ATOM     12  S   UNL     1     -36.975  24.399   1.326  0.00  0.00    -0.118 S 
ATOM     13  O   UNL     1     -35.122  21.598   4.016  0.00  0.00    -0.273 OA
ATOM     14  N   UNL     1     -37.093  22.288   2.905  0.00  0.00    -0.260 N 
ATOM     15  C   UNL     1     -37.414  23.722   2.986  0.00  0.00    +0.151 C 
ATOM     16  C   UNL     1     -36.503  22.740   0.614  0.00  0.00    +0.068 C 
ATOM     17  CA  UNL     1     -37.144  21.720   1.571  0.00  0.00    +0.184 C 
ATOM     18  CA  UNL     1     -36.313  23.846   4.048  0.00  0.00    +0.178 C 
ATOM     19  C   UNL     1     -36.010  22.372   3.736  0.00  0.00    +0.247 C 
ATOM     20  C   UNL     1     -37.104  22.626  -0.792  0.00  0.00    +0.013 C 
ATOM     21  C   UNL     1     -34.974  22.683   0.526  0.00  0.00    +0.013 C 
BRANCH  17  23
ATOM     22  OXT UNL     1     -35.929  19.835   0.673  0.00  0.00    -0.248 OA
ATOM     23  C   UNL     1     -36.602  20.325   1.569  0.00  0.00    +0.333 C 
BRANCH  23  24
ATOM     24  O   UNL     1     -36.961  19.670   2.699  0.00  0.00    -0.479 OA
ATOM     25  H   UNL     1     -37.855  19.424   2.835  0.00  0.00    +0.295 HD
ENDBRANCH  23  24
ENDBRANCH  17  23
ENDBRANCH   9  18
ENDBRANCH   1  10
BRANCH   1  27
ATOM     26  O   UNL     1     -31.227  27.751   4.432  0.00  0.00    -0.251 OA
ATOM     27  N   UNL     1     -33.466  27.709   4.963  0.00  0.00    -0.278 N 
ATOM     28  C   UNL     1     -32.157  28.127   5.144  0.00  0.00    +0.327 C 
ATOM     29  H   UNL     1     -34.159  28.052   5.573  0.00  0.00    +0.152 HD
BRANCH  28  30
ATOM     30  N   UNL     1     -32.042  29.028   6.179  0.00  0.00    -0.130 NA
BRANCH  30  33
ATOM     31  N   UNL     1     -30.044  29.335   7.489  0.00  0.00    -0.372 N 
ATOM     32  N   UNL     1     -30.364  30.525   5.569  0.00  0.00    -0.372 N 
ATOM     33  C   UNL     1     -30.880  29.577   6.422  0.00  0.00    +0.186 C 
ATOM     34  H   UNL     1     -30.299  28.675   8.174  0.00  0.00    +0.159 HD
ATOM     35  H   UNL     1     -29.192  29.821   7.567  0.00  0.00    +0.159 HD
ATOM     36  H   UNL     1     -30.866  30.789   4.765  0.00  0.00    +0.159 HD
ATOM     37  H   UNL     1     -29.493  30.940   5.763  0.00  0.00    +0.159 HD
ENDBRANCH  30  33
ENDBRANCH  28  30
ENDBRANCH   1  27
TORSDOF 8
ENDMDL
MODEL 8
REMARK VINA RESULT:      -6.2      9.564     15.027
REMARK  Name = 193642
REMARK  8 active torsions:
REMARK  status: ('A' for Active; 'I' for Inactive)
REMARK    1  A    between atoms: CA_1  and  C_2
REMARK    2  A    between atoms: CA_1  and  C_10
REMARK    3  A    between atoms: CA_1  and  N_27
REMARK    4  A    between atoms: N_9  and  CA_18
REMARK    5  A    between atoms: CA_17  and  C_23
REMARK    6  A    between atoms: C_23  and  O_24
REMARK    7  A    between atoms: C_28  and  N_30
REMARK    8  A    between atoms: N_30  and  C_33
REMARK                            x       y       z     vdW  Elec       q    Type
REMARK                         _______ _______ _______ _____ _____    ______ ____
ROOT
ATOM      1  CA  UNL     1     -45.418  32.387   4.862  0.00  0.00    +0.173 C 
ENDROOT
BRANCH   1   2
ATOM      2  C   UNL     1     -46.388  33.003   5.842  0.00  0.00    +0.004 C 
ATOM      3  C   UNL     1     -46.801  32.268   6.941  0.00  0.00    -0.002 C 
ATOM      4  C   UNL     1     -46.846  34.292   5.623  0.00  0.00    -0.002 C 
ATOM      5  C   UNL     1     -47.696  32.837   7.846  0.00  0.00    -0.000 C 
ATOM      6  C   UNL     1     -47.742  34.861   6.528  0.00  0.00    -0.000 C 
ATOM      7  C   UNL     1     -48.167  34.133   7.640  0.00  0.00    -0.000 C 
ENDBRANCH   1   2
BRANCH   1  10
ATOM      8  O   UNL     1     -43.992  31.211   6.433  0.00  0.00    -0.273 OA
ATOM      9  N   UNL     1     -45.048  29.982   4.771  0.00  0.00    -0.295 N 
ATOM     10  C   UNL     1     -44.724  31.162   5.446  0.00  0.00    +0.245 C 
ATOM     11  H   UNL     1     -45.643  30.034   3.988  0.00  0.00    +0.150 HD
BRANCH   9  18
ATOM     12  S   UNL     1     -45.573  27.868   2.640  0.00  0.00    -0.118 S 
ATOM     13  O   UNL     1     -42.037  28.970   4.829  0.00  0.00    -0.273 OA
ATOM     14  N   UNL     1     -43.471  27.235   4.102  0.00  0.00    -0.260 N 
ATOM     15  C   UNL     1     -44.911  27.455   4.311  0.00  0.00    +0.151 C 
ATOM     16  C   UNL     1     -43.940  27.622   1.771  0.00  0.00    +0.068 C 
ATOM     17  CA  UNL     1     -43.102  26.802   2.767  0.00  0.00    +0.184 C 
ATOM     18  CA  UNL     1     -44.537  28.665   5.179  0.00  0.00    +0.178 C 
ATOM     19  C   UNL     1     -43.091  28.382   4.743  0.00  0.00    +0.247 C 
ATOM     20  C   UNL     1     -44.189  26.830   0.483  0.00  0.00    +0.013 C 
ATOM     21  C   UNL     1     -43.376  29.004   1.425  0.00  0.00    +0.013 C 
BRANCH  17  23
ATOM     22  OXT UNL     1     -41.020  27.248   1.625  0.00  0.00    -0.248 OA
ATOM     23  C   UNL     1     -41.614  26.811   2.601  0.00  0.00    +0.333 C 
BRANCH  23  24
ATOM     24  O   UNL     1     -41.007  26.265   3.682  0.00  0.00    -0.479 OA
ATOM     25  H   UNL     1     -41.488  25.699   4.254  0.00  0.00    +0.295 HD
ENDBRANCH  23  24
ENDBRANCH  17  23
ENDBRANCH   9  18
ENDBRANCH   1  10
BRANCH   1  27
ATOM     26  O   UNL     1     -44.021  32.380   2.384  0.00  0.00    -0.251 OA
ATOM     27  N   UNL     1     -44.402  33.323   4.448  0.00  0.00    -0.278 N 
ATOM     28  C   UNL     1     -43.768  33.248   3.219  0.00  0.00    +0.327 C 
ATOM     29  H   UNL     1     -44.147  34.045   5.067  0.00  0.00    +0.152 HD
BRANCH  28  30
ATOM     30  N   UNL     1     -42.863  34.271   3.041  0.00  0.00    -0.130 NA
BRANCH  30  33
ATOM     31  N   UNL     1     -41.027  34.272   1.482  0.00  0.00    -0.372 N 
ATOM     32  N   UNL     1     -43.112  34.914   0.816  0.00  0.00    -0.372 N 
ATOM     33  C   UNL     1     -42.337  34.461   1.859  0.00  0.00    +0.186 C 
ATOM     34  H   UNL     1     -40.368  33.949   2.139  0.00  0.00    +0.159 HD
ATOM     35  H   UNL     1     -40.748  34.460   0.558  0.00  0.00    +0.159 HD
ATOM     36  H   UNL     1     -44.070  35.089   0.955  0.00  0.00    +0.159 HD
ATOM     37  H   UNL     1     -42.707  35.063  -0.069  0.00  0.00    +0.159 HD
ENDBRANCH  30  33
ENDBRANCH  28  30
ENDBRANCH   1  27
TORSDOF 8
ENDMDL
MODEL 9
REMARK VINA RESULT:      -6.2      3.795      5.696
REMARK  Name = 193642
REMARK  8 active torsions:
REMARK  status: ('A' for Active; 'I' for Inactive)
REMARK    1  A    between atoms: CA_1  and  C_2
REMARK    2  A    between atoms: CA_1  and  C_10
REMARK    3  A    between atoms: CA_1  and  N_27
REMARK    4  A    between atoms: N_9  and  CA_18
REMARK    5  A    between atoms: CA_17  and  C_23
REMARK    6  A    between atoms: C_23  and  O_24
REMARK    7  A    between atoms: C_28  and  N_30
REMARK    8  A    between atoms: N_30  and  C_33
REMARK                            x       y       z     vdW  Elec       q    Type
REMARK                         _______ _______ _______ _____ _____    ______ ____
ROOT
ATOM      1  CA  UNL     1     -35.980  22.263   3.226  0.00  0.00    +0.173 C 
ENDROOT
BRANCH   1   2
ATOM      2  C   UNL     1     -35.121  21.565   2.198  0.00  0.00    +0.004 C 
ATOM      3  C   UNL     1     -34.575  22.301   1.159  0.00  0.00    -0.002 C 
ATOM      4  C   UNL     1     -34.896  20.203   2.314  0.00  0.00    -0.002 C 
ATOM      5  C   UNL     1     -33.781  21.657   0.210  0.00  0.00    -0.000 C 
ATOM      6  C   UNL     1     -34.103  19.559   1.364  0.00  0.00    -0.000 C 
ATOM      7  C   UNL     1     -33.546  20.286   0.312  0.00  0.00    -0.000 C 
ENDBRANCH   1   2
BRANCH   1  10
ATOM      8  O   UNL     1     -38.236  21.983   2.380  0.00  0.00    -0.273 OA
ATOM      9  N   UNL     1     -37.344  24.124   2.450  0.00  0.00    -0.295 N 
ATOM     10  C   UNL     1     -37.300  22.739   2.632  0.00  0.00    +0.245 C 
ATOM     11  H   UNL     1     -36.547  24.655   2.678  0.00  0.00    +0.150 HD
BRANCH   9  18
ATOM     12  S   UNL     1     -36.720  27.024   1.752  0.00  0.00    -0.118 S 
ATOM     13  O   UNL     1     -38.682  23.870  -0.421  0.00  0.00    -0.273 OA
ATOM     14  N   UNL     1     -38.738  26.118   0.314  0.00  0.00    -0.260 N 
ATOM     15  C   UNL     1     -38.434  26.342   1.737  0.00  0.00    +0.151 C 
ATOM     16  C   UNL     1     -36.563  27.064  -0.107  0.00  0.00    +0.068 C 
ATOM     17  CA  UNL     1     -38.014  26.969  -0.611  0.00  0.00    +0.184 C 
ATOM     18  CA  UNL     1     -38.530  24.823   1.933  0.00  0.00    +0.178 C 
ATOM     19  C   UNL     1     -38.691  24.754   0.406  0.00  0.00    +0.247 C 
ATOM     20  C   UNL     1     -35.929  28.400  -0.512  0.00  0.00    +0.013 C 
ATOM     21  C   UNL     1     -35.647  25.911  -0.529  0.00  0.00    +0.013 C 
BRANCH  17  23
ATOM     22  OXT UNL     1     -37.367  26.078  -2.761  0.00  0.00    -0.248 OA
ATOM     23  C   UNL     1     -38.234  26.523  -2.023  0.00  0.00    +0.333 C 
BRANCH  23  24
ATOM     24  O   UNL     1     -39.531  26.681  -2.379  0.00  0.00    -0.479 OA
ATOM     25  H   UNL     1     -39.948  26.047  -2.929  0.00  0.00    +0.295 HD
ENDBRANCH  23  24
ENDBRANCH  17  23
ENDBRANCH   9  18
ENDBRANCH   1  10
BRANCH   1  27
ATOM     26  O   UNL     1     -36.043  23.055   5.957  0.00  0.00    -0.251 OA
ATOM     27  N   UNL     1     -35.311  23.402   3.804  0.00  0.00    -0.278 N 
ATOM     28  C   UNL     1     -35.394  23.719   5.150  0.00  0.00    +0.327 C 
ATOM     29  H   UNL     1     -34.772  23.980   3.216  0.00  0.00    +0.152 HD
BRANCH  28  30
ATOM     30  N   UNL     1     -34.643  24.829   5.467  0.00  0.00    -0.130 NA
BRANCH  30  33
ATOM     31  N   UNL     1     -34.441  27.108   4.714  0.00  0.00    -0.372 N 
ATOM     32  N   UNL     1     -36.446  26.304   5.447  0.00  0.00    -0.372 N 
ATOM     33  C   UNL     1     -35.121  26.019   5.211  0.00  0.00    +0.186 C 
ATOM     34  H   UNL     1     -33.482  27.034   4.502  0.00  0.00    +0.159 HD
ATOM     35  H   UNL     1     -34.912  27.959   4.571  0.00  0.00    +0.159 HD
ATOM     36  H   UNL     1     -37.043  25.608   5.804  0.00  0.00    +0.159 HD
ATOM     37  H   UNL     1     -36.796  27.204   5.260  0.00  0.00    +0.159 HD
ENDBRANCH  30  33
ENDBRANCH  28  30
ENDBRANCH   1  27
TORSDOF 8
ENDMDL
