MODEL 1
REMARK VINA RESULT:      -5.4      0.000      0.000
REMARK  Name = 194263
REMARK  9 active torsions:
REMARK  status: ('A' for Active; 'I' for Inactive)
REMARK    1  A    between atoms: C_2  and  C_10
REMARK    2  A    between atoms: C_3  and  C_17
REMARK    3  A    between atoms: C_4  and  O_8
REMARK    4  A    between atoms: C_10  and  N_12
REMARK    5  A    between atoms: C_13  and  C_16
REMARK    6  A    between atoms: C_17  and  O_18
REMARK    7  A    between atoms: O_18  and  P_19
REMARK    8  A    between atoms: P_19  and  O_21
REMARK    9  A    between atoms: P_19  and  O_23
REMARK                            x       y       z     vdW  Elec       q    Type
REMARK                         _______ _______ _______ _____ _____    ______ ____
ROOT
ATOM      1  N   UNL     1     -35.914  24.097   5.616  0.00  0.00    -0.245 NA
ATOM      2  C   UNL     1     -36.254  22.975   3.088  0.00  0.00    +0.032 C 
ATOM      3  C   UNL     1     -36.533  24.318   3.289  0.00  0.00    +0.028 C 
ATOM      4  C   UNL     1     -35.807  22.187   4.137  0.00  0.00    +0.144 C 
ATOM      5  C   UNL     1     -35.654  22.792   5.374  0.00  0.00    +0.093 C 
ATOM      6  C   UNL     1     -36.348  24.828   4.564  0.00  0.00    +0.097 C 
ATOM      7  C   UNL     1     -35.176  21.995   6.544  0.00  0.00    +0.055 C 
ENDROOT
BRANCH   4   8
ATOM      8  O   UNL     1     -35.528  20.869   3.961  0.00  0.00    -0.505 OA
ATOM      9  H   UNL     1     -34.713  20.610   3.576  0.00  0.00    +0.292 HD
ENDBRANCH   4   8
BRANCH   2  10
ATOM     10  C   UNL     1     -36.437  22.367   1.725  0.00  0.00    +0.119 C 
BRANCH  10  12
ATOM     11  O   UNL     1     -35.460  19.715   1.154  0.00  0.00    -0.274 OA
ATOM     12  N   UNL     1     -35.158  22.019   1.151  0.00  0.00    -0.300 N 
ATOM     13  C   UNL     1     -34.776  20.709   0.913  0.00  0.00    +0.234 C 
ATOM     14  H   UNL     1     -34.531  22.742   0.920  0.00  0.00    +0.150 HD
BRANCH  13  16
ATOM     15 BR   UNL     1     -32.673  18.904   0.936  0.00  0.00    -0.070 Br
ATOM     16  C   UNL     1     -33.394  20.598   0.330  0.00  0.00    +0.152 C 
ENDBRANCH  13  16
ENDBRANCH  10  12
ENDBRANCH   2  10
BRANCH   3  17
ATOM     17  C   UNL     1     -37.014  25.205   2.194  0.00  0.00    +0.181 C 
BRANCH  17  18
ATOM     18  O   UNL     1     -38.001  26.096   2.702  0.00  0.00    -0.268 OA
BRANCH  18  19
ATOM     19  P   UNL     1     -39.554  25.669   2.580  0.00  0.00    +0.473 P 
ATOM     20  O   UNL     1     -40.499  26.792   2.263  0.00  0.00    -0.227 OA
BRANCH  19  21
ATOM     21  O   UNL     1     -39.849  24.887   3.965  0.00  0.00    -0.303 OA
ATOM     22  H   UNL     1     -40.191  25.513   4.623  0.00  0.00    +0.222 HD
ENDBRANCH  19  21
BRANCH  19  23
ATOM     23  O   UNL     1     -39.513  24.481   1.484  0.00  0.00    -0.303 OA
ATOM     24  H   UNL     1     -40.078  24.717   0.731  0.00  0.00    +0.222 HD
ENDBRANCH  19  23
ENDBRANCH  18  19
ENDBRANCH  17  18
ENDBRANCH   3  17
TORSDOF 9
ENDMDL
MODEL 2
REMARK VINA RESULT:      -5.3      1.934      2.425
REMARK  Name = 194263
REMARK  9 active torsions:
REMARK  status: ('A' for Active; 'I' for Inactive)
REMARK    1  A    between atoms: C_2  and  C_10
REMARK    2  A    between atoms: C_3  and  C_17
REMARK    3  A    between atoms: C_4  and  O_8
REMARK    4  A    between atoms: C_10  and  N_12
REMARK    5  A    between atoms: C_13  and  C_16
REMARK    6  A    between atoms: C_17  and  O_18
REMARK    7  A    between atoms: O_18  and  P_19
REMARK    8  A    between atoms: P_19  and  O_21
REMARK    9  A    between atoms: P_19  and  O_23
REMARK                            x       y       z     vdW  Elec       q    Type
REMARK                         _______ _______ _______ _____ _____    ______ ____
ROOT
ATOM      1  N   UNL     1     -35.669  24.135   5.471  0.00  0.00    -0.245 NA
ATOM      2  C   UNL     1     -35.816  22.963   2.947  0.00  0.00    +0.032 C 
ATOM      3  C   UNL     1     -35.922  24.339   3.075  0.00  0.00    +0.028 C 
ATOM      4  C   UNL     1     -35.637  22.167   4.068  0.00  0.00    +0.144 C 
ATOM      5  C   UNL     1     -35.570  22.798   5.299  0.00  0.00    +0.093 C 
ATOM      6  C   UNL     1     -35.843  24.873   4.351  0.00  0.00    +0.097 C 
ATOM      7  C   UNL     1     -35.379  21.993   6.544  0.00  0.00    +0.055 C 
ENDROOT
BRANCH   4   8
ATOM      8  O   UNL     1     -35.530  20.816   3.964  0.00  0.00    -0.505 OA
ATOM      9  H   UNL     1     -35.576  20.406   3.123  0.00  0.00    +0.292 HD
ENDBRANCH   4   8
BRANCH   2  10
ATOM     10  C   UNL     1     -35.895  22.327   1.587  0.00  0.00    +0.119 C 
BRANCH  10  12
ATOM     11  O   UNL     1     -35.280  19.561   1.059  0.00  0.00    -0.274 OA
ATOM     12  N   UNL     1     -34.612  21.781   1.209  0.00  0.00    -0.300 N 
ATOM     13  C   UNL     1     -34.414  20.430   0.975  0.00  0.00    +0.234 C 
ATOM     14  H   UNL     1     -33.847  22.394   1.114  0.00  0.00    +0.150 HD
BRANCH  13  16
ATOM     15 BR   UNL     1     -32.666  18.296   1.243  0.00  0.00    -0.070 Br
ATOM     16  C   UNL     1     -32.991  20.101   0.615  0.00  0.00    +0.152 C 
ENDBRANCH  13  16
ENDBRANCH  10  12
ENDBRANCH   2  10
BRANCH   3  17
ATOM     17  C   UNL     1     -36.114  25.236   1.902  0.00  0.00    +0.181 C 
BRANCH  17  18
ATOM     18  O   UNL     1     -35.115  26.250   1.910  0.00  0.00    -0.268 OA
BRANCH  18  19
ATOM     19  P   UNL     1     -35.590  27.794   1.926  0.00  0.00    +0.473 P 
ATOM     20  O   UNL     1     -35.005  28.652   0.843  0.00  0.00    -0.227 OA
BRANCH  19  21
ATOM     21  O   UNL     1     -35.276  28.278   3.437  0.00  0.00    -0.303 OA
ATOM     22  H   UNL     1     -35.030  27.511   3.978  0.00  0.00    +0.222 HD
ENDBRANCH  19  21
BRANCH  19  23
ATOM     23  O   UNL     1     -37.202  27.671   1.904  0.00  0.00    -0.303 OA
ATOM     24  H   UNL     1     -37.459  26.877   1.409  0.00  0.00    +0.222 HD
ENDBRANCH  19  23
ENDBRANCH  18  19
ENDBRANCH  17  18
ENDBRANCH   3  17
TORSDOF 9
ENDMDL
MODEL 3
REMARK VINA RESULT:      -5.3      3.848      5.819
REMARK  Name = 194263
REMARK  9 active torsions:
REMARK  status: ('A' for Active; 'I' for Inactive)
REMARK    1  A    between atoms: C_2  and  C_10
REMARK    2  A    between atoms: C_3  and  C_17
REMARK    3  A    between atoms: C_4  and  O_8
REMARK    4  A    between atoms: C_10  and  N_12
REMARK    5  A    between atoms: C_13  and  C_16
REMARK    6  A    between atoms: C_17  and  O_18
REMARK    7  A    between atoms: O_18  and  P_19
REMARK    8  A    between atoms: P_19  and  O_21
REMARK    9  A    between atoms: P_19  and  O_23
REMARK                            x       y       z     vdW  Elec       q    Type
REMARK                         _______ _______ _______ _____ _____    ______ ____
ROOT
ATOM      1  N   UNL     1     -34.693  24.165   5.450  0.00  0.00    -0.245 NA
ATOM      2  C   UNL     1     -36.466  25.311   3.631  0.00  0.00    +0.032 C 
ATOM      3  C   UNL     1     -36.439  23.934   3.793  0.00  0.00    +0.028 C 
ATOM      4  C   UNL     1     -35.617  26.121   4.369  0.00  0.00    +0.144 C 
ATOM      5  C   UNL     1     -34.754  25.503   5.260  0.00  0.00    +0.093 C 
ATOM      6  C   UNL     1     -35.539  23.414   4.710  0.00  0.00    +0.097 C 
ATOM      7  C   UNL     1     -33.815  26.322   6.083  0.00  0.00    +0.055 C 
ENDROOT
BRANCH   4   8
ATOM      8  O   UNL     1     -35.628  27.472   4.225  0.00  0.00    -0.505 OA
ATOM      9  H   UNL     1     -34.973  27.893   3.704  0.00  0.00    +0.292 HD
ENDBRANCH   4   8
BRANCH   2  10
ATOM     10  C   UNL     1     -37.422  25.932   2.650  0.00  0.00    +0.119 C 
BRANCH  10  12
ATOM     11  O   UNL     1     -40.056  25.359   1.630  0.00  0.00    -0.274 OA
ATOM     12  N   UNL     1     -38.683  26.228   3.290  0.00  0.00    -0.300 N 
ATOM     13  C   UNL     1     -39.904  25.912   2.718  0.00  0.00    +0.234 C 
ATOM     14  H   UNL     1     -38.674  26.673   4.169  0.00  0.00    +0.150 HD
BRANCH  13  16
ATOM     15 BR   UNL     1     -42.585  26.517   2.364  0.00  0.00    -0.070 Br
ATOM     16  C   UNL     1     -41.074  26.336   3.563  0.00  0.00    +0.152 C 
ENDBRANCH  13  16
ENDBRANCH  10  12
ENDBRANCH   2  10
BRANCH   3  17
ATOM     17  C   UNL     1     -37.332  23.023   3.025  0.00  0.00    +0.181 C 
BRANCH  17  18
ATOM     18  O   UNL     1     -36.544  22.104   2.277  0.00  0.00    -0.268 OA
BRANCH  18  19
ATOM     19  P   UNL     1     -37.281  20.836   1.599  0.00  0.00    +0.473 P 
ATOM     20  O   UNL     1     -37.118  20.726   0.111  0.00  0.00    -0.227 OA
BRANCH  19  21
ATOM     21  O   UNL     1     -38.807  20.954   2.121  0.00  0.00    -0.303 OA
ATOM     22  H   UNL     1     -38.830  20.831   3.083  0.00  0.00    +0.222 HD
ENDBRANCH  19  21
BRANCH  19  23
ATOM     23  O   UNL     1     -36.694  19.589   2.444  0.00  0.00    -0.303 OA
ATOM     24  H   UNL     1     -36.258  18.967   1.841  0.00  0.00    +0.222 HD
ENDBRANCH  19  23
ENDBRANCH  18  19
ENDBRANCH  17  18
ENDBRANCH   3  17
TORSDOF 9
ENDMDL
MODEL 4
REMARK VINA RESULT:      -5.3      3.738      5.236
REMARK  Name = 194263
REMARK  9 active torsions:
REMARK  status: ('A' for Active; 'I' for Inactive)
REMARK    1  A    between atoms: C_2  and  C_10
REMARK    2  A    between atoms: C_3  and  C_17
REMARK    3  A    between atoms: C_4  and  O_8
REMARK    4  A    between atoms: C_10  and  N_12
REMARK    5  A    between atoms: C_13  and  C_16
REMARK    6  A    between atoms: C_17  and  O_18
REMARK    7  A    between atoms: O_18  and  P_19
REMARK    8  A    between atoms: P_19  and  O_21
REMARK    9  A    between atoms: P_19  and  O_23
REMARK                            x       y       z     vdW  Elec       q    Type
REMARK                         _______ _______ _______ _____ _____    ______ ____
ROOT
ATOM      1  N   UNL     1     -35.389  20.900   4.065  0.00  0.00    -0.245 NA
ATOM      2  C   UNL     1     -36.611  23.134   2.933  0.00  0.00    +0.032 C 
ATOM      3  C   UNL     1     -36.450  21.982   2.180  0.00  0.00    +0.028 C 
ATOM      4  C   UNL     1     -36.168  23.181   4.246  0.00  0.00    +0.144 C 
ATOM      5  C   UNL     1     -35.567  22.045   4.762  0.00  0.00    +0.093 C 
ATOM      6  C   UNL     1     -35.837  20.899   2.789  0.00  0.00    +0.097 C 
ATOM      7  C   UNL     1     -35.068  22.035   6.170  0.00  0.00    +0.055 C 
ENDROOT
BRANCH   4   8
ATOM      8  O   UNL     1     -36.317  24.302   5.002  0.00  0.00    -0.505 OA
ATOM      9  H   UNL     1     -35.667  24.527   5.638  0.00  0.00    +0.292 HD
ENDBRANCH   4   8
BRANCH   2  10
ATOM     10  C   UNL     1     -37.271  24.342   2.326  0.00  0.00    +0.119 C 
BRANCH  10  12
ATOM     11  O   UNL     1     -38.923  26.696   2.133  0.00  0.00    -0.274 OA
ATOM     12  N   UNL     1     -38.603  24.512   2.858  0.00  0.00    -0.300 N 
ATOM     13  C   UNL     1     -39.321  25.688   2.714  0.00  0.00    +0.234 C 
ATOM     14  H   UNL     1     -39.017  23.762   3.344  0.00  0.00    +0.150 HD
BRANCH  13  16
ATOM     15 BR   UNL     1     -41.867  26.687   2.265  0.00  0.00    -0.070 Br
ATOM     16  C   UNL     1     -40.674  25.631   3.369  0.00  0.00    +0.152 C 
ENDBRANCH  13  16
ENDBRANCH  10  12
ENDBRANCH   2  10
BRANCH   3  17
ATOM     17  C   UNL     1     -36.911  21.882   0.768  0.00  0.00    +0.181 C 
BRANCH  17  18
ATOM     18  O   UNL     1     -37.954  20.918   0.674  0.00  0.00    -0.268 OA
BRANCH  18  19
ATOM     19  P   UNL     1     -39.483  21.435   0.730  0.00  0.00    +0.473 P 
ATOM     20  O   UNL     1     -39.681  22.876   0.361  0.00  0.00    -0.227 OA
BRANCH  19  21
ATOM     21  O   UNL     1     -39.974  21.028   2.217  0.00  0.00    -0.303 OA
ATOM     22  H   UNL     1     -39.265  20.547   2.671  0.00  0.00    +0.222 HD
ENDBRANCH  19  21
BRANCH  19  23
ATOM     23  O   UNL     1     -40.253  20.375  -0.218  0.00  0.00    -0.303 OA
ATOM     24  H   UNL     1     -41.195  20.363   0.010  0.00  0.00    +0.222 HD
ENDBRANCH  19  23
ENDBRANCH  18  19
ENDBRANCH  17  18
ENDBRANCH   3  17
TORSDOF 9
ENDMDL
MODEL 5
REMARK VINA RESULT:      -5.3      2.519      3.033
REMARK  Name = 194263
REMARK  9 active torsions:
REMARK  status: ('A' for Active; 'I' for Inactive)
REMARK    1  A    between atoms: C_2  and  C_10
REMARK    2  A    between atoms: C_3  and  C_17
REMARK    3  A    between atoms: C_4  and  O_8
REMARK    4  A    between atoms: C_10  and  N_12
REMARK    5  A    between atoms: C_13  and  C_16
REMARK    6  A    between atoms: C_17  and  O_18
REMARK    7  A    between atoms: O_18  and  P_19
REMARK    8  A    between atoms: P_19  and  O_21
REMARK    9  A    between atoms: P_19  and  O_23
REMARK                            x       y       z     vdW  Elec       q    Type
REMARK                         _______ _______ _______ _____ _____    ______ ____
ROOT
ATOM      1  N   UNL     1     -34.876  24.024   5.562  0.00  0.00    -0.245 NA
ATOM      2  C   UNL     1     -35.373  23.109   2.978  0.00  0.00    +0.032 C 
ATOM      3  C   UNL     1     -35.033  24.436   3.185  0.00  0.00    +0.028 C 
ATOM      4  C   UNL     1     -35.466  22.233   4.049  0.00  0.00    +0.144 C 
ATOM      5  C   UNL     1     -35.210  22.738   5.313  0.00  0.00    +0.093 C 
ATOM      6  C   UNL     1     -34.796  24.842   4.488  0.00  0.00    +0.097 C 
ATOM      7  C   UNL     1     -35.295  21.844   6.508  0.00  0.00    +0.055 C 
ENDROOT
BRANCH   4   8
ATOM      8  O   UNL     1     -35.798  20.928   3.867  0.00  0.00    -0.505 OA
ATOM      9  H   UNL     1     -36.699  20.672   3.850  0.00  0.00    +0.292 HD
ENDBRANCH   4   8
BRANCH   2  10
ATOM     10  C   UNL     1     -35.642  22.611   1.584  0.00  0.00    +0.119 C 
BRANCH  10  12
ATOM     11  O   UNL     1     -37.110  20.164   1.176  0.00  0.00    -0.274 OA
ATOM     12  N   UNL     1     -37.062  22.479   1.358  0.00  0.00    -0.300 N 
ATOM     13  C   UNL     1     -37.679  21.254   1.171  0.00  0.00    +0.234 C 
ATOM     14  H   UNL     1     -37.614  23.295   1.335  0.00  0.00    +0.150 HD
BRANCH  13  16
ATOM     15 BR   UNL     1     -39.767  22.882   1.990  0.00  0.00    -0.070 Br
ATOM     16  C   UNL     1     -39.160  21.374   0.935  0.00  0.00    +0.152 C 
ENDBRANCH  13  16
ENDBRANCH  10  12
ENDBRANCH   2  10
BRANCH   3  17
ATOM     17  C   UNL     1     -34.919  25.413   2.066  0.00  0.00    +0.181 C 
BRANCH  17  18
ATOM     18  O   UNL     1     -35.714  26.558   2.352  0.00  0.00    -0.268 OA
BRANCH  18  19
ATOM     19  P   UNL     1     -37.268  26.542   1.911  0.00  0.00    +0.473 P 
ATOM     20  O   UNL     1     -37.632  25.493   0.901  0.00  0.00    -0.227 OA
BRANCH  19  21
ATOM     21  O   UNL     1     -37.557  28.067   1.459  0.00  0.00    -0.303 OA
ATOM     22  H   UNL     1     -36.728  28.484   1.177  0.00  0.00    +0.222 HD
ENDBRANCH  19  21
BRANCH  19  23
ATOM     23  O   UNL     1     -38.040  26.422   3.327  0.00  0.00    -0.303 OA
ATOM     24  H   UNL     1     -37.988  27.269   3.796  0.00  0.00    +0.222 HD
ENDBRANCH  19  23
ENDBRANCH  18  19
ENDBRANCH  17  18
ENDBRANCH   3  17
TORSDOF 9
ENDMDL
MODEL 6
REMARK VINA RESULT:      -5.2      3.169      4.707
REMARK  Name = 194263
REMARK  9 active torsions:
REMARK  status: ('A' for Active; 'I' for Inactive)
REMARK    1  A    between atoms: C_2  and  C_10
REMARK    2  A    between atoms: C_3  and  C_17
REMARK    3  A    between atoms: C_4  and  O_8
REMARK    4  A    between atoms: C_10  and  N_12
REMARK    5  A    between atoms: C_13  and  C_16
REMARK    6  A    between atoms: C_17  and  O_18
REMARK    7  A    between atoms: O_18  and  P_19
REMARK    8  A    between atoms: P_19  and  O_21
REMARK    9  A    between atoms: P_19  and  O_23
REMARK                            x       y       z     vdW  Elec       q    Type
REMARK                         _______ _______ _______ _____ _____    ______ ____
ROOT
ATOM      1  N   UNL     1     -35.285  20.940   4.032  0.00  0.00    -0.245 NA
ATOM      2  C   UNL     1     -36.706  23.110   3.015  0.00  0.00    +0.032 C 
ATOM      3  C   UNL     1     -36.501  21.990   2.225  0.00  0.00    +0.028 C 
ATOM      4  C   UNL     1     -36.209  23.157   4.309  0.00  0.00    +0.144 C 
ATOM      5  C   UNL     1     -35.509  22.053   4.767  0.00  0.00    +0.093 C 
ATOM      6  C   UNL     1     -35.789  20.938   2.777  0.00  0.00    +0.097 C 
ATOM      7  C   UNL     1     -34.948  22.044   6.151  0.00  0.00    +0.055 C 
ENDROOT
BRANCH   4   8
ATOM      8  O   UNL     1     -36.399  24.246   5.099  0.00  0.00    -0.505 OA
ATOM      9  H   UNL     1     -37.056  24.876   4.877  0.00  0.00    +0.292 HD
ENDBRANCH   4   8
BRANCH   2  10
ATOM     10  C   UNL     1     -37.473  24.284   2.470  0.00  0.00    +0.119 C 
BRANCH  10  12
ATOM     11  O   UNL     1     -38.275  26.964   1.777  0.00  0.00    -0.274 OA
ATOM     12  N   UNL     1     -36.623  25.448   2.382  0.00  0.00    -0.300 N 
ATOM     13  C   UNL     1     -37.103  26.701   2.039  0.00  0.00    +0.234 C 
ATOM     14  H   UNL     1     -35.662  25.347   2.573  0.00  0.00    +0.150 HD
BRANCH  13  16
ATOM     15 BR   UNL     1     -34.658  27.189   3.250  0.00  0.00    -0.070 Br
ATOM     16  C   UNL     1     -36.025  27.750   1.996  0.00  0.00    +0.152 C 
ENDBRANCH  13  16
ENDBRANCH  10  12
ENDBRANCH   2  10
BRANCH   3  17
ATOM     17  C   UNL     1     -37.017  21.892   0.832  0.00  0.00    +0.181 C 
BRANCH  17  18
ATOM     18  O   UNL     1     -38.031  20.896   0.769  0.00  0.00    -0.268 OA
BRANCH  18  19
ATOM     19  P   UNL     1     -39.572  21.375   0.678  0.00  0.00    +0.473 P 
ATOM     20  O   UNL     1     -39.772  22.791   0.224  0.00  0.00    -0.227 OA
BRANCH  19  21
ATOM     21  O   UNL     1     -40.171  21.025   2.140  0.00  0.00    -0.303 OA
ATOM     22  H   UNL     1     -41.097  20.750   2.052  0.00  0.00    +0.222 HD
ENDBRANCH  19  21
BRANCH  19  23
ATOM     23  O   UNL     1     -40.239  20.251  -0.275  0.00  0.00    -0.303 OA
ATOM     24  H   UNL     1     -39.539  19.728  -0.696  0.00  0.00    +0.222 HD
ENDBRANCH  19  23
ENDBRANCH  18  19
ENDBRANCH  17  18
ENDBRANCH   3  17
TORSDOF 9
ENDMDL
MODEL 7
REMARK VINA RESULT:      -5.2      3.316      5.697
REMARK  Name = 194263
REMARK  9 active torsions:
REMARK  status: ('A' for Active; 'I' for Inactive)
REMARK    1  A    between atoms: C_2  and  C_10
REMARK    2  A    between atoms: C_3  and  C_17
REMARK    3  A    between atoms: C_4  and  O_8
REMARK    4  A    between atoms: C_10  and  N_12
REMARK    5  A    between atoms: C_13  and  C_16
REMARK    6  A    between atoms: C_17  and  O_18
REMARK    7  A    between atoms: O_18  and  P_19
REMARK    8  A    between atoms: P_19  and  O_21
REMARK    9  A    between atoms: P_19  and  O_23
REMARK                            x       y       z     vdW  Elec       q    Type
REMARK                         _______ _______ _______ _____ _____    ______ ____
ROOT
ATOM      1  N   UNL     1     -38.751  23.704   2.573  0.00  0.00    -0.245 NA
ATOM      2  C   UNL     1     -36.395  24.112   4.004  0.00  0.00    +0.032 C 
ATOM      3  C   UNL     1     -36.619  22.895   3.380  0.00  0.00    +0.028 C 
ATOM      4  C   UNL     1     -37.335  25.128   3.920  0.00  0.00    +0.144 C 
ATOM      5  C   UNL     1     -38.489  24.875   3.197  0.00  0.00    +0.093 C 
ATOM      6  C   UNL     1     -37.806  22.742   2.682  0.00  0.00    +0.097 C 
ATOM      7  C   UNL     1     -39.540  25.929   3.071  0.00  0.00    +0.055 C 
ENDROOT
BRANCH   4   8
ATOM      8  O   UNL     1     -37.133  26.329   4.524  0.00  0.00    -0.505 OA
ATOM      9  H   UNL     1     -36.576  26.966   4.123  0.00  0.00    +0.292 HD
ENDBRANCH   4   8
BRANCH   2  10
ATOM     10  C   UNL     1     -35.124  24.337   4.777  0.00  0.00    +0.119 C 
BRANCH  10  12
ATOM     11  O   UNL     1     -34.186  27.025   5.228  0.00  0.00    -0.274 OA
ATOM     12  N   UNL     1     -34.167  25.066   3.978  0.00  0.00    -0.300 N 
ATOM     13  C   UNL     1     -33.777  26.362   4.276  0.00  0.00    +0.234 C 
ATOM     14  H   UNL     1     -33.778  24.625   3.188  0.00  0.00    +0.150 HD
BRANCH  13  16
ATOM     15 BR   UNL     1     -32.842  25.754   1.739  0.00  0.00    -0.070 Br
ATOM     16  C   UNL     1     -32.788  26.917   3.288  0.00  0.00    +0.152 C 
ENDBRANCH  13  16
ENDBRANCH  10  12
ENDBRANCH   2  10
BRANCH   3  17
ATOM     17  C   UNL     1     -35.639  21.776   3.441  0.00  0.00    +0.181 C 
BRANCH  17  18
ATOM     18  O   UNL     1     -35.119  21.529   2.140  0.00  0.00    -0.268 OA
BRANCH  18  19
ATOM     19  P   UNL     1     -35.444  20.109   1.440  0.00  0.00    +0.473 P 
ATOM     20  O   UNL     1     -35.706  20.172  -0.036  0.00  0.00    -0.227 OA
BRANCH  19  21
ATOM     21  O   UNL     1     -36.652  19.508   2.332  0.00  0.00    -0.303 OA
ATOM     22  H   UNL     1     -36.318  19.267   3.210  0.00  0.00    +0.222 HD
ENDBRANCH  19  21
BRANCH  19  23
ATOM     23  O   UNL     1     -34.177  19.201   1.871  0.00  0.00    -0.303 OA
ATOM     24  H   UNL     1     -34.474  18.492   2.463  0.00  0.00    +0.222 HD
ENDBRANCH  19  23
ENDBRANCH  18  19
ENDBRANCH  17  18
ENDBRANCH   3  17
TORSDOF 9
ENDMDL
MODEL 8
REMARK VINA RESULT:      -5.1      2.432      2.890
REMARK  Name = 194263
REMARK  9 active torsions:
REMARK  status: ('A' for Active; 'I' for Inactive)
REMARK    1  A    between atoms: C_2  and  C_10
REMARK    2  A    between atoms: C_3  and  C_17
REMARK    3  A    between atoms: C_4  and  O_8
REMARK    4  A    between atoms: C_10  and  N_12
REMARK    5  A    between atoms: C_13  and  C_16
REMARK    6  A    between atoms: C_17  and  O_18
REMARK    7  A    between atoms: O_18  and  P_19
REMARK    8  A    between atoms: P_19  and  O_21
REMARK    9  A    between atoms: P_19  and  O_23
REMARK                            x       y       z     vdW  Elec       q    Type
REMARK                         _______ _______ _______ _____ _____    ______ ____
ROOT
ATOM      1  N   UNL     1     -36.241  24.255   3.536  0.00  0.00    -0.245 NA
ATOM      2  C   UNL     1     -36.321  21.613   2.652  0.00  0.00    +0.032 C 
ATOM      3  C   UNL     1     -36.875  22.617   1.873  0.00  0.00    +0.028 C 
ATOM      4  C   UNL     1     -35.727  21.916   3.867  0.00  0.00    +0.144 C 
ATOM      5  C   UNL     1     -35.713  23.244   4.261  0.00  0.00    +0.093 C 
ATOM      6  C   UNL     1     -36.810  23.914   2.357  0.00  0.00    +0.097 C 
ATOM      7  C   UNL     1     -35.088  23.633   5.562  0.00  0.00    +0.055 C 
ENDROOT
BRANCH   4   8
ATOM      8  O   UNL     1     -35.177  20.946   4.646  0.00  0.00    -0.505 OA
ATOM      9  H   UNL     1     -34.785  20.194   4.248  0.00  0.00    +0.292 HD
ENDBRANCH   4   8
BRANCH   2  10
ATOM     10  C   UNL     1     -36.362  20.186   2.178  0.00  0.00    +0.119 C 
BRANCH  10  12
ATOM     11  O   UNL     1     -35.373  19.109  -0.306  0.00  0.00    -0.274 OA
ATOM     12  N   UNL     1     -35.027  19.702   1.913  0.00  0.00    -0.300 N 
ATOM     13  C   UNL     1     -34.645  19.200   0.681  0.00  0.00    +0.234 C 
ATOM     14  H   UNL     1     -34.363  19.729   2.639  0.00  0.00    +0.150 HD
BRANCH  13  16
ATOM     15 BR   UNL     1     -32.156  20.257   0.074  0.00  0.00    -0.070 Br
ATOM     16  C   UNL     1     -33.213  18.740   0.655  0.00  0.00    +0.152 C 
ENDBRANCH  13  16
ENDBRANCH  10  12
ENDBRANCH   2  10
BRANCH   3  17
ATOM     17  C   UNL     1     -37.523  22.342   0.561  0.00  0.00    +0.181 C 
BRANCH  17  18
ATOM     18  O   UNL     1     -38.916  22.620   0.650  0.00  0.00    -0.268 OA
BRANCH  18  19
ATOM     19  P   UNL     1     -39.944  21.375   0.706  0.00  0.00    +0.473 P 
ATOM     20  O   UNL     1     -41.222  21.570  -0.056  0.00  0.00    -0.227 OA
BRANCH  19  21
ATOM     21  O   UNL     1     -40.119  21.090   2.289  0.00  0.00    -0.303 OA
ATOM     22  H   UNL     1     -41.057  20.947   2.490  0.00  0.00    +0.222 HD
ENDBRANCH  19  21
BRANCH  19  23
ATOM     23  O   UNL     1     -39.033  20.137   0.204  0.00  0.00    -0.303 OA
ATOM     24  H   UNL     1     -38.526  20.405  -0.578  0.00  0.00    +0.222 HD
ENDBRANCH  19  23
ENDBRANCH  18  19
ENDBRANCH  17  18
ENDBRANCH   3  17
TORSDOF 9
ENDMDL
MODEL 9
REMARK VINA RESULT:      -5.0      2.884      4.157
REMARK  Name = 194263
REMARK  9 active torsions:
REMARK  status: ('A' for Active; 'I' for Inactive)
REMARK    1  A    between atoms: C_2  and  C_10
REMARK    2  A    between atoms: C_3  and  C_17
REMARK    3  A    between atoms: C_4  and  O_8
REMARK    4  A    between atoms: C_10  and  N_12
REMARK    5  A    between atoms: C_13  and  C_16
REMARK    6  A    between atoms: C_17  and  O_18
REMARK    7  A    between atoms: O_18  and  P_19
REMARK    8  A    between atoms: P_19  and  O_21
REMARK    9  A    between atoms: P_19  and  O_23
REMARK                            x       y       z     vdW  Elec       q    Type
REMARK                         _______ _______ _______ _____ _____    ______ ____
ROOT
ATOM      1  N   UNL     1     -34.605  27.973   2.070  0.00  0.00    -0.245 NA
ATOM      2  C   UNL     1     -35.957  26.235   3.779  0.00  0.00    +0.032 C 
ATOM      3  C   UNL     1     -36.460  26.484   2.512  0.00  0.00    +0.028 C 
ATOM      4  C   UNL     1     -34.785  26.845   4.201  0.00  0.00    +0.144 C 
ATOM      5  C   UNL     1     -34.151  27.700   3.314  0.00  0.00    +0.093 C 
ATOM      6  C   UNL     1     -35.751  27.356   1.701  0.00  0.00    +0.097 C 
ATOM      7  C   UNL     1     -32.886  28.387   3.711  0.00  0.00    +0.055 C 
ENDROOT
BRANCH   4   8
ATOM      8  O   UNL     1     -34.275  26.613   5.440  0.00  0.00    -0.505 OA
ATOM      9  H   UNL     1     -34.092  27.332   6.012  0.00  0.00    +0.292 HD
ENDBRANCH   4   8
BRANCH   2  10
ATOM     10  C   UNL     1     -36.683  25.298   4.704  0.00  0.00    +0.119 C 
BRANCH  10  12
ATOM     11  O   UNL     1     -37.444  22.873   3.344  0.00  0.00    -0.274 OA
ATOM     12  N   UNL     1     -36.008  24.022   4.764  0.00  0.00    -0.300 N 
ATOM     13  C   UNL     1     -36.453  22.908   4.071  0.00  0.00    +0.234 C 
ATOM     14  H   UNL     1     -35.200  23.941   5.321  0.00  0.00    +0.150 HD
BRANCH  13  16
ATOM     15 BR   UNL     1     -34.967  21.807   6.136  0.00  0.00    -0.070 Br
ATOM     16  C   UNL     1     -35.598  21.693   4.307  0.00  0.00    +0.152 C 
ENDBRANCH  13  16
ENDBRANCH  10  12
ENDBRANCH   2  10
BRANCH   3  17
ATOM     17  C   UNL     1     -37.713  25.853   2.014  0.00  0.00    +0.181 C 
BRANCH  17  18
ATOM     18  O   UNL     1     -38.823  26.683   2.333  0.00  0.00    -0.268 OA
BRANCH  18  19
ATOM     19  P   UNL     1     -40.196  25.978   2.811  0.00  0.00    +0.473 P 
ATOM     20  O   UNL     1     -41.223  26.909   3.387  0.00  0.00    -0.227 OA
BRANCH  19  21
ATOM     21  O   UNL     1     -39.699  24.798   3.800  0.00  0.00    -0.303 OA
ATOM     22  H   UNL     1     -39.891  25.045   4.719  0.00  0.00    +0.222 HD
ENDBRANCH  19  21
BRANCH  19  23
ATOM     23  O   UNL     1     -40.666  25.178   1.486  0.00  0.00    -0.303 OA
ATOM     24  H   UNL     1     -41.394  24.578   1.713  0.00  0.00    +0.222 HD
ENDBRANCH  19  23
ENDBRANCH  18  19
ENDBRANCH  17  18
ENDBRANCH   3  17
TORSDOF 9
ENDMDL
