MODEL 1
REMARK VINA RESULT:      -7.3      0.000      0.000
REMARK  Name = 5315126
REMARK  8 active torsions:
REMARK  status: ('A' for Active; 'I' for Inactive)
REMARK    1  A    between atoms: C_3  and  C_12
REMARK    2  A    between atoms: C_6  and  O_27
REMARK    3  A    between atoms: C_8  and  O_29
REMARK    4  A    between atoms: C_10  and  O_31
REMARK    5  A    between atoms: C_13  and  C_22
REMARK    6  A    between atoms: C_15  and  O_18
REMARK    7  A    between atoms: C_17  and  O_20
REMARK    8  A    between atoms: C_22  and  C_23
REMARK                            x       y       z     vdW  Elec       q    Type
REMARK                         _______ _______ _______ _____ _____    ______ ____
ROOT
ATOM      1  O   UNL     1     -33.438  26.207   4.877  0.00  0.00    -0.450 OA
ATOM      2  O   UNL     1     -34.040  29.040   2.012  0.00  0.00    -0.283 OA
ATOM      3  C   UNL     1     -34.151  25.927   3.723  0.00  0.00    +0.182 A 
ATOM      4  C   UNL     1     -33.087  28.476   4.094  0.00  0.00    +0.110 A 
ATOM      5  C   UNL     1     -32.919  27.465   5.037  0.00  0.00    +0.155 A 
ATOM      6  C   UNL     1     -34.394  26.815   2.741  0.00  0.00    +0.208 A 
ATOM      7  C   UNL     1     -33.854  28.189   2.873  0.00  0.00    +0.238 A 
ATOM      8  C   UNL     1     -32.535  29.742   4.311  0.00  0.00    +0.143 C 
ATOM      9  C   UNL     1     -32.196  27.711   6.205  0.00  0.00    +0.074 C 
ATOM     10  C   UNL     1     -31.644  28.974   6.424  0.00  0.00    +0.140 C 
ATOM     11  C   UNL     1     -31.813  29.987   5.479  0.00  0.00    +0.073 C 
ENDROOT
BRANCH   3  12
ATOM     12  C   UNL     1     -34.653  24.542   3.678  0.00  0.00    +0.041 C 
ATOM     13  C   UNL     1     -35.177  22.544   2.423  0.00  0.00    +0.019 C 
ATOM     14  C   UNL     1     -34.701  23.855   2.465  0.00  0.00    +0.002 C 
ATOM     15  C   UNL     1     -35.606  21.920   3.595  0.00  0.00    +0.164 C 
ATOM     16  C   UNL     1     -35.082  23.917   4.849  0.00  0.00    +0.043 C 
ATOM     17  C   UNL     1     -35.558  22.607   4.808  0.00  0.00    +0.167 C 
BRANCH  15  18
ATOM     18  O   UNL     1     -36.071  20.639   3.558  0.00  0.00    -0.503 OA
ATOM     19  H   UNL     1     -36.606  20.315   4.255  0.00  0.00    +0.292 HD
ENDBRANCH  15  18
BRANCH  17  20
ATOM     20  O   UNL     1     -35.973  22.010   5.960  0.00  0.00    -0.503 OA
ATOM     21  H   UNL     1     -36.731  21.459   5.956  0.00  0.00    +0.292 HD
ENDBRANCH  17  20
BRANCH  13  22
ATOM     22  C   UNL     1     -35.220  21.824   1.116  0.00  0.00    +0.055 C 
BRANCH  22  23
ATOM     23  C   UNL     1     -33.849  21.508   0.574  0.00  0.00    -0.030 C 
ATOM     24  C   UNL     1     -33.164  20.352   0.671  0.00  0.00    -0.048 C 
ATOM     25  C   UNL     1     -31.794  20.105   0.106  0.00  0.00    +0.026 C 
ATOM     26  C   UNL     1     -33.757  19.174   1.400  0.00  0.00    +0.026 C 
ENDBRANCH  22  23
ENDBRANCH  13  22
ENDBRANCH   3  12
BRANCH   6  27
ATOM     27  O   UNL     1     -35.135  26.514   1.619  0.00  0.00    -0.501 OA
ATOM     28  H   UNL     1     -34.847  25.841   1.035  0.00  0.00    +0.292 HD
ENDBRANCH   6  27
BRANCH   8  29
ATOM     29  O   UNL     1     -32.670  30.765   3.422  0.00  0.00    -0.505 OA
ATOM     30  H   UNL     1     -32.064  31.480   3.436  0.00  0.00    +0.292 HD
ENDBRANCH   8  29
BRANCH  10  31
ATOM     31  O   UNL     1     -30.939  29.218   7.563  0.00  0.00    -0.505 OA
ATOM     32  H   UNL     1     -30.356  29.950   7.606  0.00  0.00    +0.292 HD
ENDBRANCH  10  31
TORSDOF 8
ENDMDL
MODEL 2
REMARK VINA RESULT:      -7.1      1.566      3.246
REMARK  Name = 5315126
REMARK  8 active torsions:
REMARK  status: ('A' for Active; 'I' for Inactive)
REMARK    1  A    between atoms: C_3  and  C_12
REMARK    2  A    between atoms: C_6  and  O_27
REMARK    3  A    between atoms: C_8  and  O_29
REMARK    4  A    between atoms: C_10  and  O_31
REMARK    5  A    between atoms: C_13  and  C_22
REMARK    6  A    between atoms: C_15  and  O_18
REMARK    7  A    between atoms: C_17  and  O_20
REMARK    8  A    between atoms: C_22  and  C_23
REMARK                            x       y       z     vdW  Elec       q    Type
REMARK                         _______ _______ _______ _____ _____    ______ ____
ROOT
ATOM      1  O   UNL     1     -35.719  26.542   2.322  0.00  0.00    -0.450 OA
ATOM      2  O   UNL     1     -32.910  28.572   4.464  0.00  0.00    -0.283 OA
ATOM      3  C   UNL     1     -34.896  25.895   3.230  0.00  0.00    +0.182 A 
ATOM      4  C   UNL     1     -34.643  28.647   2.867  0.00  0.00    +0.110 A 
ATOM      5  C   UNL     1     -35.581  27.896   2.163  0.00  0.00    +0.155 A 
ATOM      6  C   UNL     1     -33.945  26.501   3.964  0.00  0.00    +0.208 A 
ATOM      7  C   UNL     1     -33.758  27.965   3.823  0.00  0.00    +0.238 A 
ATOM      8  C   UNL     1     -34.547  30.026   2.663  0.00  0.00    +0.143 C 
ATOM      9  C   UNL     1     -36.432  28.519   1.249  0.00  0.00    +0.074 C 
ATOM     10  C   UNL     1     -36.340  29.896   1.044  0.00  0.00    +0.140 C 
ATOM     11  C   UNL     1     -35.399  30.648   1.749  0.00  0.00    +0.073 C 
ENDROOT
BRANCH   3  12
ATOM     12  C   UNL     1     -35.146  24.445   3.303  0.00  0.00    +0.041 C 
ATOM     13  C   UNL     1     -35.312  22.292   2.218  0.00  0.00    +0.019 C 
ATOM     14  C   UNL     1     -35.073  23.664   2.149  0.00  0.00    +0.002 C 
ATOM     15  C   UNL     1     -35.622  21.699   3.442  0.00  0.00    +0.164 C 
ATOM     16  C   UNL     1     -35.458  23.851   4.525  0.00  0.00    +0.043 C 
ATOM     17  C   UNL     1     -35.695  22.478   4.595  0.00  0.00    +0.167 C 
BRANCH  15  18
ATOM     18  O   UNL     1     -35.855  20.357   3.514  0.00  0.00    -0.503 OA
ATOM     19  H   UNL     1     -36.413  20.013   4.183  0.00  0.00    +0.292 HD
ENDBRANCH  15  18
BRANCH  17  20
ATOM     20  O   UNL     1     -35.997  21.912   5.798  0.00  0.00    -0.503 OA
ATOM     21  H   UNL     1     -36.325  22.443   6.496  0.00  0.00    +0.292 HD
ENDBRANCH  17  20
BRANCH  13  22
ATOM     22  C   UNL     1     -35.229  21.472   0.972  0.00  0.00    +0.055 C 
BRANCH  22  23
ATOM     23  C   UNL     1     -33.813  21.281   0.489  0.00  0.00    -0.030 C 
ATOM     24  C   UNL     1     -33.027  20.196   0.630  0.00  0.00    -0.048 C 
ATOM     25  C   UNL     1     -31.619  20.073   0.122  0.00  0.00    +0.026 C 
ATOM     26  C   UNL     1     -33.534  18.976   1.354  0.00  0.00    +0.026 C 
ENDBRANCH  22  23
ENDBRANCH  13  22
ENDBRANCH   3  12
BRANCH   6  27
ATOM     27  O   UNL     1     -33.120  25.824   4.836  0.00  0.00    -0.501 OA
ATOM     28  H   UNL     1     -32.190  25.865   4.728  0.00  0.00    +0.292 HD
ENDBRANCH   6  27
BRANCH   8  29
ATOM     29  O   UNL     1     -33.648  30.807   3.324  0.00  0.00    -0.505 OA
ATOM     30  H   UNL     1     -32.806  30.463   3.549  0.00  0.00    +0.292 HD
ENDBRANCH   8  29
BRANCH  10  31
ATOM     31  O   UNL     1     -37.168  30.506   0.152  0.00  0.00    -0.505 OA
ATOM     32  H   UNL     1     -37.152  31.439   0.060  0.00  0.00    +0.292 HD
ENDBRANCH  10  31
TORSDOF 8
ENDMDL
MODEL 3
REMARK VINA RESULT:      -7.0      1.788      3.492
REMARK  Name = 5315126
REMARK  8 active torsions:
REMARK  status: ('A' for Active; 'I' for Inactive)
REMARK    1  A    between atoms: C_3  and  C_12
REMARK    2  A    between atoms: C_6  and  O_27
REMARK    3  A    between atoms: C_8  and  O_29
REMARK    4  A    between atoms: C_10  and  O_31
REMARK    5  A    between atoms: C_13  and  C_22
REMARK    6  A    between atoms: C_15  and  O_18
REMARK    7  A    between atoms: C_17  and  O_20
REMARK    8  A    between atoms: C_22  and  C_23
REMARK                            x       y       z     vdW  Elec       q    Type
REMARK                         _______ _______ _______ _____ _____    ______ ____
ROOT
ATOM      1  O   UNL     1     -34.646  24.886   2.068  0.00  0.00    -0.450 OA
ATOM      2  O   UNL     1     -33.689  25.814   5.918  0.00  0.00    -0.283 OA
ATOM      3  C   UNL     1     -34.860  23.989   3.103  0.00  0.00    +0.182 A 
ATOM      4  C   UNL     1     -33.767  26.492   3.661  0.00  0.00    +0.110 A 
ATOM      5  C   UNL     1     -34.112  26.112   2.365  0.00  0.00    +0.155 A 
ATOM      6  C   UNL     1     -34.562  24.227   4.393  0.00  0.00    +0.208 A 
ATOM      7  C   UNL     1     -33.979  25.539   4.761  0.00  0.00    +0.238 A 
ATOM      8  C   UNL     1     -33.224  27.756   3.904  0.00  0.00    +0.143 C 
ATOM      9  C   UNL     1     -33.919  26.996   1.303  0.00  0.00    +0.074 C 
ATOM     10  C   UNL     1     -33.378  28.260   1.543  0.00  0.00    +0.140 C 
ATOM     11  C   UNL     1     -33.032  28.640   2.841  0.00  0.00    +0.073 C 
ENDROOT
BRANCH   3  12
ATOM     12  C   UNL     1     -35.436  22.712   2.647  0.00  0.00    +0.041 C 
ATOM     13  C   UNL     1     -35.146  20.479   1.768  0.00  0.00    +0.019 C 
ATOM     14  C   UNL     1     -34.600  21.688   2.200  0.00  0.00    +0.002 C 
ATOM     15  C   UNL     1     -36.528  20.293   1.783  0.00  0.00    +0.164 C 
ATOM     16  C   UNL     1     -36.818  22.525   2.661  0.00  0.00    +0.043 C 
ATOM     17  C   UNL     1     -37.364  21.316   2.229  0.00  0.00    +0.167 C 
BRANCH  15  18
ATOM     18  O   UNL     1     -37.066  19.113   1.362  0.00  0.00    -0.503 OA
ATOM     19  H   UNL     1     -36.584  18.559   0.781  0.00  0.00    +0.292 HD
ENDBRANCH  15  18
BRANCH  17  20
ATOM     20  O   UNL     1     -38.716  21.148   2.250  0.00  0.00    -0.503 OA
ATOM     21  H   UNL     1     -39.220  21.487   2.963  0.00  0.00    +0.292 HD
ENDBRANCH  17  20
BRANCH  13  22
ATOM     22  C   UNL     1     -34.235  19.394   1.294  0.00  0.00    +0.055 C 
BRANCH  22  23
ATOM     23  C   UNL     1     -33.024  19.921   0.566  0.00  0.00    -0.030 C 
ATOM     24  C   UNL     1     -31.810  19.348   0.451  0.00  0.00    -0.048 C 
ATOM     25  C   UNL     1     -30.642  19.932  -0.291  0.00  0.00    +0.026 C 
ATOM     26  C   UNL     1     -31.530  18.019   1.103  0.00  0.00    +0.026 C 
ENDBRANCH  22  23
ENDBRANCH  13  22
ENDBRANCH   3  12
BRANCH   6  27
ATOM     27  O   UNL     1     -34.758  23.301   5.395  0.00  0.00    -0.501 OA
ATOM     28  H   UNL     1     -34.049  23.065   5.958  0.00  0.00    +0.292 HD
ENDBRANCH   6  27
BRANCH   8  29
ATOM     29  O   UNL     1     -32.869  28.177   5.150  0.00  0.00    -0.505 OA
ATOM     30  H   UNL     1     -31.963  28.272   5.372  0.00  0.00    +0.292 HD
ENDBRANCH   8  29
BRANCH  10  31
ATOM     31  O   UNL     1     -33.187  29.125   0.509  0.00  0.00    -0.505 OA
ATOM     32  H   UNL     1     -32.737  28.841  -0.262  0.00  0.00    +0.292 HD
ENDBRANCH  10  31
TORSDOF 8
ENDMDL
MODEL 4
REMARK VINA RESULT:      -6.9      1.771      3.025
REMARK  Name = 5315126
REMARK  8 active torsions:
REMARK  status: ('A' for Active; 'I' for Inactive)
REMARK    1  A    between atoms: C_3  and  C_12
REMARK    2  A    between atoms: C_6  and  O_27
REMARK    3  A    between atoms: C_8  and  O_29
REMARK    4  A    between atoms: C_10  and  O_31
REMARK    5  A    between atoms: C_13  and  C_22
REMARK    6  A    between atoms: C_15  and  O_18
REMARK    7  A    between atoms: C_17  and  O_20
REMARK    8  A    between atoms: C_22  and  C_23
REMARK                            x       y       z     vdW  Elec       q    Type
REMARK                         _______ _______ _______ _____ _____    ______ ____
ROOT
ATOM      1  O   UNL     1     -34.461  25.679   2.639  0.00  0.00    -0.450 OA
ATOM      2  O   UNL     1     -33.711  26.519   6.555  0.00  0.00    -0.283 OA
ATOM      3  C   UNL     1     -34.977  24.895   3.658  0.00  0.00    +0.182 A 
ATOM      4  C   UNL     1     -33.404  27.107   4.292  0.00  0.00    +0.110 A 
ATOM      5  C   UNL     1     -33.695  26.764   2.973  0.00  0.00    +0.155 A 
ATOM      6  C   UNL     1     -34.764  25.110   4.969  0.00  0.00    +0.208 A 
ATOM      7  C   UNL     1     -33.938  26.271   5.378  0.00  0.00    +0.238 A 
ATOM      8  C   UNL     1     -32.615  28.226   4.573  0.00  0.00    +0.143 C 
ATOM      9  C   UNL     1     -33.199  27.540   1.925  0.00  0.00    +0.074 C 
ATOM     10  C   UNL     1     -32.411  28.658   2.202  0.00  0.00    +0.140 C 
ATOM     11  C   UNL     1     -32.121  29.001   3.523  0.00  0.00    +0.073 C 
ENDROOT
BRANCH   3  12
ATOM     12  C   UNL     1     -35.780  23.763   3.163  0.00  0.00    +0.041 C 
ATOM     13  C   UNL     1     -35.913  21.510   2.297  0.00  0.00    +0.019 C 
ATOM     14  C   UNL     1     -35.153  22.581   2.767  0.00  0.00    +0.002 C 
ATOM     15  C   UNL     1     -37.302  21.620   2.224  0.00  0.00    +0.164 C 
ATOM     16  C   UNL     1     -37.169  23.871   3.089  0.00  0.00    +0.043 C 
ATOM     17  C   UNL     1     -37.930  22.801   2.620  0.00  0.00    +0.167 C 
BRANCH  15  18
ATOM     18  O   UNL     1     -38.049  20.575   1.766  0.00  0.00    -0.503 OA
ATOM     19  H   UNL     1     -37.630  19.784   1.491  0.00  0.00    +0.292 HD
ENDBRANCH  15  18
BRANCH  17  20
ATOM     20  O   UNL     1     -39.285  22.921   2.555  0.00  0.00    -0.503 OA
ATOM     21  H   UNL     1     -39.786  23.015   3.341  0.00  0.00    +0.292 HD
ENDBRANCH  17  20
BRANCH  13  22
ATOM     22  C   UNL     1     -35.224  20.253   1.878  0.00  0.00    +0.055 C 
BRANCH  22  23
ATOM     23  C   UNL     1     -34.020  20.507   1.007  0.00  0.00    -0.030 C 
ATOM     24  C   UNL     1     -32.955  19.705   0.808  0.00  0.00    -0.048 C 
ATOM     25  C   UNL     1     -31.784  20.023  -0.078  0.00  0.00    +0.026 C 
ATOM     26  C   UNL     1     -32.863  18.374   1.506  0.00  0.00    +0.026 C 
ENDBRANCH  22  23
ENDBRANCH  13  22
ENDBRANCH   3  12
BRANCH   6  27
ATOM     27  O   UNL     1     -35.266  24.292   5.959  0.00  0.00    -0.501 OA
ATOM     28  H   UNL     1     -35.295  23.365   5.829  0.00  0.00    +0.292 HD
ENDBRANCH   6  27
BRANCH   8  29
ATOM     29  O   UNL     1     -32.302  28.604   5.843  0.00  0.00    -0.505 OA
ATOM     30  H   UNL     1     -31.648  28.134   6.324  0.00  0.00    +0.292 HD
ENDBRANCH   8  29
BRANCH  10  31
ATOM     31  O   UNL     1     -31.926  29.416   1.181  0.00  0.00    -0.505 OA
ATOM     32  H   UNL     1     -32.018  29.125   0.295  0.00  0.00    +0.292 HD
ENDBRANCH  10  31
TORSDOF 8
ENDMDL
MODEL 5
REMARK VINA RESULT:      -6.9      1.500      1.510
REMARK  Name = 5315126
REMARK  8 active torsions:
REMARK  status: ('A' for Active; 'I' for Inactive)
REMARK    1  A    between atoms: C_3  and  C_12
REMARK    2  A    between atoms: C_6  and  O_27
REMARK    3  A    between atoms: C_8  and  O_29
REMARK    4  A    between atoms: C_10  and  O_31
REMARK    5  A    between atoms: C_13  and  C_22
REMARK    6  A    between atoms: C_15  and  O_18
REMARK    7  A    between atoms: C_17  and  O_20
REMARK    8  A    between atoms: C_22  and  C_23
REMARK                            x       y       z     vdW  Elec       q    Type
REMARK                         _______ _______ _______ _____ _____    ______ ____
ROOT
ATOM      1  O   UNL     1     -32.920  26.128   3.426  0.00  0.00    -0.450 OA
ATOM      2  O   UNL     1     -35.330  29.392   3.050  0.00  0.00    -0.283 OA
ATOM      3  C   UNL     1     -34.296  26.002   3.319  0.00  0.00    +0.182 A 
ATOM      4  C   UNL     1     -33.142  28.539   3.259  0.00  0.00    +0.110 A 
ATOM      5  C   UNL     1     -32.374  27.384   3.389  0.00  0.00    +0.155 A 
ATOM      6  C   UNL     1     -35.150  27.035   3.200  0.00  0.00    +0.208 A 
ATOM      7  C   UNL     1     -34.604  28.413   3.159  0.00  0.00    +0.238 A 
ATOM      8  C   UNL     1     -32.529  29.794   3.228  0.00  0.00    +0.143 C 
ATOM      9  C   UNL     1     -30.985  27.476   3.487  0.00  0.00    +0.074 C 
ATOM     10  C   UNL     1     -30.369  28.729   3.456  0.00  0.00    +0.140 C 
ATOM     11  C   UNL     1     -31.140  29.885   3.326  0.00  0.00    +0.073 C 
ENDROOT
BRANCH   3  12
ATOM     12  C   UNL     1     -34.752  24.602   3.374  0.00  0.00    +0.041 C 
ATOM     13  C   UNL     1     -35.197  22.500   2.269  0.00  0.00    +0.019 C 
ATOM     14  C   UNL     1     -34.765  23.825   2.216  0.00  0.00    +0.002 C 
ATOM     15  C   UNL     1     -35.616  21.951   3.481  0.00  0.00    +0.164 C 
ATOM     16  C   UNL     1     -35.172  24.052   4.585  0.00  0.00    +0.043 C 
ATOM     17  C   UNL     1     -35.604  22.727   4.639  0.00  0.00    +0.167 C 
BRANCH  15  18
ATOM     18  O   UNL     1     -36.039  20.656   3.536  0.00  0.00    -0.503 OA
ATOM     19  H   UNL     1     -36.025  20.124   2.766  0.00  0.00    +0.292 HD
ENDBRANCH  15  18
BRANCH  17  20
ATOM     20  O   UNL     1     -36.010  22.203   5.830  0.00  0.00    -0.503 OA
ATOM     21  H   UNL     1     -35.518  22.373   6.608  0.00  0.00    +0.292 HD
ENDBRANCH  17  20
BRANCH  13  22
ATOM     22  C   UNL     1     -35.204  21.683   1.018  0.00  0.00    +0.055 C 
BRANCH  22  23
ATOM     23  C   UNL     1     -33.818  21.396   0.498  0.00  0.00    -0.030 C 
ATOM     24  C   UNL     1     -33.090  20.272   0.650  0.00  0.00    -0.048 C 
ATOM     25  C   UNL     1     -31.708  20.054   0.103  0.00  0.00    +0.026 C 
ATOM     26  C   UNL     1     -33.641  19.107   1.428  0.00  0.00    +0.026 C 
ENDBRANCH  22  23
ENDBRANCH  13  22
ENDBRANCH   3  12
BRANCH   6  27
ATOM     27  O   UNL     1     -36.518  26.878   3.128  0.00  0.00    -0.501 OA
ATOM     28  H   UNL     1     -37.073  27.343   3.721  0.00  0.00    +0.292 HD
ENDBRANCH   6  27
BRANCH   8  29
ATOM     29  O   UNL     1     -33.233  30.953   3.103  0.00  0.00    -0.505 OA
ATOM     30  H   UNL     1     -33.513  31.416   3.869  0.00  0.00    +0.292 HD
ENDBRANCH   8  29
BRANCH  10  31
ATOM     31  O   UNL     1     -29.015  28.822   3.553  0.00  0.00    -0.505 OA
ATOM     32  H   UNL     1     -28.489  28.840   2.777  0.00  0.00    +0.292 HD
ENDBRANCH  10  31
TORSDOF 8
ENDMDL
MODEL 6
REMARK VINA RESULT:      -6.9      3.197      5.524
REMARK  Name = 5315126
REMARK  8 active torsions:
REMARK  status: ('A' for Active; 'I' for Inactive)
REMARK    1  A    between atoms: C_3  and  C_12
REMARK    2  A    between atoms: C_6  and  O_27
REMARK    3  A    between atoms: C_8  and  O_29
REMARK    4  A    between atoms: C_10  and  O_31
REMARK    5  A    between atoms: C_13  and  C_22
REMARK    6  A    between atoms: C_15  and  O_18
REMARK    7  A    between atoms: C_17  and  O_20
REMARK    8  A    between atoms: C_22  and  C_23
REMARK                            x       y       z     vdW  Elec       q    Type
REMARK                         _______ _______ _______ _____ _____    ______ ____
ROOT
ATOM      1  O   UNL     1     -35.664  22.985   1.698  0.00  0.00    -0.450 OA
ATOM      2  O   UNL     1     -35.986  23.217   5.753  0.00  0.00    -0.283 OA
ATOM      3  C   UNL     1     -35.573  21.856   2.496  0.00  0.00    +0.182 A 
ATOM      4  C   UNL     1     -36.002  24.342   3.680  0.00  0.00    +0.110 A 
ATOM      5  C   UNL     1     -35.880  24.196   2.300  0.00  0.00    +0.155 A 
ATOM      6  C   UNL     1     -35.663  21.861   3.838  0.00  0.00    +0.208 A 
ATOM      7  C   UNL     1     -35.894  23.150   4.534  0.00  0.00    +0.238 A 
ATOM      8  C   UNL     1     -36.221  25.604   4.239  0.00  0.00    +0.143 C 
ATOM      9  C   UNL     1     -35.978  25.313   1.468  0.00  0.00    +0.074 C 
ATOM     10  C   UNL     1     -36.197  26.574   2.024  0.00  0.00    +0.140 C 
ATOM     11  C   UNL     1     -36.319  26.719   3.407  0.00  0.00    +0.073 C 
ENDROOT
BRANCH   3  12
ATOM     12  C   UNL     1     -35.339  20.623   1.724  0.00  0.00    +0.041 C 
ATOM     13  C   UNL     1     -33.866  18.842   1.018  0.00  0.00    +0.019 C 
ATOM     14  C   UNL     1     -34.087  20.009   1.750  0.00  0.00    +0.002 C 
ATOM     15  C   UNL     1     -34.897  18.288   0.260  0.00  0.00    +0.164 C 
ATOM     16  C   UNL     1     -36.370  20.069   0.965  0.00  0.00    +0.043 C 
ATOM     17  C   UNL     1     -36.149  18.902   0.233  0.00  0.00    +0.167 C 
BRANCH  15  18
ATOM     18  O   UNL     1     -34.686  17.148  -0.456  0.00  0.00    -0.503 OA
ATOM     19  H   UNL     1     -34.827  16.312  -0.059  0.00  0.00    +0.292 HD
ENDBRANCH  15  18
BRANCH  17  20
ATOM     20  O   UNL     1     -37.166  18.372  -0.502  0.00  0.00    -0.503 OA
ATOM     21  H   UNL     1     -36.977  17.824  -1.238  0.00  0.00    +0.292 HD
ENDBRANCH  17  20
BRANCH  13  22
ATOM     22  C   UNL     1     -32.519  18.198   1.059  0.00  0.00    +0.055 C 
BRANCH  22  23
ATOM     23  C   UNL     1     -31.466  18.992   0.326  0.00  0.00    -0.030 C 
ATOM     24  C   UNL     1     -30.143  18.749   0.255  0.00  0.00    -0.048 C 
ATOM     25  C   UNL     1     -29.147  19.586  -0.496  0.00  0.00    +0.026 C 
ATOM     26  C   UNL     1     -29.546  17.566   0.971  0.00  0.00    +0.026 C 
ENDBRANCH  22  23
ENDBRANCH  13  22
ENDBRANCH   3  12
BRANCH   6  27
ATOM     27  O   UNL     1     -35.536  20.724   4.607  0.00  0.00    -0.501 OA
ATOM     28  H   UNL     1     -34.756  20.208   4.553  0.00  0.00    +0.292 HD
ENDBRANCH   6  27
BRANCH   8  29
ATOM     29  O   UNL     1     -36.348  25.802   5.581  0.00  0.00    -0.505 OA
ATOM     30  H   UNL     1     -36.552  25.080   6.143  0.00  0.00    +0.292 HD
ENDBRANCH   8  29
BRANCH  10  31
ATOM     31  O   UNL     1     -36.292  27.665   1.214  0.00  0.00    -0.505 OA
ATOM     32  H   UNL     1     -37.108  28.118   1.133  0.00  0.00    +0.292 HD
ENDBRANCH  10  31
TORSDOF 8
ENDMDL
MODEL 7
REMARK VINA RESULT:      -6.9      1.931      4.039
REMARK  Name = 5315126
REMARK  8 active torsions:
REMARK  status: ('A' for Active; 'I' for Inactive)
REMARK    1  A    between atoms: C_3  and  C_12
REMARK    2  A    between atoms: C_6  and  O_27
REMARK    3  A    between atoms: C_8  and  O_29
REMARK    4  A    between atoms: C_10  and  O_31
REMARK    5  A    between atoms: C_13  and  C_22
REMARK    6  A    between atoms: C_15  and  O_18
REMARK    7  A    between atoms: C_17  and  O_20
REMARK    8  A    between atoms: C_22  and  C_23
REMARK                            x       y       z     vdW  Elec       q    Type
REMARK                         _______ _______ _______ _____ _____    ______ ____
ROOT
ATOM      1  O   UNL     1     -34.795  24.025   2.227  0.00  0.00    -0.450 OA
ATOM      2  O   UNL     1     -35.020  24.472   6.270  0.00  0.00    -0.283 OA
ATOM      3  C   UNL     1     -35.446  23.095   3.022  0.00  0.00    +0.182 A 
ATOM      4  C   UNL     1     -34.277  25.332   4.204  0.00  0.00    +0.110 A 
ATOM      5  C   UNL     1     -34.232  25.119   2.828  0.00  0.00    +0.155 A 
ATOM      6  C   UNL     1     -35.552  23.176   4.361  0.00  0.00    +0.208 A 
ATOM      7  C   UNL     1     -34.955  24.342   5.055  0.00  0.00    +0.238 A 
ATOM      8  C   UNL     1     -33.683  26.467   4.762  0.00  0.00    +0.143 C 
ATOM      9  C   UNL     1     -33.593  26.043   1.999  0.00  0.00    +0.074 C 
ATOM     10  C   UNL     1     -33.000  27.178   2.554  0.00  0.00    +0.140 C 
ATOM     11  C   UNL     1     -33.045  27.390   3.932  0.00  0.00    +0.073 C 
ENDROOT
BRANCH   3  12
ATOM     12  C   UNL     1     -36.004  21.970   2.252  0.00  0.00    +0.041 C 
ATOM     13  C   UNL     1     -35.686  19.931   0.994  0.00  0.00    +0.019 C 
ATOM     14  C   UNL     1     -35.157  20.995   1.724  0.00  0.00    +0.002 C 
ATOM     15  C   UNL     1     -37.063  19.840   0.792  0.00  0.00    +0.164 C 
ATOM     16  C   UNL     1     -37.381  21.878   2.049  0.00  0.00    +0.043 C 
ATOM     17  C   UNL     1     -37.911  20.813   1.320  0.00  0.00    +0.167 C 
BRANCH  15  18
ATOM     18  O   UNL     1     -37.584  18.801   0.080  0.00  0.00    -0.503 OA
ATOM     19  H   UNL     1     -37.576  17.935   0.438  0.00  0.00    +0.292 HD
ENDBRANCH  15  18
BRANCH  17  20
ATOM     20  O   UNL     1     -39.258  20.737   1.131  0.00  0.00    -0.503 OA
ATOM     21  H   UNL     1     -39.655  19.916   0.918  0.00  0.00    +0.292 HD
ENDBRANCH  17  20
BRANCH  13  22
ATOM     22  C   UNL     1     -34.763  18.897   0.436  0.00  0.00    +0.055 C 
BRANCH  22  23
ATOM     23  C   UNL     1     -33.438  19.468  -0.003  0.00  0.00    -0.030 C 
ATOM     24  C   UNL     1     -32.205  19.112   0.406  0.00  0.00    -0.048 C 
ATOM     25  C   UNL     1     -30.921  19.728  -0.075  0.00  0.00    +0.026 C 
ATOM     26  C   UNL     1     -32.026  18.024   1.431  0.00  0.00    +0.026 C 
ENDBRANCH  22  23
ENDBRANCH  13  22
ENDBRANCH   3  12
BRANCH   6  27
ATOM     27  O   UNL     1     -36.179  22.217   5.127  0.00  0.00    -0.501 OA
ATOM     28  H   UNL     1     -36.370  22.390   6.027  0.00  0.00    +0.292 HD
ENDBRANCH   6  27
BRANCH   8  29
ATOM     29  O   UNL     1     -33.698  26.722   6.100  0.00  0.00    -0.505 OA
ATOM     30  H   UNL     1     -33.557  27.595   6.412  0.00  0.00    +0.292 HD
ENDBRANCH   8  29
BRANCH  10  31
ATOM     31  O   UNL     1     -32.376  28.080   1.747  0.00  0.00    -0.505 OA
ATOM     32  H   UNL     1     -31.617  28.535   2.053  0.00  0.00    +0.292 HD
ENDBRANCH  10  31
TORSDOF 8
ENDMDL
MODEL 8
REMARK VINA RESULT:      -6.8      2.258      7.878
REMARK  Name = 5315126
REMARK  8 active torsions:
REMARK  status: ('A' for Active; 'I' for Inactive)
REMARK    1  A    between atoms: C_3  and  C_12
REMARK    2  A    between atoms: C_6  and  O_27
REMARK    3  A    between atoms: C_8  and  O_29
REMARK    4  A    between atoms: C_10  and  O_31
REMARK    5  A    between atoms: C_13  and  C_22
REMARK    6  A    between atoms: C_15  and  O_18
REMARK    7  A    between atoms: C_17  and  O_20
REMARK    8  A    between atoms: C_22  and  C_23
REMARK                            x       y       z     vdW  Elec       q    Type
REMARK                         _______ _______ _______ _____ _____    ______ ____
ROOT
ATOM      1  O   UNL     1     -34.770  23.741   3.354  0.00  0.00    -0.450 OA
ATOM      2  O   UNL     1     -38.819  24.187   3.417  0.00  0.00    -0.283 OA
ATOM      3  C   UNL     1     -35.363  24.887   3.858  0.00  0.00    +0.182 A 
ATOM      4  C   UNL     1     -36.968  22.829   2.880  0.00  0.00    +0.110 A 
ATOM      5  C   UNL     1     -35.578  22.740   2.882  0.00  0.00    +0.155 A 
ATOM      6  C   UNL     1     -36.690  25.104   3.903  0.00  0.00    +0.208 A 
ATOM      7  C   UNL     1     -37.603  24.049   3.401  0.00  0.00    +0.238 A 
ATOM      8  C   UNL     1     -37.741  21.776   2.385  0.00  0.00    +0.143 C 
ATOM      9  C   UNL     1     -34.950  21.594   2.392  0.00  0.00    +0.074 C 
ATOM     10  C   UNL     1     -35.720  20.540   1.898  0.00  0.00    +0.140 C 
ATOM     11  C   UNL     1     -37.113  20.631   1.895  0.00  0.00    +0.073 C 
ENDROOT
BRANCH   3  12
ATOM     12  C   UNL     1     -34.384  25.882   4.329  0.00  0.00    +0.041 C 
ATOM     13  C   UNL     1     -32.852  27.694   3.869  0.00  0.00    +0.019 C 
ATOM     14  C   UNL     1     -33.780  26.753   3.422  0.00  0.00    +0.002 C 
ATOM     15  C   UNL     1     -32.528  27.765   5.224  0.00  0.00    +0.164 C 
ATOM     16  C   UNL     1     -34.059  25.954   5.684  0.00  0.00    +0.043 C 
ATOM     17  C   UNL     1     -33.131  26.895   6.131  0.00  0.00    +0.167 C 
BRANCH  15  18
ATOM     18  O   UNL     1     -31.622  28.684   5.664  0.00  0.00    -0.503 OA
ATOM     19  H   UNL     1     -30.706  28.535   5.543  0.00  0.00    +0.292 HD
ENDBRANCH  15  18
BRANCH  17  20
ATOM     20  O   UNL     1     -32.825  26.954   7.457  0.00  0.00    -0.503 OA
ATOM     21  H   UNL     1     -33.430  27.336   8.062  0.00  0.00    +0.292 HD
ENDBRANCH  17  20
BRANCH  13  22
ATOM     22  C   UNL     1     -32.216  28.618   2.883  0.00  0.00    +0.055 C 
BRANCH  22  23
ATOM     23  C   UNL     1     -33.129  29.742   2.459  0.00  0.00    -0.030 C 
ATOM     24  C   UNL     1     -33.052  31.045   2.794  0.00  0.00    -0.048 C 
ATOM     25  C   UNL     1     -34.001  32.115   2.334  0.00  0.00    +0.026 C 
ATOM     26  C   UNL     1     -31.960  31.534   3.708  0.00  0.00    +0.026 C 
ENDBRANCH  22  23
ENDBRANCH  13  22
ENDBRANCH   3  12
BRANCH   6  27
ATOM     27  O   UNL     1     -37.248  26.269   4.382  0.00  0.00    -0.501 OA
ATOM     28  H   UNL     1     -37.900  26.234   5.053  0.00  0.00    +0.292 HD
ENDBRANCH   6  27
BRANCH   8  29
ATOM     29  O   UNL     1     -39.103  21.812   2.358  0.00  0.00    -0.505 OA
ATOM     30  H   UNL     1     -39.590  21.694   3.151  0.00  0.00    +0.292 HD
ENDBRANCH   8  29
BRANCH  10  31
ATOM     31  O   UNL     1     -35.111  19.421   1.418  0.00  0.00    -0.505 OA
ATOM     32  H   UNL     1     -34.176  19.380   1.370  0.00  0.00    +0.292 HD
ENDBRANCH  10  31
TORSDOF 8
ENDMDL
MODEL 9
REMARK VINA RESULT:      -6.7      6.487      9.077
REMARK  Name = 5315126
REMARK  8 active torsions:
REMARK  status: ('A' for Active; 'I' for Inactive)
REMARK    1  A    between atoms: C_3  and  C_12
REMARK    2  A    between atoms: C_6  and  O_27
REMARK    3  A    between atoms: C_8  and  O_29
REMARK    4  A    between atoms: C_10  and  O_31
REMARK    5  A    between atoms: C_13  and  C_22
REMARK    6  A    between atoms: C_15  and  O_18
REMARK    7  A    between atoms: C_17  and  O_20
REMARK    8  A    between atoms: C_22  and  C_23
REMARK                            x       y       z     vdW  Elec       q    Type
REMARK                         _______ _______ _______ _____ _____    ______ ____
ROOT
ATOM      1  O   UNL     1     -38.454  25.610   3.390  0.00  0.00    -0.450 OA
ATOM      2  O   UNL     1     -38.362  21.699   2.250  0.00  0.00    -0.283 OA
ATOM      3  C   UNL     1     -39.484  25.048   2.652  0.00  0.00    +0.182 A 
ATOM      4  C   UNL     1     -37.307  23.472   3.392  0.00  0.00    +0.110 A 
ATOM      5  C   UNL     1     -37.396  24.816   3.747  0.00  0.00    +0.155 A 
ATOM      6  C   UNL     1     -39.515  23.768   2.237  0.00  0.00    +0.208 A 
ATOM      7  C   UNL     1     -38.390  22.873   2.597  0.00  0.00    +0.238 A 
ATOM      8  C   UNL     1     -36.202  22.711   3.783  0.00  0.00    +0.143 C 
ATOM      9  C   UNL     1     -36.381  25.409   4.498  0.00  0.00    +0.074 C 
ATOM     10  C   UNL     1     -35.277  24.652   4.892  0.00  0.00    +0.140 C 
ATOM     11  C   UNL     1     -35.188  23.305   4.535  0.00  0.00    +0.073 C 
ENDROOT
BRANCH   3  12
ATOM     12  C   UNL     1     -40.555  26.008   2.335  0.00  0.00    +0.041 C 
ATOM     13  C   UNL     1     -42.593  27.151   2.952  0.00  0.00    +0.019 C 
ATOM     14  C   UNL     1     -41.578  26.243   3.254  0.00  0.00    +0.002 C 
ATOM     15  C   UNL     1     -42.585  27.826   1.732  0.00  0.00    +0.164 C 
ATOM     16  C   UNL     1     -40.548  26.683   1.114  0.00  0.00    +0.043 C 
ATOM     17  C   UNL     1     -41.563  27.592   0.813  0.00  0.00    +0.167 C 
BRANCH  15  18
ATOM     18  O   UNL     1     -43.575  28.715   1.434  0.00  0.00    -0.503 OA
ATOM     19  H   UNL     1     -44.123  29.052   2.114  0.00  0.00    +0.292 HD
ENDBRANCH  15  18
BRANCH  17  20
ATOM     20  O   UNL     1     -41.542  28.245  -0.383  0.00  0.00    -0.503 OA
ATOM     21  H   UNL     1     -41.070  29.049  -0.470  0.00  0.00    +0.292 HD
ENDBRANCH  17  20
BRANCH  13  22
ATOM     22  C   UNL     1     -43.680  27.390   3.949  0.00  0.00    +0.055 C 
BRANCH  22  23
ATOM     23  C   UNL     1     -44.839  26.438   3.792  0.00  0.00    -0.030 C 
ATOM     24  C   UNL     1     -45.754  26.085   4.716  0.00  0.00    -0.048 C 
ATOM     25  C   UNL     1     -46.888  25.125   4.491  0.00  0.00    +0.026 C 
ATOM     26  C   UNL     1     -45.687  26.652   6.110  0.00  0.00    +0.026 C 
ENDBRANCH  22  23
ENDBRANCH  13  22
ENDBRANCH   3  12
BRANCH   6  27
ATOM     27  O   UNL     1     -40.539  23.247   1.476  0.00  0.00    -0.501 OA
ATOM     28  H   UNL     1     -41.387  23.125   1.855  0.00  0.00    +0.292 HD
ENDBRANCH   6  27
BRANCH   8  29
ATOM     29  O   UNL     1     -36.065  21.394   3.462  0.00  0.00    -0.505 OA
ATOM     30  H   UNL     1     -35.212  21.034   3.316  0.00  0.00    +0.292 HD
ENDBRANCH   8  29
BRANCH  10  31
ATOM     31  O   UNL     1     -34.285  25.228   5.625  0.00  0.00    -0.505 OA
ATOM     32  H   UNL     1     -33.393  24.975   5.488  0.00  0.00    +0.292 HD
ENDBRANCH  10  31
TORSDOF 8
ENDMDL
