MODEL 1
REMARK VINA RESULT:      -4.9      0.000      0.000
REMARK  Name = 5328804
REMARK  7 active torsions:
REMARK  status: ('A' for Active; 'I' for Inactive)
REMARK    1  A    between atoms: C_1  and  C_3
REMARK    2  A    between atoms: C_2  and  C_12
REMARK    3  A    between atoms: C_2  and  C_13
REMARK    4  A    between atoms: C_8  and  O_9
REMARK    5  A    between atoms: C_13  and  N_15
REMARK    6  A    between atoms: C_14  and  C_19
REMARK    7  A    between atoms: C_14  and  C_21
REMARK                            x       y       z     vdW  Elec       q    Type
REMARK                         _______ _______ _______ _____ _____    ______ ____
ROOT
ATOM      1  C   UNL     1     -36.068  25.739   3.650  0.00  0.00    +0.012 C 
ATOM      2  C   UNL     1     -35.139  26.585   3.163  0.00  0.00    +0.083 C 
ENDROOT
BRANCH   1   3
ATOM      3  C   UNL     1     -35.821  24.386   4.171  0.00  0.00    +0.001 C 
ATOM      4  C   UNL     1     -35.533  24.216   5.517  0.00  0.00    +0.003 C 
ATOM      5  C   UNL     1     -35.882  23.303   3.307  0.00  0.00    +0.003 C 
ATOM      6  C   UNL     1     -35.299  22.932   6.010  0.00  0.00    +0.037 C 
ATOM      7  C   UNL     1     -35.648  22.019   3.800  0.00  0.00    +0.037 C 
ATOM      8  C   UNL     1     -35.357  21.834   5.152  0.00  0.00    +0.134 C 
BRANCH   8   9
ATOM      9  O   UNL     1     -35.129  20.582   5.634  0.00  0.00    -0.506 OA
ATOM     10  H   UNL     1     -34.254  20.251   5.683  0.00  0.00    +0.292 HD
ENDBRANCH   8   9
ENDBRANCH   1   3
BRANCH   2  12
ATOM     11  N   UNL     1     -32.664  25.819   3.112  0.00  0.00    -0.191 NA
ATOM     12  C   UNL     1     -33.773  26.163   3.135  0.00  0.00    +0.102 C 
ENDBRANCH   2  12
BRANCH   2  13
ATOM     13  C   UNL     1     -35.423  27.930   2.639  0.00  0.00    +0.071 C 
ATOM     14  C   UNL     1     -36.039  28.106   1.441  0.00  0.00    +0.150 C 
BRANCH  13  15
ATOM     15  N   UNL     1     -35.011  28.961   3.452  0.00  0.00    -0.355 N 
ATOM     16  H   UNL     1     -34.757  29.827   3.057  0.00  0.00    +0.142 HD
ATOM     17  H   UNL     1     -34.971  28.834   4.426  0.00  0.00    +0.142 HD
ENDBRANCH  13  15
BRANCH  14  19
ATOM     18  N   UNL     1     -36.542  30.491   0.561  0.00  0.00    -0.190 NA
ATOM     19  C   UNL     1     -36.316  29.423   0.956  0.00  0.00    +0.112 C 
ENDBRANCH  14  19
BRANCH  14  21
ATOM     20  N   UNL     1     -36.734  26.103  -0.050  0.00  0.00    -0.190 NA
ATOM     21  C   UNL     1     -36.420  26.998   0.619  0.00  0.00    +0.112 C 
ENDBRANCH  14  21
ENDBRANCH   2  13
TORSDOF 7
ENDMDL
MODEL 2
REMARK VINA RESULT:      -4.8      4.499      6.214
REMARK  Name = 5328804
REMARK  7 active torsions:
REMARK  status: ('A' for Active; 'I' for Inactive)
REMARK    1  A    between atoms: C_1  and  C_3
REMARK    2  A    between atoms: C_2  and  C_12
REMARK    3  A    between atoms: C_2  and  C_13
REMARK    4  A    between atoms: C_8  and  O_9
REMARK    5  A    between atoms: C_13  and  N_15
REMARK    6  A    between atoms: C_14  and  C_19
REMARK    7  A    between atoms: C_14  and  C_21
REMARK                            x       y       z     vdW  Elec       q    Type
REMARK                         _______ _______ _______ _____ _____    ______ ____
ROOT
ATOM      1  C   UNL     1     -36.206  23.365   2.766  0.00  0.00    +0.012 C 
ATOM      2  C   UNL     1     -36.260  22.031   2.947  0.00  0.00    +0.083 C 
ENDROOT
BRANCH   1   3
ATOM      3  C   UNL     1     -35.514  24.330   3.633  0.00  0.00    +0.001 C 
ATOM      4  C   UNL     1     -36.137  24.778   4.789  0.00  0.00    +0.003 C 
ATOM      5  C   UNL     1     -34.250  24.777   3.281  0.00  0.00    +0.003 C 
ATOM      6  C   UNL     1     -35.480  25.692   5.612  0.00  0.00    +0.037 C 
ATOM      7  C   UNL     1     -33.592  25.692   4.104  0.00  0.00    +0.037 C 
ATOM      8  C   UNL     1     -34.207  26.150   5.270  0.00  0.00    +0.134 C 
BRANCH   8   9
ATOM      9  O   UNL     1     -33.567  27.042   6.073  0.00  0.00    -0.506 OA
ATOM     10  H   UNL     1     -33.395  26.827   6.969  0.00  0.00    +0.292 HD
ENDBRANCH   8   9
ENDBRANCH   1   3
BRANCH   2  12
ATOM     11  N   UNL     1     -35.054  21.004   4.997  0.00  0.00    -0.191 NA
ATOM     12  C   UNL     1     -35.595  21.463   4.078  0.00  0.00    +0.102 C 
ENDBRANCH   2  12
BRANCH   2  13
ATOM     13  C   UNL     1     -36.972  21.094   2.063  0.00  0.00    +0.071 C 
ATOM     14  C   UNL     1     -36.309  20.359   1.133  0.00  0.00    +0.150 C 
BRANCH  13  15
ATOM     15  N   UNL     1     -38.332  21.041   2.260  0.00  0.00    -0.355 N 
ATOM     16  H   UNL     1     -38.862  21.872   2.261  0.00  0.00    +0.142 HD
ATOM     17  H   UNL     1     -38.776  20.175   2.401  0.00  0.00    +0.142 HD
ENDBRANCH  13  15
BRANCH  14  19
ATOM     18  N   UNL     1     -37.600  18.705  -0.388  0.00  0.00    -0.190 NA
ATOM     19  C   UNL     1     -37.020  19.446   0.292  0.00  0.00    +0.112 C 
ENDBRANCH  14  19
BRANCH  14  21
ATOM     20  N   UNL     1     -33.747  20.563   0.801  0.00  0.00    -0.190 NA
ATOM     21  C   UNL     1     -34.895  20.474   0.948  0.00  0.00    +0.112 C 
ENDBRANCH  14  21
ENDBRANCH   2  13
TORSDOF 7
ENDMDL
MODEL 3
REMARK VINA RESULT:      -4.8      4.149      6.645
REMARK  Name = 5328804
REMARK  7 active torsions:
REMARK  status: ('A' for Active; 'I' for Inactive)
REMARK    1  A    between atoms: C_1  and  C_3
REMARK    2  A    between atoms: C_2  and  C_12
REMARK    3  A    between atoms: C_2  and  C_13
REMARK    4  A    between atoms: C_8  and  O_9
REMARK    5  A    between atoms: C_13  and  N_15
REMARK    6  A    between atoms: C_14  and  C_19
REMARK    7  A    between atoms: C_14  and  C_21
REMARK                            x       y       z     vdW  Elec       q    Type
REMARK                         _______ _______ _______ _____ _____    ______ ____
ROOT
ATOM      1  C   UNL     1     -35.881  21.488   3.095  0.00  0.00    +0.012 C 
ATOM      2  C   UNL     1     -35.235  21.240   1.939  0.00  0.00    +0.083 C 
ENDROOT
BRANCH   1   3
ATOM      3  C   UNL     1     -36.035  22.802   3.738  0.00  0.00    +0.001 C 
ATOM      4  C   UNL     1     -37.042  23.656   3.314  0.00  0.00    +0.003 C 
ATOM      5  C   UNL     1     -35.169  23.165   4.759  0.00  0.00    +0.003 C 
ATOM      6  C   UNL     1     -37.187  24.902   3.925  0.00  0.00    +0.037 C 
ATOM      7  C   UNL     1     -35.314  24.411   5.370  0.00  0.00    +0.037 C 
ATOM      8  C   UNL     1     -36.323  25.279   4.953  0.00  0.00    +0.134 C 
BRANCH   8   9
ATOM      9  O   UNL     1     -36.465  26.495   5.548  0.00  0.00    -0.506 OA
ATOM     10  H   UNL     1     -36.779  26.551   6.429  0.00  0.00    +0.292 HD
ENDBRANCH   8   9
ENDBRANCH   1   3
BRANCH   2  12
ATOM     11  N   UNL     1     -34.136  23.219   0.679  0.00  0.00    -0.191 NA
ATOM     12  C   UNL     1     -34.627  22.332   1.244  0.00  0.00    +0.102 C 
ENDBRANCH   2  12
BRANCH   2  13
ATOM     13  C   UNL     1     -35.091  19.909   1.329  0.00  0.00    +0.071 C 
ATOM     14  C   UNL     1     -36.021  19.424   0.465  0.00  0.00    +0.150 C 
BRANCH  13  15
ATOM     15  N   UNL     1     -33.962  19.222   1.711  0.00  0.00    -0.355 N 
ATOM     16  H   UNL     1     -33.214  19.702   2.136  0.00  0.00    +0.142 HD
ATOM     17  H   UNL     1     -33.902  18.252   1.561  0.00  0.00    +0.142 HD
ENDBRANCH  13  15
BRANCH  14  19
ATOM     18  N   UNL     1     -35.721  17.084  -0.607  0.00  0.00    -0.190 NA
ATOM     19  C   UNL     1     -35.854  18.132  -0.125  0.00  0.00    +0.112 C 
ENDBRANCH  14  19
BRANCH  14  21
ATOM     20  N   UNL     1     -38.149  20.768  -0.152  0.00  0.00    -0.190 NA
ATOM     21  C   UNL     1     -37.194  20.169   0.123  0.00  0.00    +0.112 C 
ENDBRANCH  14  21
ENDBRANCH   2  13
TORSDOF 7
ENDMDL
MODEL 4
REMARK VINA RESULT:      -4.7      1.292      2.089
REMARK  Name = 5328804
REMARK  7 active torsions:
REMARK  status: ('A' for Active; 'I' for Inactive)
REMARK    1  A    between atoms: C_1  and  C_3
REMARK    2  A    between atoms: C_2  and  C_12
REMARK    3  A    between atoms: C_2  and  C_13
REMARK    4  A    between atoms: C_8  and  O_9
REMARK    5  A    between atoms: C_13  and  N_15
REMARK    6  A    between atoms: C_14  and  C_19
REMARK    7  A    between atoms: C_14  and  C_21
REMARK                            x       y       z     vdW  Elec       q    Type
REMARK                         _______ _______ _______ _____ _____    ______ ____
ROOT
ATOM      1  C   UNL     1     -34.744  25.548   3.384  0.00  0.00    +0.012 C 
ATOM      2  C   UNL     1     -35.704  26.384   2.942  0.00  0.00    +0.083 C 
ENDROOT
BRANCH   1   3
ATOM      3  C   UNL     1     -34.960  24.242   4.025  0.00  0.00    +0.001 C 
ATOM      4  C   UNL     1     -35.217  23.129   3.238  0.00  0.00    +0.003 C 
ATOM      5  C   UNL     1     -34.903  24.146   5.407  0.00  0.00    +0.003 C 
ATOM      6  C   UNL     1     -35.420  21.891   3.848  0.00  0.00    +0.037 C 
ATOM      7  C   UNL     1     -35.106  22.907   6.017  0.00  0.00    +0.037 C 
ATOM      8  C   UNL     1     -35.365  21.780   5.237  0.00  0.00    +0.134 C 
BRANCH   8   9
ATOM      9  O   UNL     1     -35.564  20.572   5.831  0.00  0.00    -0.506 OA
ATOM     10  H   UNL     1     -35.027  19.841   5.597  0.00  0.00    +0.292 HD
ENDBRANCH   8   9
ENDBRANCH   1   3
BRANCH   2  12
ATOM     11  N   UNL     1     -38.185  25.689   3.216  0.00  0.00    -0.191 NA
ATOM     12  C   UNL     1     -37.073  26.000   3.094  0.00  0.00    +0.102 C 
ENDBRANCH   2  12
BRANCH   2  13
ATOM     13  C   UNL     1     -35.453  27.690   2.313  0.00  0.00    +0.071 C 
ATOM     14  C   UNL     1     -35.345  27.816   0.965  0.00  0.00    +0.150 C 
BRANCH  13  15
ATOM     15  N   UNL     1     -35.335  28.738   3.196  0.00  0.00    -0.355 N 
ATOM     16  H   UNL     1     -35.973  28.827   3.942  0.00  0.00    +0.142 HD
ATOM     17  H   UNL     1     -34.615  29.399   3.084  0.00  0.00    +0.142 HD
ENDBRANCH  13  15
BRANCH  14  19
ATOM     18  N   UNL     1     -34.919  30.137  -0.105  0.00  0.00    -0.190 NA
ATOM     19  C   UNL     1     -35.112  29.098   0.375  0.00  0.00    +0.112 C 
ENDBRANCH  14  19
BRANCH  14  21
ATOM     20  N   UNL     1     -35.521  25.773  -0.620  0.00  0.00    -0.190 NA
ATOM     21  C   UNL     1     -35.445  26.687   0.091  0.00  0.00    +0.112 C 
ENDBRANCH  14  21
ENDBRANCH   2  13
TORSDOF 7
ENDMDL
MODEL 5
REMARK VINA RESULT:      -4.6      3.684      5.292
REMARK  Name = 5328804
REMARK  7 active torsions:
REMARK  status: ('A' for Active; 'I' for Inactive)
REMARK    1  A    between atoms: C_1  and  C_3
REMARK    2  A    between atoms: C_2  and  C_12
REMARK    3  A    between atoms: C_2  and  C_13
REMARK    4  A    between atoms: C_8  and  O_9
REMARK    5  A    between atoms: C_13  and  N_15
REMARK    6  A    between atoms: C_14  and  C_19
REMARK    7  A    between atoms: C_14  and  C_21
REMARK                            x       y       z     vdW  Elec       q    Type
REMARK                         _______ _______ _______ _____ _____    ______ ____
ROOT
ATOM      1  C   UNL     1     -37.847  25.614   3.482  0.00  0.00    +0.012 C 
ATOM      2  C   UNL     1     -36.543  25.747   3.165  0.00  0.00    +0.083 C 
ENDROOT
BRANCH   1   3
ATOM      3  C   UNL     1     -38.891  25.031   2.626  0.00  0.00    +0.001 C 
ATOM      4  C   UNL     1     -39.705  25.867   1.878  0.00  0.00    +0.003 C 
ATOM      5  C   UNL     1     -39.044  23.653   2.582  0.00  0.00    +0.003 C 
ATOM      6  C   UNL     1     -40.695  25.313   1.066  0.00  0.00    +0.037 C 
ATOM      7  C   UNL     1     -40.034  23.099   1.771  0.00  0.00    +0.037 C 
ATOM      8  C   UNL     1     -40.860  23.929   1.012  0.00  0.00    +0.134 C 
BRANCH   8   9
ATOM      9  O   UNL     1     -41.826  23.389   0.220  0.00  0.00    -0.506 OA
ATOM     10  H   UNL     1     -41.631  22.646  -0.316  0.00  0.00    +0.292 HD
ENDBRANCH   8   9
ENDBRANCH   1   3
BRANCH   2  12
ATOM     11  N   UNL     1     -35.734  24.917   0.848  0.00  0.00    -0.191 NA
ATOM     12  C   UNL     1     -36.097  25.290   1.886  0.00  0.00    +0.102 C 
ENDBRANCH   2  12
BRANCH   2  13
ATOM     13  C   UNL     1     -35.525  26.346   4.043  0.00  0.00    +0.071 C 
ATOM     14  C   UNL     1     -35.002  25.657   5.090  0.00  0.00    +0.150 C 
BRANCH  13  15
ATOM     15  N   UNL     1     -35.171  27.633   3.713  0.00  0.00    -0.355 N 
ATOM     16  H   UNL     1     -35.124  27.904   2.767  0.00  0.00    +0.142 HD
ATOM     17  H   UNL     1     -34.964  28.284   4.422  0.00  0.00    +0.142 HD
ENDBRANCH  13  15
BRANCH  14  19
ATOM     18  N   UNL     1     -33.194  26.739   6.599  0.00  0.00    -0.190 NA
ATOM     19  C   UNL     1     -34.004  26.255   5.923  0.00  0.00    +0.112 C 
ENDBRANCH  14  19
BRANCH  14  21
ATOM     20  N   UNL     1     -35.776  23.253   5.671  0.00  0.00    -0.190 NA
ATOM     21  C   UNL     1     -35.428  24.328   5.408  0.00  0.00    +0.112 C 
ENDBRANCH  14  21
ENDBRANCH   2  13
TORSDOF 7
ENDMDL
MODEL 6
REMARK VINA RESULT:      -4.6      1.503      2.584
REMARK  Name = 5328804
REMARK  7 active torsions:
REMARK  status: ('A' for Active; 'I' for Inactive)
REMARK    1  A    between atoms: C_1  and  C_3
REMARK    2  A    between atoms: C_2  and  C_12
REMARK    3  A    between atoms: C_2  and  C_13
REMARK    4  A    between atoms: C_8  and  O_9
REMARK    5  A    between atoms: C_13  and  N_15
REMARK    6  A    between atoms: C_14  and  C_19
REMARK    7  A    between atoms: C_14  and  C_21
REMARK                            x       y       z     vdW  Elec       q    Type
REMARK                         _______ _______ _______ _____ _____    ______ ____
ROOT
ATOM      1  C   UNL     1     -35.767  25.983   3.933  0.00  0.00    +0.012 C 
ATOM      2  C   UNL     1     -35.020  26.611   3.004  0.00  0.00    +0.083 C 
ENDROOT
BRANCH   1   3
ATOM      3  C   UNL     1     -35.634  24.578   4.347  0.00  0.00    +0.001 C 
ATOM      4  C   UNL     1     -36.070  23.572   3.496  0.00  0.00    +0.003 C 
ATOM      5  C   UNL     1     -35.075  24.281   5.581  0.00  0.00    +0.003 C 
ATOM      6  C   UNL     1     -35.943  22.240   3.889  0.00  0.00    +0.037 C 
ATOM      7  C   UNL     1     -34.948  22.949   5.973  0.00  0.00    +0.037 C 
ATOM      8  C   UNL     1     -35.382  21.928   5.127  0.00  0.00    +0.134 C 
BRANCH   8   9
ATOM      9  O   UNL     1     -35.259  20.628   5.510  0.00  0.00    -0.506 OA
ATOM     10  H   UNL     1     -35.871  20.258   6.116  0.00  0.00    +0.292 HD
ENDBRANCH   8   9
ENDBRANCH   1   3
BRANCH   2  12
ATOM     11  N   UNL     1     -33.158  25.277   1.794  0.00  0.00    -0.191 NA
ATOM     12  C   UNL     1     -33.992  25.875   2.336  0.00  0.00    +0.102 C 
ENDBRANCH   2  12
BRANCH   2  13
ATOM     13  C   UNL     1     -35.187  28.018   2.607  0.00  0.00    +0.071 C 
ATOM     14  C   UNL     1     -34.270  28.962   2.945  0.00  0.00    +0.150 C 
BRANCH  13  15
ATOM     15  N   UNL     1     -36.330  28.278   1.886  0.00  0.00    -0.355 N 
ATOM     16  H   UNL     1     -36.814  29.125   2.021  0.00  0.00    +0.142 HD
ATOM     17  H   UNL     1     -36.663  27.619   1.236  0.00  0.00    +0.142 HD
ENDBRANCH  13  15
BRANCH  14  19
ATOM     18  N   UNL     1     -34.590  31.424   2.205  0.00  0.00    -0.190 NA
ATOM     19  C   UNL     1     -34.447  30.321   2.538  0.00  0.00    +0.112 C 
ENDBRANCH  14  19
BRANCH  14  21
ATOM     20  N   UNL     1     -32.170  28.383   4.349  0.00  0.00    -0.190 NA
ATOM     21  C   UNL     1     -33.112  28.643   3.723  0.00  0.00    +0.112 C 
ENDBRANCH  14  21
ENDBRANCH   2  13
TORSDOF 7
ENDMDL
MODEL 7
REMARK VINA RESULT:      -4.5      1.371      2.621
REMARK  Name = 5328804
REMARK  7 active torsions:
REMARK  status: ('A' for Active; 'I' for Inactive)
REMARK    1  A    between atoms: C_1  and  C_3
REMARK    2  A    between atoms: C_2  and  C_12
REMARK    3  A    between atoms: C_2  and  C_13
REMARK    4  A    between atoms: C_8  and  O_9
REMARK    5  A    between atoms: C_13  and  N_15
REMARK    6  A    between atoms: C_14  and  C_19
REMARK    7  A    between atoms: C_14  and  C_21
REMARK                            x       y       z     vdW  Elec       q    Type
REMARK                         _______ _______ _______ _____ _____    ______ ____
ROOT
ATOM      1  C   UNL     1     -35.590  25.017   2.609  0.00  0.00    +0.012 C 
ATOM      2  C   UNL     1     -36.705  25.740   2.385  0.00  0.00    +0.083 C 
ENDROOT
BRANCH   1   3
ATOM      3  C   UNL     1     -35.484  23.832   3.473  0.00  0.00    +0.001 C 
ATOM      4  C   UNL     1     -35.277  23.997   4.835  0.00  0.00    +0.003 C 
ATOM      5  C   UNL     1     -35.593  22.568   2.912  0.00  0.00    +0.003 C 
ATOM      6  C   UNL     1     -35.178  22.872   5.654  0.00  0.00    +0.037 C 
ATOM      7  C   UNL     1     -35.494  21.443   3.732  0.00  0.00    +0.037 C 
ATOM      8  C   UNL     1     -35.286  21.595   5.103  0.00  0.00    +0.134 C 
BRANCH   8   9
ATOM      9  O   UNL     1     -35.189  20.499   5.902  0.00  0.00    -0.506 OA
ATOM     10  H   UNL     1     -35.432  20.554   6.806  0.00  0.00    +0.292 HD
ENDBRANCH   8   9
ENDBRANCH   1   3
BRANCH   2  12
ATOM     11  N   UNL     1     -38.905  25.031   3.556  0.00  0.00    -0.191 NA
ATOM     12  C   UNL     1     -37.919  25.349   3.032  0.00  0.00    +0.102 C 
ENDBRANCH   2  12
BRANCH   2  13
ATOM     13  C   UNL     1     -36.773  26.929   1.521  0.00  0.00    +0.071 C 
ATOM     14  C   UNL     1     -36.003  28.022   1.763  0.00  0.00    +0.150 C 
BRANCH  13  15
ATOM     15  N   UNL     1     -37.667  26.831   0.481  0.00  0.00    -0.355 N 
ATOM     16  H   UNL     1     -37.437  27.203  -0.402  0.00  0.00    +0.142 HD
ATOM     17  H   UNL     1     -38.535  26.390   0.618  0.00  0.00    +0.142 HD
ENDBRANCH  13  15
BRANCH  14  19
ATOM     18  N   UNL     1     -36.141  30.089   0.206  0.00  0.00    -0.190 NA
ATOM     19  C   UNL     1     -36.078  29.163   0.903  0.00  0.00    +0.112 C 
ENDBRANCH  14  19
BRANCH  14  21
ATOM     20  N   UNL     1     -34.380  28.138   3.780  0.00  0.00    -0.190 NA
ATOM     21  C   UNL     1     -35.110  28.085   2.879  0.00  0.00    +0.112 C 
ENDBRANCH  14  21
ENDBRANCH   2  13
TORSDOF 7
ENDMDL
MODEL 8
REMARK VINA RESULT:      -4.5      2.013      2.619
REMARK  Name = 5328804
REMARK  7 active torsions:
REMARK  status: ('A' for Active; 'I' for Inactive)
REMARK    1  A    between atoms: C_1  and  C_3
REMARK    2  A    between atoms: C_2  and  C_12
REMARK    3  A    between atoms: C_2  and  C_13
REMARK    4  A    between atoms: C_8  and  O_9
REMARK    5  A    between atoms: C_13  and  N_15
REMARK    6  A    between atoms: C_14  and  C_19
REMARK    7  A    between atoms: C_14  and  C_21
REMARK                            x       y       z     vdW  Elec       q    Type
REMARK                         _______ _______ _______ _____ _____    ______ ____
ROOT
ATOM      1  C   UNL     1     -34.982  25.607   3.387  0.00  0.00    +0.012 C 
ATOM      2  C   UNL     1     -34.323  26.672   3.885  0.00  0.00    +0.083 C 
ENDROOT
BRANCH   1   3
ATOM      3  C   UNL     1     -35.134  24.299   4.040  0.00  0.00    +0.001 C 
ATOM      4  C   UNL     1     -35.306  24.238   5.415  0.00  0.00    +0.003 C 
ATOM      5  C   UNL     1     -35.104  23.146   3.270  0.00  0.00    +0.003 C 
ATOM      6  C   UNL     1     -35.451  22.996   6.034  0.00  0.00    +0.037 C 
ATOM      7  C   UNL     1     -35.249  21.904   3.888  0.00  0.00    +0.037 C 
ATOM      8  C   UNL     1     -35.423  21.829   5.270  0.00  0.00    +0.134 C 
BRANCH   8   9
ATOM      9  O   UNL     1     -35.564  20.618   5.875  0.00  0.00    -0.506 OA
ATOM     10  H   UNL     1     -35.305  19.838   5.425  0.00  0.00    +0.292 HD
ENDBRANCH   8   9
ENDBRANCH   1   3
BRANCH   2  12
ATOM     11  N   UNL     1     -33.194  26.461   6.208  0.00  0.00    -0.191 NA
ATOM     12  C   UNL     1     -33.700  26.556   5.167  0.00  0.00    +0.102 C 
ENDBRANCH   2  12
BRANCH   2  13
ATOM     13  C   UNL     1     -34.180  27.965   3.198  0.00  0.00    +0.071 C 
ATOM     14  C   UNL     1     -33.023  28.311   2.575  0.00  0.00    +0.150 C 
BRANCH  13  15
ATOM     15  N   UNL     1     -35.296  28.768   3.252  0.00  0.00    -0.355 N 
ATOM     16  H   UNL     1     -36.100  28.527   2.737  0.00  0.00    +0.142 HD
ATOM     17  H   UNL     1     -35.291  29.583   3.803  0.00  0.00    +0.142 HD
ENDBRANCH  13  15
BRANCH  14  19
ATOM     18  N   UNL     1     -32.818  30.590   1.359  0.00  0.00    -0.190 NA
ATOM     19  C   UNL     1     -32.912  29.569   1.904  0.00  0.00    +0.112 C 
ENDBRANCH  14  19
BRANCH  14  21
ATOM     20  N   UNL     1     -30.957  26.747   2.578  0.00  0.00    -0.190 NA
ATOM     21  C   UNL     1     -31.880  27.450   2.575  0.00  0.00    +0.112 C 
ENDBRANCH  14  21
ENDBRANCH   2  13
TORSDOF 7
ENDMDL
MODEL 9
REMARK VINA RESULT:      -4.5      4.128      5.837
REMARK  Name = 5328804
REMARK  7 active torsions:
REMARK  status: ('A' for Active; 'I' for Inactive)
REMARK    1  A    between atoms: C_1  and  C_3
REMARK    2  A    between atoms: C_2  and  C_12
REMARK    3  A    between atoms: C_2  and  C_13
REMARK    4  A    between atoms: C_8  and  O_9
REMARK    5  A    between atoms: C_13  and  N_15
REMARK    6  A    between atoms: C_14  and  C_19
REMARK    7  A    between atoms: C_14  and  C_21
REMARK                            x       y       z     vdW  Elec       q    Type
REMARK                         _______ _______ _______ _____ _____    ______ ____
ROOT
ATOM      1  C   UNL     1     -35.708  21.266   1.089  0.00  0.00    +0.012 C 
ATOM      2  C   UNL     1     -36.292  21.550   2.270  0.00  0.00    +0.083 C 
ENDROOT
BRANCH   1   3
ATOM      3  C   UNL     1     -34.398  20.625   0.902  0.00  0.00    +0.001 C 
ATOM      4  C   UNL     1     -34.190  19.343   1.388  0.00  0.00    +0.003 C 
ATOM      5  C   UNL     1     -33.391  21.314   0.242  0.00  0.00    +0.003 C 
ATOM      6  C   UNL     1     -32.946  18.736   1.209  0.00  0.00    +0.037 C 
ATOM      7  C   UNL     1     -32.148  20.707   0.063  0.00  0.00    +0.037 C 
ATOM      8  C   UNL     1     -31.926  19.417   0.547  0.00  0.00    +0.134 C 
BRANCH   8   9
ATOM      9  O   UNL     1     -30.713  18.825   0.373  0.00  0.00    -0.506 OA
ATOM     10  H   UNL     1     -30.590  18.205  -0.319  0.00  0.00    +0.292 HD
ENDBRANCH   8   9
ENDBRANCH   1   3
BRANCH   2  12
ATOM     11  N   UNL     1     -35.045  20.935   4.456  0.00  0.00    -0.191 NA
ATOM     12  C   UNL     1     -35.603  21.211   3.476  0.00  0.00    +0.102 C 
ENDBRANCH   2  12
BRANCH   2  13
ATOM     13  C   UNL     1     -37.602  22.203   2.420  0.00  0.00    +0.071 C 
ATOM     14  C   UNL     1     -37.704  23.539   2.644  0.00  0.00    +0.150 C 
BRANCH  13  15
ATOM     15  N   UNL     1     -38.680  21.354   2.322  0.00  0.00    -0.355 N 
ATOM     16  H   UNL     1     -39.398  21.391   2.995  0.00  0.00    +0.142 HD
ATOM     17  H   UNL     1     -38.734  20.710   1.581  0.00  0.00    +0.142 HD
ENDBRANCH  13  15
BRANCH  14  19
ATOM     18  N   UNL     1     -40.030  24.655   2.885  0.00  0.00    -0.190 NA
ATOM     19  C   UNL     1     -38.989  24.154   2.776  0.00  0.00    +0.112 C 
ENDBRANCH  14  19
BRANCH  14  21
ATOM     20  N   UNL     1     -35.609  25.048   2.874  0.00  0.00    -0.190 NA
ATOM     21  C   UNL     1     -36.548  24.373   2.768  0.00  0.00    +0.112 C 
ENDBRANCH  14  21
ENDBRANCH   2  13
TORSDOF 7
ENDMDL
