MODEL 1
REMARK VINA RESULT:      -6.1      0.000      0.000
REMARK  Name = 5487699
REMARK  10 active torsions:
REMARK  status: ('A' for Active; 'I' for Inactive)
REMARK    1  A    between atoms: N_3  and  C_6
REMARK    2  A    between atoms: C_4  and  C_22
REMARK    3  A    between atoms: C_5  and  C_36
REMARK    4  A    between atoms: C_6  and  C_10
REMARK    5  A    between atoms: N_9  and  C_13
REMARK    6  A    between atoms: C_22  and  N_25
REMARK    7  A    between atoms: C_26  and  O_28
REMARK    8  A    between atoms: O_28  and  C_29
REMARK    9  A    between atoms: C_29  and  C_30
REMARK   10  A    between atoms: C_36  and  N_38
REMARK                            x       y       z     vdW  Elec       q    Type
REMARK                         _______ _______ _______ _____ _____    ______ ____
ROOT
ATOM      1  O   UNL     1     -39.118  24.378   3.750  0.00  0.00    -0.273 OA
ATOM      2  O   UNL     1     -40.056  27.202   1.124  0.00  0.00    -0.277 OA
ATOM      3  N   UNL     1     -39.202  25.061   1.514  0.00  0.00    -0.223 N 
ATOM      4  C   UNL     1     -38.977  24.121   2.552  0.00  0.00    +0.250 C 
ATOM      5  C   UNL     1     -40.156  26.098   1.670  0.00  0.00    +0.211 C 
ENDROOT
BRANCH   3   6
ATOM      6  C   UNL     1     -38.426  24.937   0.278  0.00  0.00    +0.159 C 
ATOM      7  C   UNL     1     -39.333  24.991  -0.942  0.00  0.00    +0.032 C 
BRANCH   6  10
ATOM      8  O   UNL     1     -37.340  26.859  -0.692  0.00  0.00    -0.273 OA
ATOM      9  N   UNL     1     -36.552  26.007   1.348  0.00  0.00    -0.283 N 
ATOM     10  C   UNL     1     -37.394  26.063   0.240  0.00  0.00    +0.245 C 
ATOM     11  H   UNL     1     -36.723  25.278   1.987  0.00  0.00    +0.155 HD
BRANCH   9  13
ATOM     12  N   UNL     1     -32.295  29.407   2.569  0.00  0.00    -0.244 NA
ATOM     13  C   UNL     1     -35.480  26.876   1.661  0.00  0.00    +0.050 C 
ATOM     14  C   UNL     1     -35.733  28.146   2.172  0.00  0.00    +0.016 C 
ATOM     15  C   UNL     1     -34.671  29.011   2.484  0.00  0.00    +0.019 C 
ATOM     16  C   UNL     1     -34.167  26.467   1.459  0.00  0.00    +0.016 C 
ATOM     17  C   UNL     1     -33.336  28.603   2.281  0.00  0.00    +0.081 C 
ATOM     18  C   UNL     1     -33.112  27.328   1.769  0.00  0.00    +0.020 C 
ATOM     19  C   UNL     1     -34.897  30.294   3.000  0.00  0.00    +0.003 C 
ATOM     20  C   UNL     1     -33.827  31.125   3.298  0.00  0.00    +0.021 C 
ATOM     21  C   UNL     1     -32.556  30.638   3.066  0.00  0.00    +0.099 C 
ENDBRANCH   9  13
ENDBRANCH   6  10
ENDBRANCH   3   6
BRANCH   4  22
ATOM     22  C   UNL     1     -38.562  22.716   2.102  0.00  0.00    +0.152 C 
ATOM     23  C   UNL     1     -39.746  21.763   2.173  0.00  0.00    +0.031 C 
BRANCH  22  25
ATOM     24  O   UNL     1     -35.702  23.089   1.746  0.00  0.00    -0.226 OA
ATOM     25  N   UNL     1     -37.497  22.270   2.967  0.00  0.00    -0.264 N 
ATOM     26  C   UNL     1     -36.159  22.494   2.717  0.00  0.00    +0.402 C 
ATOM     27  H   UNL     1     -37.741  21.778   3.784  0.00  0.00    +0.153 HD
BRANCH  26  28
ATOM     28  O   UNL     1     -35.404  21.950   3.718  0.00  0.00    -0.430 OA
BRANCH  28  29
ATOM     29  C   UNL     1     -35.676  22.436   5.038  0.00  0.00    +0.237 C 
BRANCH  29  30
ATOM     30  C   UNL     1     -35.308  23.888   5.112  0.00  0.00    +0.021 C 
ATOM     31  C   UNL     1     -36.281  24.840   5.418  0.00  0.00    -0.001 C 
ATOM     32  C   UNL     1     -33.992  24.288   4.875  0.00  0.00    -0.001 C 
ATOM     33  C   UNL     1     -35.939  26.190   5.487  0.00  0.00    -0.000 C 
ATOM     34  C   UNL     1     -33.650  25.638   4.945  0.00  0.00    -0.000 C 
ATOM     35  C   UNL     1     -34.624  26.590   5.250  0.00  0.00    -0.000 C 
ENDBRANCH  29  30
ENDBRANCH  28  29
ENDBRANCH  26  28
ENDBRANCH  22  25
ENDBRANCH   4  22
BRANCH   5  36
ATOM     36  C   UNL     1     -41.352  25.804   2.575  0.00  0.00    +0.013 C 
ATOM     37  C   UNL     1     -42.658  26.187   1.880  0.00  0.00    -0.015 C 
BRANCH  36  38
ATOM     38  N   UNL     1     -41.188  26.621   3.773  0.00  0.00    +0.387 N 
ATOM     39  H   UNL     1     -41.903  26.370   4.456  0.00  0.00    -0.089 HD
ATOM     40  H   UNL     1     -41.283  27.607   3.529  0.00  0.00    -0.089 HD
ATOM     41  H   UNL     1     -40.264  26.457   4.173  0.00  0.00    -0.089 HD
ENDBRANCH  36  38
ENDBRANCH   5  36
TORSDOF 10
ENDMDL
MODEL 2
REMARK VINA RESULT:      -5.9      3.756      7.047
REMARK  Name = 5487699
REMARK  10 active torsions:
REMARK  status: ('A' for Active; 'I' for Inactive)
REMARK    1  A    between atoms: N_3  and  C_6
REMARK    2  A    between atoms: C_4  and  C_22
REMARK    3  A    between atoms: C_5  and  C_36
REMARK    4  A    between atoms: C_6  and  C_10
REMARK    5  A    between atoms: N_9  and  C_13
REMARK    6  A    between atoms: C_22  and  N_25
REMARK    7  A    between atoms: C_26  and  O_28
REMARK    8  A    between atoms: O_28  and  C_29
REMARK    9  A    between atoms: C_29  and  C_30
REMARK   10  A    between atoms: C_36  and  N_38
REMARK                            x       y       z     vdW  Elec       q    Type
REMARK                         _______ _______ _______ _____ _____    ______ ____
ROOT
ATOM      1  O   UNL     1     -41.181  23.263   1.136  0.00  0.00    -0.273 OA
ATOM      2  O   UNL     1     -44.261  25.747   0.829  0.00  0.00    -0.277 OA
ATOM      3  N   UNL     1     -41.942  25.465   0.926  0.00  0.00    -0.223 N 
ATOM      4  C   UNL     1     -40.940  24.463   0.975  0.00  0.00    +0.250 C 
ATOM      5  C   UNL     1     -43.240  25.170   0.439  0.00  0.00    +0.211 C 
ENDROOT
BRANCH   3   6
ATOM      6  C   UNL     1     -41.605  26.813   1.390  0.00  0.00    +0.159 C 
ATOM      7  C   UNL     1     -42.307  27.869   0.551  0.00  0.00    +0.032 C 
BRANCH   6  10
ATOM      8  O   UNL     1     -41.356  26.390   3.751  0.00  0.00    -0.273 OA
ATOM      9  N   UNL     1     -43.176  27.669   3.003  0.00  0.00    -0.283 N 
ATOM     10  C   UNL     1     -42.004  26.931   2.860  0.00  0.00    +0.245 C 
ATOM     11  H   UNL     1     -43.581  28.007   2.172  0.00  0.00    +0.155 HD
BRANCH   9  13
ATOM     12  N   UNL     1     -45.866  28.902   7.738  0.00  0.00    -0.244 NA
ATOM     13  C   UNL     1     -43.852  27.991   4.205  0.00  0.00    +0.050 C 
ATOM     14  C   UNL     1     -43.473  29.106   4.945  0.00  0.00    +0.016 C 
ATOM     15  C   UNL     1     -44.142  29.428   6.138  0.00  0.00    +0.019 C 
ATOM     16  C   UNL     1     -44.898  27.193   4.652  0.00  0.00    +0.016 C 
ATOM     17  C   UNL     1     -45.205  28.623   6.599  0.00  0.00    +0.081 C 
ATOM     18  C   UNL     1     -45.563  27.513   5.838  0.00  0.00    +0.020 C 
ATOM     19  C   UNL     1     -43.781  30.545   6.904  0.00  0.00    +0.003 C 
ATOM     20  C   UNL     1     -44.461  30.836   8.077  0.00  0.00    +0.021 C 
ATOM     21  C   UNL     1     -45.487  29.990   8.447  0.00  0.00    +0.099 C 
ENDBRANCH   9  13
ENDBRANCH   6  10
ENDBRANCH   3   6
BRANCH   4  22
ATOM     22  C   UNL     1     -39.499  24.948   0.787  0.00  0.00    +0.152 C 
ATOM     23  C   UNL     1     -38.772  24.077  -0.227  0.00  0.00    +0.031 C 
BRANCH  22  25
ATOM     24  O   UNL     1     -37.874  27.001   2.046  0.00  0.00    -0.226 OA
ATOM     25  N   UNL     1     -38.841  24.892   2.069  0.00  0.00    -0.264 N 
ATOM     26  C   UNL     1     -38.085  25.922   2.591  0.00  0.00    +0.402 C 
ATOM     27  H   UNL     1     -38.939  24.070   2.603  0.00  0.00    +0.153 HD
BRANCH  26  28
ATOM     28  O   UNL     1     -37.599  25.563   3.816  0.00  0.00    -0.430 OA
BRANCH  28  29
ATOM     29  C   UNL     1     -36.175  25.437   3.911  0.00  0.00    +0.237 C 
BRANCH  29  30
ATOM     30  C   UNL     1     -35.834  24.048   4.364  0.00  0.00    +0.021 C 
ATOM     31  C   UNL     1     -35.528  23.807   5.704  0.00  0.00    -0.001 C 
ATOM     32  C   UNL     1     -35.825  22.998   3.447  0.00  0.00    -0.001 C 
ATOM     33  C   UNL     1     -35.212  22.516   6.126  0.00  0.00    -0.000 C 
ATOM     34  C   UNL     1     -35.510  21.706   3.869  0.00  0.00    -0.000 C 
ATOM     35  C   UNL     1     -35.203  21.465   5.209  0.00  0.00    -0.000 C 
ENDBRANCH  29  30
ENDBRANCH  28  29
ENDBRANCH  26  28
ENDBRANCH  22  25
ENDBRANCH   4  22
BRANCH   5  36
ATOM     36  C   UNL     1     -43.347  24.068  -0.614  0.00  0.00    +0.013 C 
ATOM     37  C   UNL     1     -44.038  24.593  -1.873  0.00  0.00    -0.015 C 
BRANCH  36  38
ATOM     38  N   UNL     1     -44.155  23.001  -0.033  0.00  0.00    +0.387 N 
ATOM     39  H   UNL     1     -44.270  22.251  -0.714  0.00  0.00    -0.089 HD
ATOM     40  H   UNL     1     -45.071  23.370   0.224  0.00  0.00    -0.089 HD
ATOM     41  H   UNL     1     -43.690  22.637   0.799  0.00  0.00    -0.089 HD
ENDBRANCH  36  38
ENDBRANCH   5  36
TORSDOF 10
ENDMDL
MODEL 3
REMARK VINA RESULT:      -5.9      3.683      6.227
REMARK  Name = 5487699
REMARK  10 active torsions:
REMARK  status: ('A' for Active; 'I' for Inactive)
REMARK    1  A    between atoms: N_3  and  C_6
REMARK    2  A    between atoms: C_4  and  C_22
REMARK    3  A    between atoms: C_5  and  C_36
REMARK    4  A    between atoms: C_6  and  C_10
REMARK    5  A    between atoms: N_9  and  C_13
REMARK    6  A    between atoms: C_22  and  N_25
REMARK    7  A    between atoms: C_26  and  O_28
REMARK    8  A    between atoms: O_28  and  C_29
REMARK    9  A    between atoms: C_29  and  C_30
REMARK   10  A    between atoms: C_36  and  N_38
REMARK                            x       y       z     vdW  Elec       q    Type
REMARK                         _______ _______ _______ _____ _____    ______ ____
ROOT
ATOM      1  O   UNL     1     -37.355  26.098   1.201  0.00  0.00    -0.273 OA
ATOM      2  O   UNL     1     -37.069  22.686  -0.806  0.00  0.00    -0.277 OA
ATOM      3  N   UNL     1     -37.517  23.765   1.220  0.00  0.00    -0.223 N 
ATOM      4  C   UNL     1     -37.648  25.056   1.792  0.00  0.00    +0.250 C 
ATOM      5  C   UNL     1     -37.656  23.574  -0.178  0.00  0.00    +0.211 C 
ENDROOT
BRANCH   3   6
ATOM      6  C   UNL     1     -37.237  22.632   2.105  0.00  0.00    +0.159 C 
ATOM      7  C   UNL     1     -38.065  21.418   1.715  0.00  0.00    +0.032 C 
BRANCH   6  10
ATOM      8  O   UNL     1     -34.901  23.076   2.507  0.00  0.00    -0.273 OA
ATOM      9  N   UNL     1     -35.514  21.136   1.337  0.00  0.00    -0.283 N 
ATOM     10  C   UNL     1     -35.743  22.320   2.032  0.00  0.00    +0.245 C 
ATOM     11  H   UNL     1     -36.311  20.670   0.996  0.00  0.00    +0.155 HD
BRANCH   9  13
ATOM     12  N   UNL     1     -30.606  18.688   0.286  0.00  0.00    -0.244 NA
ATOM     13  C   UNL     1     -34.266  20.524   1.064  0.00  0.00    +0.050 C 
ATOM     14  C   UNL     1     -33.333  21.165   0.255  0.00  0.00    +0.016 C 
ATOM     15  C   UNL     1     -32.094  20.560  -0.016  0.00  0.00    +0.019 C 
ATOM     16  C   UNL     1     -33.967  19.278   1.603  0.00  0.00    +0.016 C 
ATOM     17  C   UNL     1     -31.783  19.295   0.527  0.00  0.00    +0.081 C 
ATOM     18  C   UNL     1     -32.736  18.677   1.333  0.00  0.00    +0.020 C 
ATOM     19  C   UNL     1     -31.135  21.182  -0.827  0.00  0.00    +0.003 C 
ATOM     20  C   UNL     1     -29.922  20.559  -1.078  0.00  0.00    +0.021 C 
ATOM     21  C   UNL     1     -29.708  19.323  -0.502  0.00  0.00    +0.099 C 
ENDBRANCH   9  13
ENDBRANCH   6  10
ENDBRANCH   3   6
BRANCH   4  22
ATOM     22  C   UNL     1     -38.210  25.101   3.217  0.00  0.00    +0.152 C 
ATOM     23  C   UNL     1     -39.571  25.782   3.230  0.00  0.00    +0.031 C 
BRANCH  22  25
ATOM     24  O   UNL     1     -36.401  24.025   5.220  0.00  0.00    -0.226 OA
ATOM     25  N   UNL     1     -37.272  25.824   4.041  0.00  0.00    -0.264 N 
ATOM     26  C   UNL     1     -36.447  25.226   4.972  0.00  0.00    +0.402 C 
ATOM     27  H   UNL     1     -37.217  26.801   3.931  0.00  0.00    +0.153 HD
BRANCH  26  28
ATOM     28  O   UNL     1     -35.679  26.176   5.586  0.00  0.00    -0.430 OA
BRANCH  28  29
ATOM     29  C   UNL     1     -34.374  25.753   5.997  0.00  0.00    +0.237 C 
BRANCH  29  30
ATOM     30  C   UNL     1     -33.390  26.846   5.704  0.00  0.00    +0.021 C 
ATOM     31  C   UNL     1     -32.628  27.394   6.736  0.00  0.00    -0.001 C 
ATOM     32  C   UNL     1     -33.234  27.313   4.399  0.00  0.00    -0.001 C 
ATOM     33  C   UNL     1     -31.712  28.409   6.463  0.00  0.00    -0.000 C 
ATOM     34  C   UNL     1     -32.317  28.327   4.125  0.00  0.00    -0.000 C 
ATOM     35  C   UNL     1     -31.556  28.876   5.158  0.00  0.00    -0.000 C 
ENDBRANCH  29  30
ENDBRANCH  28  29
ENDBRANCH  26  28
ENDBRANCH  22  25
ENDBRANCH   4  22
BRANCH   5  36
ATOM     36  C   UNL     1     -38.579  24.542  -0.918  0.00  0.00    +0.013 C 
ATOM     37  C   UNL     1     -39.624  23.775  -1.727  0.00  0.00    -0.015 C 
BRANCH  36  38
ATOM     38  N   UNL     1     -37.740  25.316  -1.828  0.00  0.00    +0.387 N 
ATOM     39  H   UNL     1     -36.770  25.020  -1.732  0.00  0.00    -0.089 HD
ATOM     40  H   UNL     1     -37.817  26.308  -1.601  0.00  0.00    -0.089 HD
ATOM     41  H   UNL     1     -38.049  25.163  -2.788  0.00  0.00    -0.089 HD
ENDBRANCH  36  38
ENDBRANCH   5  36
TORSDOF 10
ENDMDL
MODEL 4
REMARK VINA RESULT:      -5.9      4.041      9.139
REMARK  Name = 5487699
REMARK  10 active torsions:
REMARK  status: ('A' for Active; 'I' for Inactive)
REMARK    1  A    between atoms: N_3  and  C_6
REMARK    2  A    between atoms: C_4  and  C_22
REMARK    3  A    between atoms: C_5  and  C_36
REMARK    4  A    between atoms: C_6  and  C_10
REMARK    5  A    between atoms: N_9  and  C_13
REMARK    6  A    between atoms: C_22  and  N_25
REMARK    7  A    between atoms: C_26  and  O_28
REMARK    8  A    between atoms: O_28  and  C_29
REMARK    9  A    between atoms: C_29  and  C_30
REMARK   10  A    between atoms: C_36  and  N_38
REMARK                            x       y       z     vdW  Elec       q    Type
REMARK                         _______ _______ _______ _____ _____    ______ ____
ROOT
ATOM      1  O   UNL     1     -32.591  30.356   5.408  0.00  0.00    -0.273 OA
ATOM      2  O   UNL     1     -29.682  27.665   5.195  0.00  0.00    -0.277 OA
ATOM      3  N   UNL     1     -31.005  29.248   4.094  0.00  0.00    -0.223 N 
ATOM      4  C   UNL     1     -32.007  30.223   4.330  0.00  0.00    +0.250 C 
ATOM      5  C   UNL     1     -30.167  28.800   5.147  0.00  0.00    +0.211 C 
ENDROOT
BRANCH   3   6
ATOM      6  C   UNL     1     -30.852  28.716   2.738  0.00  0.00    +0.159 C 
ATOM      7  C   UNL     1     -29.417  28.856   2.256  0.00  0.00    +0.032 C 
BRANCH   6  10
ATOM      8  O   UNL     1     -30.486  26.339   2.545  0.00  0.00    -0.273 OA
ATOM      9  N   UNL     1     -32.656  27.134   2.954  0.00  0.00    -0.283 N 
ATOM     10  C   UNL     1     -31.284  27.250   2.745  0.00  0.00    +0.245 C 
ATOM     11  H   UNL     1     -33.151  27.977   3.067  0.00  0.00    +0.155 HD
BRANCH   9  13
ATOM     12  N   UNL     1     -35.673  22.442   3.189  0.00  0.00    -0.244 NA
ATOM     13  C   UNL     1     -33.421  25.944   3.024  0.00  0.00    +0.050 C 
ATOM     14  C   UNL     1     -33.709  25.369   4.258  0.00  0.00    +0.016 C 
ATOM     15  C   UNL     1     -34.467  24.188   4.331  0.00  0.00    +0.019 C 
ATOM     16  C   UNL     1     -33.887  25.345   1.861  0.00  0.00    +0.016 C 
ATOM     17  C   UNL     1     -34.944  23.573   3.154  0.00  0.00    +0.081 C 
ATOM     18  C   UNL     1     -34.641  24.171   1.934  0.00  0.00    +0.020 C 
ATOM     19  C   UNL     1     -34.772  23.586   5.559  0.00  0.00    +0.003 C 
ATOM     20  C   UNL     1     -35.523  22.420   5.599  0.00  0.00    +0.021 C 
ATOM     21  C   UNL     1     -35.945  21.893   4.395  0.00  0.00    +0.099 C 
ENDBRANCH   9  13
ENDBRANCH   6  10
ENDBRANCH   3   6
BRANCH   4  22
ATOM     22  C   UNL     1     -32.328  31.150   3.153  0.00  0.00    +0.152 C 
ATOM     23  C   UNL     1     -31.588  32.472   3.300  0.00  0.00    +0.031 C 
BRANCH  22  25
ATOM     24  O   UNL     1     -34.360  29.495   1.898  0.00  0.00    -0.226 OA
ATOM     25  N   UNL     1     -33.754  31.365   3.132  0.00  0.00    -0.264 N 
ATOM     26  C   UNL     1     -34.649  30.520   2.508  0.00  0.00    +0.402 C 
ATOM     27  H   UNL     1     -34.108  32.160   3.592  0.00  0.00    +0.153 HD
BRANCH  26  28
ATOM     28  O   UNL     1     -35.920  30.995   2.668  0.00  0.00    -0.430 OA
BRANCH  28  29
ATOM     29  C   UNL     1     -36.623  31.315   1.462  0.00  0.00    +0.237 C 
BRANCH  29  30
ATOM     30  C   UNL     1     -37.028  32.759   1.498  0.00  0.00    +0.021 C 
ATOM     31  C   UNL     1     -38.319  33.112   1.893  0.00  0.00    -0.001 C 
ATOM     32  C   UNL     1     -36.114  33.749   1.138  0.00  0.00    -0.001 C 
ATOM     33  C   UNL     1     -38.695  34.454   1.928  0.00  0.00    -0.000 C 
ATOM     34  C   UNL     1     -36.490  35.092   1.173  0.00  0.00    -0.000 C 
ATOM     35  C   UNL     1     -37.781  35.444   1.568  0.00  0.00    -0.000 C 
ENDBRANCH  29  30
ENDBRANCH  28  29
ENDBRANCH  26  28
ENDBRANCH  22  25
ENDBRANCH   4  22
BRANCH   5  36
ATOM     36  C   UNL     1     -29.880  29.796   6.270  0.00  0.00    +0.013 C 
ATOM     37  C   UNL     1     -28.374  29.934   6.493  0.00  0.00    -0.015 C 
BRANCH  36  38
ATOM     38  N   UNL     1     -30.497  29.261   7.480  0.00  0.00    +0.387 N 
ATOM     39  H   UNL     1     -29.966  29.565   8.296  0.00  0.00    -0.089 HD
ATOM     40  H   UNL     1     -30.501  28.242   7.438  0.00  0.00    -0.089 HD
ATOM     41  H   UNL     1     -31.456  29.602   7.552  0.00  0.00    -0.089 HD
ENDBRANCH  36  38
ENDBRANCH   5  36
TORSDOF 10
ENDMDL
MODEL 5
REMARK VINA RESULT:      -5.8      2.571      4.393
REMARK  Name = 5487699
REMARK  10 active torsions:
REMARK  status: ('A' for Active; 'I' for Inactive)
REMARK    1  A    between atoms: N_3  and  C_6
REMARK    2  A    between atoms: C_4  and  C_22
REMARK    3  A    between atoms: C_5  and  C_36
REMARK    4  A    between atoms: C_6  and  C_10
REMARK    5  A    between atoms: N_9  and  C_13
REMARK    6  A    between atoms: C_22  and  N_25
REMARK    7  A    between atoms: C_26  and  O_28
REMARK    8  A    between atoms: O_28  and  C_29
REMARK    9  A    between atoms: C_29  and  C_30
REMARK   10  A    between atoms: C_36  and  N_38
REMARK                            x       y       z     vdW  Elec       q    Type
REMARK                         _______ _______ _______ _____ _____    ______ ____
ROOT
ATOM      1  O   UNL     1     -37.414  24.748   4.605  0.00  0.00    -0.273 OA
ATOM      2  O   UNL     1     -37.578  24.035   0.704  0.00  0.00    -0.277 OA
ATOM      3  N   UNL     1     -36.281  24.156   2.646  0.00  0.00    -0.223 N 
ATOM      4  C   UNL     1     -36.381  24.372   4.043  0.00  0.00    +0.250 C 
ATOM      5  C   UNL     1     -37.409  23.743   1.893  0.00  0.00    +0.211 C 
ENDROOT
BRANCH   3   6
ATOM      6  C   UNL     1     -34.985  24.367   1.997  0.00  0.00    +0.159 C 
ATOM      7  C   UNL     1     -34.702  23.276   0.977  0.00  0.00    +0.032 C 
BRANCH   6  10
ATOM      8  O   UNL     1     -34.851  25.879   0.122  0.00  0.00    -0.273 OA
ATOM      9  N   UNL     1     -35.144  26.754   2.280  0.00  0.00    -0.283 N 
ATOM     10  C   UNL     1     -34.997  25.744   1.333  0.00  0.00    +0.245 C 
ATOM     11  H   UNL     1     -35.218  26.464   3.218  0.00  0.00    +0.155 HD
BRANCH   9  13
ATOM     12  N   UNL     1     -35.399  32.254   1.355  0.00  0.00    -0.244 NA
ATOM     13  C   UNL     1     -35.199  28.150   2.051  0.00  0.00    +0.050 C 
ATOM     14  C   UNL     1     -34.186  28.979   2.525  0.00  0.00    +0.016 C 
ATOM     15  C   UNL     1     -34.239  30.365   2.298  0.00  0.00    +0.019 C 
ATOM     16  C   UNL     1     -36.265  28.701   1.351  0.00  0.00    +0.016 C 
ATOM     17  C   UNL     1     -35.318  30.931   1.589  0.00  0.00    +0.081 C 
ATOM     18  C   UNL     1     -36.317  30.078   1.126  0.00  0.00    +0.020 C 
ATOM     19  C   UNL     1     -33.234  31.223   2.764  0.00  0.00    +0.003 C 
ATOM     20  C   UNL     1     -33.313  32.587   2.525  0.00  0.00    +0.021 C 
ATOM     21  C   UNL     1     -34.408  33.048   1.821  0.00  0.00    +0.099 C 
ENDBRANCH   9  13
ENDBRANCH   6  10
ENDBRANCH   3   6
BRANCH   4  22
ATOM     22  C   UNL     1     -35.115  24.085   4.857  0.00  0.00    +0.152 C 
ATOM     23  C   UNL     1     -35.368  22.970   5.860  0.00  0.00    +0.031 C 
BRANCH  22  25
ATOM     24  O   UNL     1     -32.947  25.898   4.182  0.00  0.00    -0.226 OA
ATOM     25  N   UNL     1     -34.737  25.301   5.533  0.00  0.00    -0.264 N 
ATOM     26  C   UNL     1     -33.686  26.105   5.140  0.00  0.00    +0.402 C 
ATOM     27  H   UNL     1     -35.260  25.574   6.322  0.00  0.00    +0.153 HD
BRANCH  26  28
ATOM     28  O   UNL     1     -33.585  27.178   5.980  0.00  0.00    -0.430 OA
BRANCH  28  29
ATOM     29  C   UNL     1     -32.304  27.377   6.587  0.00  0.00    +0.237 C 
BRANCH  29  30
ATOM     30  C   UNL     1     -31.665  28.599   5.996  0.00  0.00    +0.021 C 
ATOM     31  C   UNL     1     -30.712  28.469   4.986  0.00  0.00    -0.001 C 
ATOM     32  C   UNL     1     -32.026  29.866   6.456  0.00  0.00    -0.001 C 
ATOM     33  C   UNL     1     -30.119  29.605   4.436  0.00  0.00    -0.000 C 
ATOM     34  C   UNL     1     -31.433  31.002   5.905  0.00  0.00    -0.000 C 
ATOM     35  C   UNL     1     -30.480  30.872   4.895  0.00  0.00    -0.000 C 
ENDBRANCH  29  30
ENDBRANCH  28  29
ENDBRANCH  26  28
ENDBRANCH  22  25
ENDBRANCH   4  22
BRANCH   5  36
ATOM     36  C   UNL     1     -38.457  22.905   2.625  0.00  0.00    +0.013 C 
ATOM     37  C   UNL     1     -38.758  21.624   1.847  0.00  0.00    -0.015 C 
BRANCH  36  38
ATOM     38  N   UNL     1     -39.669  23.714   2.704  0.00  0.00    +0.387 N 
ATOM     39  H   UNL     1     -39.711  24.174   3.613  0.00  0.00    -0.089 HD
ATOM     40  H   UNL     1     -40.486  23.115   2.589  0.00  0.00    -0.089 HD
ATOM     41  H   UNL     1     -39.657  24.419   1.967  0.00  0.00    -0.089 HD
ENDBRANCH  36  38
ENDBRANCH   5  36
TORSDOF 10
ENDMDL
MODEL 6
REMARK VINA RESULT:      -5.7      4.033      6.043
REMARK  Name = 5487699
REMARK  10 active torsions:
REMARK  status: ('A' for Active; 'I' for Inactive)
REMARK    1  A    between atoms: N_3  and  C_6
REMARK    2  A    between atoms: C_4  and  C_22
REMARK    3  A    between atoms: C_5  and  C_36
REMARK    4  A    between atoms: C_6  and  C_10
REMARK    5  A    between atoms: N_9  and  C_13
REMARK    6  A    between atoms: C_22  and  N_25
REMARK    7  A    between atoms: C_26  and  O_28
REMARK    8  A    between atoms: O_28  and  C_29
REMARK    9  A    between atoms: C_29  and  C_30
REMARK   10  A    between atoms: C_36  and  N_38
REMARK                            x       y       z     vdW  Elec       q    Type
REMARK                         _______ _______ _______ _____ _____    ______ ____
ROOT
ATOM      1  O   UNL     1     -36.490  26.236   4.920  0.00  0.00    -0.273 OA
ATOM      2  O   UNL     1     -37.683  27.544   1.368  0.00  0.00    -0.277 OA
ATOM      3  N   UNL     1     -35.908  26.943   2.767  0.00  0.00    -0.223 N 
ATOM      4  C   UNL     1     -35.631  26.409   4.051  0.00  0.00    +0.250 C 
ATOM      5  C   UNL     1     -37.171  26.741   2.155  0.00  0.00    +0.211 C 
ENDROOT
BRANCH   3   6
ATOM      6  C   UNL     1     -34.861  27.708   2.087  0.00  0.00    +0.159 C 
ATOM      7  C   UNL     1     -34.921  27.496   0.583  0.00  0.00    +0.032 C 
BRANCH   6  10
ATOM      8  O   UNL     1     -34.777  29.621   3.553  0.00  0.00    -0.273 OA
ATOM      9  N   UNL     1     -35.560  29.895   1.358  0.00  0.00    -0.283 N 
ATOM     10  C   UNL     1     -35.039  29.185   2.437  0.00  0.00    +0.245 C 
ATOM     11  H   UNL     1     -35.740  29.376   0.542  0.00  0.00    +0.155 HD
BRANCH   9  13
ATOM     12  N   UNL     1     -36.705  35.355   1.116  0.00  0.00    -0.244 NA
ATOM     13  C   UNL     1     -35.861  31.278   1.300  0.00  0.00    +0.050 C 
ATOM     14  C   UNL     1     -37.142  31.729   1.601  0.00  0.00    +0.016 C 
ATOM     15  C   UNL     1     -37.443  33.101   1.544  0.00  0.00    +0.019 C 
ATOM     16  C   UNL     1     -34.877  32.191   0.941  0.00  0.00    +0.016 C 
ATOM     17  C   UNL     1     -36.450  34.035   1.180  0.00  0.00    +0.081 C 
ATOM     18  C   UNL     1     -35.177  33.554   0.885  0.00  0.00    +0.020 C 
ATOM     19  C   UNL     1     -38.724  33.584   1.842  0.00  0.00    +0.003 C 
ATOM     20  C   UNL     1     -38.991  34.944   1.776  0.00  0.00    +0.021 C 
ATOM     21  C   UNL     1     -37.955  35.780   1.411  0.00  0.00    +0.099 C 
ENDBRANCH   9  13
ENDBRANCH   6  10
ENDBRANCH   3   6
BRANCH   4  22
ATOM     22  C   UNL     1     -34.172  26.019   4.312  0.00  0.00    +0.152 C 
ATOM     23  C   UNL     1     -34.092  24.613   4.888  0.00  0.00    +0.031 C 
BRANCH  22  25
ATOM     24  O   UNL     1     -31.733  27.569   4.010  0.00  0.00    -0.226 OA
ATOM     25  N   UNL     1     -33.615  26.979   5.233  0.00  0.00    -0.264 N 
ATOM     26  C   UNL     1     -32.444  27.673   5.005  0.00  0.00    +0.402 C 
ATOM     27  H   UNL     1     -34.100  27.149   6.073  0.00  0.00    +0.153 HD
BRANCH  26  28
ATOM     28  O   UNL     1     -32.185  28.502   6.060  0.00  0.00    -0.430 OA
BRANCH  28  29
ATOM     29  C   UNL     1     -31.923  29.871   5.729  0.00  0.00    +0.237 C 
BRANCH  29  30
ATOM     30  C   UNL     1     -30.463  30.152   5.925  0.00  0.00    +0.021 C 
ATOM     31  C   UNL     1     -29.737  29.438   6.879  0.00  0.00    -0.001 C 
ATOM     32  C   UNL     1     -29.830  31.126   5.154  0.00  0.00    -0.001 C 
ATOM     33  C   UNL     1     -28.380  29.699   7.061  0.00  0.00    -0.000 C 
ATOM     34  C   UNL     1     -28.472  31.386   5.335  0.00  0.00    -0.000 C 
ATOM     35  C   UNL     1     -27.747  30.673   6.290  0.00  0.00    -0.000 C 
ENDBRANCH  29  30
ENDBRANCH  28  29
ENDBRANCH  26  28
ENDBRANCH  22  25
ENDBRANCH   4  22
BRANCH   5  36
ATOM     36  C   UNL     1     -37.915  25.456   2.518  0.00  0.00    +0.013 C 
ATOM     37  C   UNL     1     -38.361  24.718   1.256  0.00  0.00    -0.015 C 
BRANCH  36  38
ATOM     38  N   UNL     1     -39.093  25.850   3.285  0.00  0.00    +0.387 N 
ATOM     39  H   UNL     1     -39.899  25.309   2.973  0.00  0.00    -0.089 HD
ATOM     40  H   UNL     1     -39.275  26.844   3.143  0.00  0.00    -0.089 HD
ATOM     41  H   UNL     1     -38.928  25.673   4.276  0.00  0.00    -0.089 HD
ENDBRANCH  36  38
ENDBRANCH   5  36
TORSDOF 10
ENDMDL
MODEL 7
REMARK VINA RESULT:      -5.7      3.910      9.169
REMARK  Name = 5487699
REMARK  10 active torsions:
REMARK  status: ('A' for Active; 'I' for Inactive)
REMARK    1  A    between atoms: N_3  and  C_6
REMARK    2  A    between atoms: C_4  and  C_22
REMARK    3  A    between atoms: C_5  and  C_36
REMARK    4  A    between atoms: C_6  and  C_10
REMARK    5  A    between atoms: N_9  and  C_13
REMARK    6  A    between atoms: C_22  and  N_25
REMARK    7  A    between atoms: C_26  and  O_28
REMARK    8  A    between atoms: O_28  and  C_29
REMARK    9  A    between atoms: C_29  and  C_30
REMARK   10  A    between atoms: C_36  and  N_38
REMARK                            x       y       z     vdW  Elec       q    Type
REMARK                         _______ _______ _______ _____ _____    ______ ____
ROOT
ATOM      1  O   UNL     1     -32.858  30.568   5.357  0.00  0.00    -0.273 OA
ATOM      2  O   UNL     1     -30.133  27.683   5.305  0.00  0.00    -0.277 OA
ATOM      3  N   UNL     1     -31.353  29.282   4.111  0.00  0.00    -0.223 N 
ATOM      4  C   UNL     1     -32.288  30.333   4.288  0.00  0.00    +0.250 C 
ATOM      5  C   UNL     1     -30.543  28.844   5.189  0.00  0.00    +0.211 C 
ENDROOT
BRANCH   3   6
ATOM      6  C   UNL     1     -31.240  28.660   2.790  0.00  0.00    +0.159 C 
ATOM      7  C   UNL     1     -29.817  28.751   2.264  0.00  0.00    +0.032 C 
BRANCH   6  10
ATOM      8  O   UNL     1     -30.982  26.278   2.514  0.00  0.00    -0.273 OA
ATOM      9  N   UNL     1     -32.969  27.115   3.443  0.00  0.00    -0.283 N 
ATOM     10  C   UNL     1     -31.688  27.203   2.903  0.00  0.00    +0.245 C 
ATOM     11  H   UNL     1     -33.404  27.967   3.673  0.00  0.00    +0.155 HD
BRANCH   9  13
ATOM     12  N   UNL     1     -35.921  22.494   4.494  0.00  0.00    -0.244 NA
ATOM     13  C   UNL     1     -33.718  25.940   3.699  0.00  0.00    +0.050 C 
ATOM     14  C   UNL     1     -34.094  25.107   2.650  0.00  0.00    +0.016 C 
ATOM     15  C   UNL     1     -34.837  23.941   2.901  0.00  0.00    +0.019 C 
ATOM     16  C   UNL     1     -34.081  25.614   5.000  0.00  0.00    +0.016 C 
ATOM     17  C   UNL     1     -35.210  23.603   4.219  0.00  0.00    +0.081 C 
ATOM     18  C   UNL     1     -34.819  24.455   5.249  0.00  0.00    +0.020 C 
ATOM     19  C   UNL     1     -35.230  23.084   1.865  0.00  0.00    +0.003 C 
ATOM     20  C   UNL     1     -35.964  21.940   2.145  0.00  0.00    +0.021 C 
ATOM     21  C   UNL     1     -36.281  21.693   3.465  0.00  0.00    +0.099 C 
ENDBRANCH   9  13
ENDBRANCH   6  10
ENDBRANCH   3   6
BRANCH   4  22
ATOM     22  C   UNL     1     -32.551  31.207   3.057  0.00  0.00    +0.152 C 
ATOM     23  C   UNL     1     -31.752  32.499   3.143  0.00  0.00    +0.031 C 
BRANCH  22  25
ATOM     24  O   UNL     1     -34.678  29.459   2.128  0.00  0.00    -0.226 OA
ATOM     25  N   UNL     1     -33.965  31.486   3.005  0.00  0.00    -0.264 N 
ATOM     26  C   UNL     1     -34.909  30.590   2.546  0.00  0.00    +0.402 C 
ATOM     27  H   UNL     1     -34.275  32.368   3.317  0.00  0.00    +0.153 HD
BRANCH  26  28
ATOM     28  O   UNL     1     -36.154  31.149   2.624  0.00  0.00    -0.430 OA
BRANCH  28  29
ATOM     29  C   UNL     1     -36.747  31.529   1.377  0.00  0.00    +0.237 C 
BRANCH  29  30
ATOM     30  C   UNL     1     -37.164  32.967   1.450  0.00  0.00    +0.021 C 
ATOM     31  C   UNL     1     -36.274  33.973   1.072  0.00  0.00    -0.001 C 
ATOM     32  C   UNL     1     -38.444  33.301   1.894  0.00  0.00    -0.001 C 
ATOM     33  C   UNL     1     -36.662  35.310   1.139  0.00  0.00    -0.000 C 
ATOM     34  C   UNL     1     -38.833  34.638   1.960  0.00  0.00    -0.000 C 
ATOM     35  C   UNL     1     -37.942  35.643   1.583  0.00  0.00    -0.000 C 
ENDBRANCH  29  30
ENDBRANCH  28  29
ENDBRANCH  26  28
ENDBRANCH  22  25
ENDBRANCH   4  22
BRANCH   5  36
ATOM     36  C   UNL     1     -30.187  29.883   6.251  0.00  0.00    +0.013 C 
ATOM     37  C   UNL     1     -28.677  29.913   6.489  0.00  0.00    -0.015 C 
BRANCH  36  38
ATOM     38  N   UNL     1     -30.859  29.481   7.483  0.00  0.00    +0.387 N 
ATOM     39  H   UNL     1     -30.942  30.285   8.104  0.00  0.00    -0.089 HD
ATOM     40  H   UNL     1     -30.316  28.751   7.944  0.00  0.00    -0.089 HD
ATOM     41  H   UNL     1     -31.789  29.124   7.262  0.00  0.00    -0.089 HD
ENDBRANCH  36  38
ENDBRANCH   5  36
TORSDOF 10
ENDMDL
MODEL 8
REMARK VINA RESULT:      -5.6      2.873      7.835
REMARK  Name = 5487699
REMARK  10 active torsions:
REMARK  status: ('A' for Active; 'I' for Inactive)
REMARK    1  A    between atoms: N_3  and  C_6
REMARK    2  A    between atoms: C_4  and  C_22
REMARK    3  A    between atoms: C_5  and  C_36
REMARK    4  A    between atoms: C_6  and  C_10
REMARK    5  A    between atoms: N_9  and  C_13
REMARK    6  A    between atoms: C_22  and  N_25
REMARK    7  A    between atoms: C_26  and  O_28
REMARK    8  A    between atoms: O_28  and  C_29
REMARK    9  A    between atoms: C_29  and  C_30
REMARK   10  A    between atoms: C_36  and  N_38
REMARK                            x       y       z     vdW  Elec       q    Type
REMARK                         _______ _______ _______ _____ _____    ______ ____
ROOT
ATOM      1  O   UNL     1     -35.859  26.685   5.343  0.00  0.00    -0.273 OA
ATOM      2  O   UNL     1     -37.482  23.400   3.819  0.00  0.00    -0.277 OA
ATOM      3  N   UNL     1     -36.244  25.351   3.460  0.00  0.00    -0.223 N 
ATOM      4  C   UNL     1     -35.662  26.446   4.148  0.00  0.00    +0.250 C 
ATOM      5  C   UNL     1     -36.552  24.147   4.143  0.00  0.00    +0.211 C 
ENDROOT
BRANCH   3   6
ATOM      6  C   UNL     1     -36.518  25.491   2.028  0.00  0.00    +0.159 C 
ATOM      7  C   UNL     1     -36.477  24.141   1.331  0.00  0.00    +0.032 C 
BRANCH   6  10
ATOM      8  O   UNL     1     -38.004  27.346   1.621  0.00  0.00    -0.273 OA
ATOM      9  N   UNL     1     -38.913  25.228   2.064  0.00  0.00    -0.283 N 
ATOM     10  C   UNL     1     -37.888  26.149   1.862  0.00  0.00    +0.245 C 
ATOM     11  H   UNL     1     -38.635  24.309   2.279  0.00  0.00    +0.155 HD
BRANCH   9  13
ATOM     12  N   UNL     1     -44.415  26.125   1.755  0.00  0.00    -0.244 NA
ATOM     13  C   UNL     1     -40.308  25.461   1.995  0.00  0.00    +0.050 C 
ATOM     14  C   UNL     1     -40.948  26.182   2.998  0.00  0.00    +0.016 C 
ATOM     15  C   UNL     1     -42.332  26.415   2.932  0.00  0.00    +0.019 C 
ATOM     16  C   UNL     1     -41.045  24.970   0.924  0.00  0.00    +0.016 C 
ATOM     17  C   UNL     1     -43.088  25.920   1.848  0.00  0.00    +0.081 C 
ATOM     18  C   UNL     1     -42.421  25.202   0.859  0.00  0.00    +0.020 C 
ATOM     19  C   UNL     1     -43.003  27.138   3.928  0.00  0.00    +0.003 C 
ATOM     20  C   UNL     1     -44.371  27.351   3.834  0.00  0.00    +0.021 C 
ATOM     21  C   UNL     1     -45.024  26.827   2.737  0.00  0.00    +0.099 C 
ENDBRANCH   9  13
ENDBRANCH   6  10
ENDBRANCH   3   6
BRANCH   4  22
ATOM     22  C   UNL     1     -34.728  27.335   3.321  0.00  0.00    +0.152 C 
ATOM     23  C   UNL     1     -33.415  27.557   4.057  0.00  0.00    +0.031 C 
BRANCH  22  25
ATOM     24  O   UNL     1     -34.466  29.098   1.026  0.00  0.00    -0.226 OA
ATOM     25  N   UNL     1     -35.399  28.590   3.089  0.00  0.00    -0.264 N 
ATOM     26  C   UNL     1     -35.213  29.365   1.963  0.00  0.00    +0.402 C 
ATOM     27  H   UNL     1     -36.028  28.911   3.775  0.00  0.00    +0.153 HD
BRANCH  26  28
ATOM     28  O   UNL     1     -35.988  30.488   2.041  0.00  0.00    -0.430 OA
BRANCH  28  29
ATOM     29  C   UNL     1     -35.991  31.327   0.880  0.00  0.00    +0.237 C 
BRANCH  29  30
ATOM     30  C   UNL     1     -36.695  32.611   1.205  0.00  0.00    +0.021 C 
ATOM     31  C   UNL     1     -36.072  33.832   0.951  0.00  0.00    -0.001 C 
ATOM     32  C   UNL     1     -37.975  32.583   1.759  0.00  0.00    -0.001 C 
ATOM     33  C   UNL     1     -36.727  35.026   1.252  0.00  0.00    -0.000 C 
ATOM     34  C   UNL     1     -38.631  33.777   2.060  0.00  0.00    -0.000 C 
ATOM     35  C   UNL     1     -38.006  34.999   1.807  0.00  0.00    -0.000 C 
ENDBRANCH  29  30
ENDBRANCH  28  29
ENDBRANCH  26  28
ENDBRANCH  22  25
ENDBRANCH   4  22
BRANCH   5  36
ATOM     36  C   UNL     1     -35.676  23.792   5.343  0.00  0.00    +0.013 C 
ATOM     37  C   UNL     1     -34.214  23.658   4.921  0.00  0.00    -0.015 C 
BRANCH  36  38
ATOM     38  N   UNL     1     -36.149  22.506   5.848  0.00  0.00    +0.387 N 
ATOM     39  H   UNL     1     -35.835  21.760   5.228  0.00  0.00    -0.089 HD
ATOM     40  H   UNL     1     -37.169  22.510   5.885  0.00  0.00    -0.089 HD
ATOM     41  H   UNL     1     -35.776  22.350   6.785  0.00  0.00    -0.089 HD
ENDBRANCH  36  38
ENDBRANCH   5  36
TORSDOF 10
ENDMDL
MODEL 9
REMARK VINA RESULT:      -5.5      5.318      7.948
REMARK  Name = 5487699
REMARK  10 active torsions:
REMARK  status: ('A' for Active; 'I' for Inactive)
REMARK    1  A    between atoms: N_3  and  C_6
REMARK    2  A    between atoms: C_4  and  C_22
REMARK    3  A    between atoms: C_5  and  C_36
REMARK    4  A    between atoms: C_6  and  C_10
REMARK    5  A    between atoms: N_9  and  C_13
REMARK    6  A    between atoms: C_22  and  N_25
REMARK    7  A    between atoms: C_26  and  O_28
REMARK    8  A    between atoms: O_28  and  C_29
REMARK    9  A    between atoms: C_29  and  C_30
REMARK   10  A    between atoms: C_36  and  N_38
REMARK                            x       y       z     vdW  Elec       q    Type
REMARK                         _______ _______ _______ _____ _____    ______ ____
ROOT
ATOM      1  O   UNL     1     -39.026  21.887   2.428  0.00  0.00    -0.273 OA
ATOM      2  O   UNL     1     -36.457  24.912   2.449  0.00  0.00    -0.277 OA
ATOM      3  N   UNL     1     -37.374  23.095   1.297  0.00  0.00    -0.223 N 
ATOM      4  C   UNL     1     -38.377  22.099   1.401  0.00  0.00    +0.250 C 
ATOM      5  C   UNL     1     -37.450  24.284   2.065  0.00  0.00    +0.211 C 
ENDROOT
BRANCH   3   6
ATOM      6  C   UNL     1     -36.256  22.870   0.377  0.00  0.00    +0.159 C 
ATOM      7  C   UNL     1     -35.649  24.188  -0.077  0.00  0.00    +0.032 C 
BRANCH   6  10
ATOM      8  O   UNL     1     -34.991  22.117   2.287  0.00  0.00    -0.273 OA
ATOM      9  N   UNL     1     -34.573  21.157   0.186  0.00  0.00    -0.283 N 
ATOM     10  C   UNL     1     -35.215  22.004   1.086  0.00  0.00    +0.245 C 
ATOM     11  H   UNL     1     -34.860  21.221  -0.753  0.00  0.00    +0.155 HD
BRANCH   9  13
ATOM     12  N   UNL     1     -30.586  17.415   1.314  0.00  0.00    -0.244 NA
ATOM     13  C   UNL     1     -33.555  20.214   0.466  0.00  0.00    +0.050 C 
ATOM     14  C   UNL     1     -32.289  20.362  -0.093  0.00  0.00    +0.016 C 
ATOM     15  C   UNL     1     -31.277  19.428   0.184  0.00  0.00    +0.019 C 
ATOM     16  C   UNL     1     -33.815  19.134   1.300  0.00  0.00    +0.016 C 
ATOM     17  C   UNL     1     -31.533  18.328   1.029  0.00  0.00    +0.081 C 
ATOM     18  C   UNL     1     -32.808  18.205   1.575  0.00  0.00    +0.020 C 
ATOM     19  C   UNL     1     -29.993  19.552  -0.365  0.00  0.00    +0.003 C 
ATOM     20  C   UNL     1     -29.015  18.613  -0.074  0.00  0.00    +0.021 C 
ATOM     21  C   UNL     1     -29.360  17.572   0.764  0.00  0.00    +0.099 C 
ENDBRANCH   9  13
ENDBRANCH   6  10
ENDBRANCH   3   6
BRANCH   4  22
ATOM     22  C   UNL     1     -38.645  21.285   0.130  0.00  0.00    +0.152 C 
ATOM     23  C   UNL     1     -40.141  21.186  -0.132  0.00  0.00    +0.031 C 
BRANCH  22  25
ATOM     24  O   UNL     1     -36.816  19.877  -1.635  0.00  0.00    -0.226 OA
ATOM     25  N   UNL     1     -38.073  19.974   0.314  0.00  0.00    -0.264 N 
ATOM     26  C   UNL     1     -37.208  19.381  -0.583  0.00  0.00    +0.402 C 
ATOM     27  H   UNL     1     -38.315  19.474   1.126  0.00  0.00    +0.153 HD
BRANCH  26  28
ATOM     28  O   UNL     1     -36.845  18.145  -0.126  0.00  0.00    -0.430 OA
BRANCH  28  29
ATOM     29  C   UNL     1     -36.716  17.124  -1.121  0.00  0.00    +0.237 C 
BRANCH  29  30
ATOM     30  C   UNL     1     -35.268  16.754  -1.260  0.00  0.00    +0.021 C 
ATOM     31  C   UNL     1     -34.747  15.687  -0.527  0.00  0.00    -0.001 C 
ATOM     32  C   UNL     1     -34.443  17.476  -2.122  0.00  0.00    -0.001 C 
ATOM     33  C   UNL     1     -33.402  15.343  -0.656  0.00  0.00    -0.000 C 
ATOM     34  C   UNL     1     -33.098  17.132  -2.252  0.00  0.00    -0.000 C 
ATOM     35  C   UNL     1     -32.577  16.065  -1.519  0.00  0.00    -0.000 C 
ENDBRANCH  29  30
ENDBRANCH  28  29
ENDBRANCH  26  28
ENDBRANCH  22  25
ENDBRANCH   4  22
BRANCH   5  36
ATOM     36  C   UNL     1     -38.849  24.780   2.429  0.00  0.00    +0.013 C 
ATOM     37  C   UNL     1     -39.162  26.087   1.701  0.00  0.00    -0.015 C 
BRANCH  36  38
ATOM     38  N   UNL     1     -38.853  25.021   3.869  0.00  0.00    +0.387 N 
ATOM     39  H   UNL     1     -39.811  25.166   4.187  0.00  0.00    -0.089 HD
ATOM     40  H   UNL     1     -38.296  25.850   4.077  0.00  0.00    -0.089 HD
ATOM     41  H   UNL     1     -38.454  24.214   4.350  0.00  0.00    -0.089 HD
ENDBRANCH  36  38
ENDBRANCH   5  36
TORSDOF 10
ENDMDL
