MODEL 1
REMARK VINA RESULT:      -7.3      0.000      0.000
REMARK  Name = 196470
REMARK  6 active torsions:
REMARK  status: ('A' for Active; 'I' for Inactive)
REMARK    1  A    between atoms: C_2  and  O_32
REMARK    2  A    between atoms: C_4  and  N_8
REMARK    3  A    between atoms: C_5  and  C_18
REMARK    4  A    between atoms: N_17  and  C_20
REMARK    5  A    between atoms: C_20  and  C_21
REMARK    6  A    between atoms: C_21  and  C_23
REMARK                            x       y       z     vdW  Elec       q    Type
REMARK                         _______ _______ _______ _____ _____    ______ ____
ROOT
ATOM      1  O   UNL     1     -39.475  22.194   2.148  0.00  0.00    -0.328 OA
ATOM      2  C   UNL     1     -40.365  22.741   0.006  0.00  0.00    +0.151 C 
ATOM      3  C   UNL     1     -39.763  23.981   0.627  0.00  0.00    +0.084 C 
ATOM      4  C   UNL     1     -39.707  23.607   2.097  0.00  0.00    +0.202 C 
ATOM      5  C   UNL     1     -39.843  21.621   0.888  0.00  0.00    +0.219 C 
ENDROOT
BRANCH   4   8
ATOM      6  O   UNL     1     -39.833  26.300   2.977  0.00  0.00    -0.252 OA
ATOM      7  O   UNL     1     -35.618  26.050   4.800  0.00  0.00    -0.270 OA
ATOM      8  N   UNL     1     -38.664  24.289   2.806  0.00  0.00    -0.219 N 
ATOM      9  N   UNL     1     -37.729  26.161   3.881  0.00  0.00    -0.236 N 
ATOM     10  C   UNL     1     -37.510  23.585   3.083  0.00  0.00    +0.071 C 
ATOM     11  C   UNL     1     -38.826  25.624   3.198  0.00  0.00    +0.315 C 
ATOM     12  C   UNL     1     -36.463  24.102   3.738  0.00  0.00    +0.047 C 
ATOM     13  C   UNL     1     -36.543  25.515   4.193  0.00  0.00    +0.250 C 
ATOM     14  C   UNL     1     -35.214  23.337   4.037  0.00  0.00    +0.037 C 
ATOM     15  H   UNL     1     -37.809  27.099   4.171  0.00  0.00    +0.159 HD
ENDBRANCH   4   8
BRANCH   5  18
ATOM     16  O   UNL     1     -38.304  21.065  -0.846  0.00  0.00    -0.272 OA
ATOM     17  N   UNL     1     -37.851  20.374   1.331  0.00  0.00    -0.302 N 
ATOM     18  C   UNL     1     -38.592  21.007   0.347  0.00  0.00    +0.252 C 
ATOM     19  H   UNL     1     -38.187  20.395   2.256  0.00  0.00    +0.150 HD
BRANCH  17  20
ATOM     20  C   UNL     1     -36.611  19.682   1.064  0.00  0.00    +0.094 C 
BRANCH  20  21
ATOM     21  C   UNL     1     -35.454  20.205   1.914  0.00  0.00    +0.049 C 
BRANCH  21  23
ATOM     22  N   UNL     1     -32.804  21.600  -0.176  0.00  0.00    -0.312 N 
ATOM     23  C   UNL     1     -34.227  20.530   1.111  0.00  0.00    -0.005 C 
ATOM     24  C   UNL     1     -33.102  19.698   0.953  0.00  0.00    +0.011 C 
ATOM     25  C   UNL     1     -32.213  20.395   0.133  0.00  0.00    +0.048 C 
ATOM     26  C   UNL     1     -34.034  21.687   0.418  0.00  0.00    +0.058 C 
ATOM     27  C   UNL     1     -32.737  18.419   1.417  0.00  0.00    +0.001 C 
ATOM     28  C   UNL     1     -30.970  19.876  -0.246  0.00  0.00    +0.015 C 
ATOM     29  C   UNL     1     -31.497  17.886   1.046  0.00  0.00    +0.000 C 
ATOM     30  C   UNL     1     -30.629  18.606   0.226  0.00  0.00    +0.001 C 
ATOM     31  H   UNL     1     -32.402  22.297  -0.742  0.00  0.00    +0.152 HD
ENDBRANCH  21  23
ENDBRANCH  20  21
ENDBRANCH  17  20
ENDBRANCH   5  18
BRANCH   2  32
ATOM     32  O   UNL     1     -41.784  22.782   0.113  0.00  0.00    -0.381 OA
ATOM     33  H   UNL     1     -42.087  23.702   0.056  0.00  0.00    +0.210 HD
ENDBRANCH   2  32
TORSDOF 6
ENDMDL
MODEL 2
REMARK VINA RESULT:      -7.2      2.040      3.081
REMARK  Name = 196470
REMARK  6 active torsions:
REMARK  status: ('A' for Active; 'I' for Inactive)
REMARK    1  A    between atoms: C_2  and  O_32
REMARK    2  A    between atoms: C_4  and  N_8
REMARK    3  A    between atoms: C_5  and  C_18
REMARK    4  A    between atoms: N_17  and  C_20
REMARK    5  A    between atoms: C_20  and  C_21
REMARK    6  A    between atoms: C_21  and  C_23
REMARK                            x       y       z     vdW  Elec       q    Type
REMARK                         _______ _______ _______ _____ _____    ______ ____
ROOT
ATOM      1  O   UNL     1     -37.495  24.447   3.812  0.00  0.00    -0.328 OA
ATOM      2  C   UNL     1     -39.165  25.558   2.523  0.00  0.00    +0.151 C 
ATOM      3  C   UNL     1     -37.864  26.319   2.417  0.00  0.00    +0.084 C 
ATOM      4  C   UNL     1     -37.094  25.809   3.621  0.00  0.00    +0.202 C 
ATOM      5  C   UNL     1     -38.746  24.237   3.143  0.00  0.00    +0.219 C 
ENDROOT
BRANCH   4   8
ATOM      6  O   UNL     1     -35.219  26.387   5.668  0.00  0.00    -0.252 OA
ATOM      7  O   UNL     1     -31.691  25.987   2.746  0.00  0.00    -0.270 OA
ATOM      8  N   UNL     1     -35.673  25.867   3.440  0.00  0.00    -0.219 N 
ATOM      9  N   UNL     1     -33.469  26.185   4.200  0.00  0.00    -0.236 N 
ATOM     10  C   UNL     1     -35.176  25.624   2.176  0.00  0.00    +0.071 C 
ATOM     11  C   UNL     1     -34.831  26.161   4.521  0.00  0.00    +0.315 C 
ATOM     12  C   UNL     1     -33.872  25.647   1.873  0.00  0.00    +0.047 C 
ATOM     13  C   UNL     1     -32.901  25.951   2.957  0.00  0.00    +0.250 C 
ATOM     14  C   UNL     1     -33.336  25.383   0.503  0.00  0.00    +0.037 C 
ATOM     15  H   UNL     1     -32.848  26.390   4.935  0.00  0.00    +0.159 HD
ENDBRANCH   4   8
BRANCH   5  18
ATOM     16  O   UNL     1     -38.999  23.219   1.003  0.00  0.00    -0.272 OA
ATOM     17  N   UNL     1     -37.622  22.202   2.582  0.00  0.00    -0.302 N 
ATOM     18  C   UNL     1     -38.479  23.185   2.116  0.00  0.00    +0.252 C 
ATOM     19  H   UNL     1     -37.269  22.285   3.496  0.00  0.00    +0.150 HD
BRANCH  17  20
ATOM     20  C   UNL     1     -37.224  21.061   1.790  0.00  0.00    +0.094 C 
BRANCH  20  21
ATOM     21  C   UNL     1     -35.913  20.442   2.272  0.00  0.00    +0.049 C 
BRANCH  21  23
ATOM     22  N   UNL     1     -33.417  21.816  -0.012  0.00  0.00    -0.312 N 
ATOM     23  C   UNL     1     -34.745  20.760   1.383  0.00  0.00    -0.005 C 
ATOM     24  C   UNL     1     -33.631  19.929   1.159  0.00  0.00    +0.011 C 
ATOM     25  C   UNL     1     -32.802  20.617   0.271  0.00  0.00    +0.048 C 
ATOM     26  C   UNL     1     -34.604  21.907   0.663  0.00  0.00    +0.058 C 
ATOM     27  C   UNL     1     -33.231  18.656   1.614  0.00  0.00    +0.001 C 
ATOM     28  C   UNL     1     -31.586  20.095  -0.185  0.00  0.00    +0.015 C 
ATOM     29  C   UNL     1     -32.017  18.122   1.165  0.00  0.00    +0.000 C 
ATOM     30  C   UNL     1     -31.209  18.833   0.279  0.00  0.00    +0.001 C 
ATOM     31  H   UNL     1     -33.057  22.506  -0.613  0.00  0.00    +0.152 HD
ENDBRANCH  21  23
ENDBRANCH  20  21
ENDBRANCH  17  20
ENDBRANCH   5  18
BRANCH   2  32
ATOM     32  O   UNL     1     -40.047  26.223   3.422  0.00  0.00    -0.381 OA
ATOM     33  H   UNL     1     -39.800  27.160   3.483  0.00  0.00    +0.210 HD
ENDBRANCH   2  32
TORSDOF 6
ENDMDL
MODEL 3
REMARK VINA RESULT:      -7.2      1.698      4.403
REMARK  Name = 196470
REMARK  6 active torsions:
REMARK  status: ('A' for Active; 'I' for Inactive)
REMARK    1  A    between atoms: C_2  and  O_32
REMARK    2  A    between atoms: C_4  and  N_8
REMARK    3  A    between atoms: C_5  and  C_18
REMARK    4  A    between atoms: N_17  and  C_20
REMARK    5  A    between atoms: C_20  and  C_21
REMARK    6  A    between atoms: C_21  and  C_23
REMARK                            x       y       z     vdW  Elec       q    Type
REMARK                         _______ _______ _______ _____ _____    ______ ____
ROOT
ATOM      1  O   UNL     1     -36.829  25.790   2.598  0.00  0.00    -0.328 OA
ATOM      2  C   UNL     1     -35.542  25.665   4.600  0.00  0.00    +0.151 C 
ATOM      3  C   UNL     1     -36.576  24.562   4.603  0.00  0.00    +0.084 C 
ATOM      4  C   UNL     1     -37.579  25.062   3.578  0.00  0.00    +0.202 C 
ATOM      5  C   UNL     1     -35.568  26.164   3.167  0.00  0.00    +0.219 C 
ENDROOT
BRANCH   4   8
ATOM      6  O   UNL     1     -40.362  25.080   3.035  0.00  0.00    -0.252 OA
ATOM      7  O   UNL     1     -40.159  20.906   1.115  0.00  0.00    -0.270 OA
ATOM      8  N   UNL     1     -38.297  23.999   2.938  0.00  0.00    -0.219 N 
ATOM      9  N   UNL     1     -40.246  22.998   2.081  0.00  0.00    -0.236 N 
ATOM     10  C   UNL     1     -37.585  22.881   2.556  0.00  0.00    +0.071 C 
ATOM     11  C   UNL     1     -39.676  24.108   2.714  0.00  0.00    +0.315 C 
ATOM     12  C   UNL     1     -38.134  21.821   1.949  0.00  0.00    +0.047 C 
ATOM     13  C   UNL     1     -39.594  21.845   1.670  0.00  0.00    +0.250 C 
ATOM     14  C   UNL     1     -37.359  20.612   1.535  0.00  0.00    +0.037 C 
ATOM     15  H   UNL     1     -41.215  23.040   1.909  0.00  0.00    +0.159 HD
ENDBRANCH   4   8
BRANCH   5  18
ATOM     16  O   UNL     1     -33.345  25.495   2.627  0.00  0.00    -0.272 OA
ATOM     17  N   UNL     1     -35.075  24.949   1.167  0.00  0.00    -0.302 N 
ATOM     18  C   UNL     1     -34.533  25.503   2.315  0.00  0.00    +0.252 C 
ATOM     19  H   UNL     1     -36.046  25.021   1.026  0.00  0.00    +0.150 HD
BRANCH  17  20
ATOM     20  C   UNL     1     -34.281  24.273   0.166  0.00  0.00    +0.094 C 
BRANCH  20  21
ATOM     21  C   UNL     1     -34.516  22.763   0.154  0.00  0.00    +0.049 C 
BRANCH  21  23
ATOM     22  N   UNL     1     -31.243  21.400  -0.716  0.00  0.00    -0.312 N 
ATOM     23  C   UNL     1     -33.260  21.969  -0.059  0.00  0.00    -0.005 C 
ATOM     24  C   UNL     1     -33.021  20.664   0.413  0.00  0.00    +0.011 C 
ATOM     25  C   UNL     1     -31.737  20.323  -0.014  0.00  0.00    +0.048 C 
ATOM     26  C   UNL     1     -32.169  22.407  -0.747  0.00  0.00    +0.058 C 
ATOM     27  C   UNL     1     -33.759  19.726   1.163  0.00  0.00    +0.001 C 
ATOM     28  C   UNL     1     -31.150  19.085   0.271  0.00  0.00    +0.015 C 
ATOM     29  C   UNL     1     -33.184  18.484   1.456  0.00  0.00    +0.000 C 
ATOM     30  C   UNL     1     -31.900  18.170   1.016  0.00  0.00    +0.001 C 
ATOM     31  H   UNL     1     -30.353  21.440  -1.135  0.00  0.00    +0.152 HD
ENDBRANCH  21  23
ENDBRANCH  20  21
ENDBRANCH  17  20
ENDBRANCH   5  18
BRANCH   2  32
ATOM     32  O   UNL     1     -35.955  26.722   5.459  0.00  0.00    -0.381 OA
ATOM     33  H   UNL     1     -36.463  27.374   4.950  0.00  0.00    +0.210 HD
ENDBRANCH   2  32
TORSDOF 6
ENDMDL
MODEL 4
REMARK VINA RESULT:      -7.1      3.113      5.815
REMARK  Name = 196470
REMARK  6 active torsions:
REMARK  status: ('A' for Active; 'I' for Inactive)
REMARK    1  A    between atoms: C_2  and  O_32
REMARK    2  A    between atoms: C_4  and  N_8
REMARK    3  A    between atoms: C_5  and  C_18
REMARK    4  A    between atoms: N_17  and  C_20
REMARK    5  A    between atoms: C_20  and  C_21
REMARK    6  A    between atoms: C_21  and  C_23
REMARK                            x       y       z     vdW  Elec       q    Type
REMARK                         _______ _______ _______ _____ _____    ______ ____
ROOT
ATOM      1  O   UNL     1     -38.989  25.053   0.800  0.00  0.00    -0.328 OA
ATOM      2  C   UNL     1     -38.837  25.910   3.018  0.00  0.00    +0.151 C 
ATOM      3  C   UNL     1     -38.638  24.412   3.048  0.00  0.00    +0.084 C 
ATOM      4  C   UNL     1     -39.236  23.983   1.721  0.00  0.00    +0.202 C 
ATOM      5  C   UNL     1     -38.721  26.248   1.543  0.00  0.00    +0.219 C 
ENDROOT
BRANCH   4   8
ATOM      6  O   UNL     1     -40.277  21.381   2.150  0.00  0.00    -0.252 OA
ATOM      7  O   UNL     1     -36.890  19.466  -0.300  0.00  0.00    -0.270 OA
ATOM      8  N   UNL     1     -38.658  22.774   1.214  0.00  0.00    -0.219 N 
ATOM      9  N   UNL     1     -38.582  20.439   0.926  0.00  0.00    -0.236 N 
ATOM     10  C   UNL     1     -37.507  22.879   0.459  0.00  0.00    +0.071 C 
ATOM     11  C   UNL     1     -39.253  21.534   1.483  0.00  0.00    +0.315 C 
ATOM     12  C   UNL     1     -36.868  21.829  -0.073  0.00  0.00    +0.047 C 
ATOM     13  C   UNL     1     -37.426  20.470   0.161  0.00  0.00    +0.250 C 
ATOM     14  C   UNL     1     -35.623  21.945  -0.890  0.00  0.00    +0.037 C 
ATOM     15  H   UNL     1     -38.972  19.552   1.097  0.00  0.00    +0.159 HD
ENDBRANCH   4   8
BRANCH   5  18
ATOM     16  O   UNL     1     -36.898  26.488   0.025  0.00  0.00    -0.272 OA
ATOM     17  N   UNL     1     -36.636  27.200   2.226  0.00  0.00    -0.302 N 
ATOM     18  C   UNL     1     -37.334  26.655   1.161  0.00  0.00    +0.252 C 
ATOM     19  H   UNL     1     -37.094  27.283   3.093  0.00  0.00    +0.150 HD
BRANCH  17  20
ATOM     20  C   UNL     1     -35.267  27.652   2.124  0.00  0.00    +0.094 C 
BRANCH  20  21
ATOM     21  C   UNL     1     -34.260  26.524   2.346  0.00  0.00    +0.049 C 
BRANCH  21  23
ATOM     22  N   UNL     1     -34.458  25.478   5.838  0.00  0.00    -0.312 N 
ATOM     23  C   UNL     1     -34.419  25.838   3.672  0.00  0.00    -0.005 C 
ATOM     24  C   UNL     1     -34.803  24.497   3.865  0.00  0.00    +0.011 C 
ATOM     25  C   UNL     1     -34.821  24.290   5.245  0.00  0.00    +0.048 C 
ATOM     26  C   UNL     1     -34.211  26.426   4.883  0.00  0.00    +0.058 C 
ATOM     27  C   UNL     1     -35.141  23.426   3.013  0.00  0.00    +0.001 C 
ATOM     28  C   UNL     1     -35.161  23.060   5.819  0.00  0.00    +0.015 C 
ATOM     29  C   UNL     1     -35.483  22.190   3.574  0.00  0.00    +0.000 C 
ATOM     30  C   UNL     1     -35.492  22.013   4.956  0.00  0.00    +0.001 C 
ATOM     31  H   UNL     1     -34.385  25.625   6.809  0.00  0.00    +0.152 HD
ENDBRANCH  21  23
ENDBRANCH  20  21
ENDBRANCH  17  20
ENDBRANCH   5  18
BRANCH   2  32
ATOM     32  O   UNL     1     -40.152  26.235   3.458  0.00  0.00    -0.381 OA
ATOM     33  H   UNL     1     -40.321  27.179   3.306  0.00  0.00    +0.210 HD
ENDBRANCH   2  32
TORSDOF 6
ENDMDL
MODEL 5
REMARK VINA RESULT:      -7.0      1.674      2.403
REMARK  Name = 196470
REMARK  6 active torsions:
REMARK  status: ('A' for Active; 'I' for Inactive)
REMARK    1  A    between atoms: C_2  and  O_32
REMARK    2  A    between atoms: C_4  and  N_8
REMARK    3  A    between atoms: C_5  and  C_18
REMARK    4  A    between atoms: N_17  and  C_20
REMARK    5  A    between atoms: C_20  and  C_21
REMARK    6  A    between atoms: C_21  and  C_23
REMARK                            x       y       z     vdW  Elec       q    Type
REMARK                         _______ _______ _______ _____ _____    ______ ____
ROOT
ATOM      1  O   UNL     1     -38.254  22.099   2.378  0.00  0.00    -0.328 OA
ATOM      2  C   UNL     1     -37.837  22.156   0.032  0.00  0.00    +0.151 C 
ATOM      3  C   UNL     1     -37.413  23.471   0.646  0.00  0.00    +0.084 C 
ATOM      4  C   UNL     1     -38.169  23.468   1.963  0.00  0.00    +0.202 C 
ATOM      5  C   UNL     1     -38.038  21.257   1.239  0.00  0.00    +0.219 C 
ENDROOT
BRANCH   4   8
ATOM      6  O   UNL     1     -38.670  26.206   2.503  0.00  0.00    -0.252 OA
ATOM      7  O   UNL     1     -35.578  26.248   5.906  0.00  0.00    -0.270 OA
ATOM      8  N   UNL     1     -37.516  24.236   2.982  0.00  0.00    -0.219 N 
ATOM      9  N   UNL     1     -37.124  26.213   4.197  0.00  0.00    -0.236 N 
ATOM     10  C   UNL     1     -36.572  23.600   3.761  0.00  0.00    +0.071 C 
ATOM     11  C   UNL     1     -37.838  25.587   3.168  0.00  0.00    +0.315 C 
ATOM     12  C   UNL     1     -35.892  24.201   4.745  0.00  0.00    +0.047 C 
ATOM     13  C   UNL     1     -36.166  25.637   5.017  0.00  0.00    +0.250 C 
ATOM     14  C   UNL     1     -34.870  23.509   5.588  0.00  0.00    +0.037 C 
ATOM     15  H   UNL     1     -37.325  27.163   4.355  0.00  0.00    +0.159 HD
ENDBRANCH   4   8
BRANCH   5  18
ATOM     16  O   UNL     1     -36.439  20.284   2.714  0.00  0.00    -0.272 OA
ATOM     17  N   UNL     1     -36.197  19.970   0.420  0.00  0.00    -0.302 N 
ATOM     18  C   UNL     1     -36.820  20.453   1.559  0.00  0.00    +0.252 C 
ATOM     19  H   UNL     1     -36.599  20.173  -0.455  0.00  0.00    +0.150 HD
BRANCH  17  20
ATOM     20  C   UNL     1     -34.986  19.182   0.456  0.00  0.00    +0.094 C 
BRANCH  20  21
ATOM     21  C   UNL     1     -33.747  20.025   0.755  0.00  0.00    +0.049 C 
BRANCH  21  23
ATOM     22  N   UNL     1     -31.039  17.624   1.233  0.00  0.00    -0.312 N 
ATOM     23  C   UNL     1     -32.479  19.223   0.793  0.00  0.00    -0.005 C 
ATOM     24  C   UNL     1     -31.261  19.579   0.181  0.00  0.00    +0.011 C 
ATOM     25  C   UNL     1     -30.362  18.552   0.473  0.00  0.00    +0.048 C 
ATOM     26  C   UNL     1     -32.331  18.030   1.432  0.00  0.00    +0.058 C 
ATOM     27  C   UNL     1     -30.818  20.669  -0.594  0.00  0.00    +0.001 C 
ATOM     28  C   UNL     1     -29.036  18.559   0.026  0.00  0.00    +0.015 C 
ATOM     29  C   UNL     1     -29.494  20.690  -1.048  0.00  0.00    +0.000 C 
ATOM     30  C   UNL     1     -28.618  19.650  -0.741  0.00  0.00    +0.001 C 
ATOM     31  H   UNL     1     -30.650  16.791   1.584  0.00  0.00    +0.152 HD
ENDBRANCH  21  23
ENDBRANCH  20  21
ENDBRANCH  17  20
ENDBRANCH   5  18
BRANCH   2  32
ATOM     32  O   UNL     1     -39.085  22.310  -0.636  0.00  0.00    -0.381 OA
ATOM     33  H   UNL     1     -39.639  21.531  -0.471  0.00  0.00    +0.210 HD
ENDBRANCH   2  32
TORSDOF 6
ENDMDL
MODEL 6
REMARK VINA RESULT:      -7.0      1.483      1.904
REMARK  Name = 196470
REMARK  6 active torsions:
REMARK  status: ('A' for Active; 'I' for Inactive)
REMARK    1  A    between atoms: C_2  and  O_32
REMARK    2  A    between atoms: C_4  and  N_8
REMARK    3  A    between atoms: C_5  and  C_18
REMARK    4  A    between atoms: N_17  and  C_20
REMARK    5  A    between atoms: C_20  and  C_21
REMARK    6  A    between atoms: C_21  and  C_23
REMARK                            x       y       z     vdW  Elec       q    Type
REMARK                         _______ _______ _______ _____ _____    ______ ____
ROOT
ATOM      1  O   UNL     1     -39.082  23.952   3.253  0.00  0.00    -0.328 OA
ATOM      2  C   UNL     1     -39.822  24.378   1.028  0.00  0.00    +0.151 C 
ATOM      3  C   UNL     1     -38.487  25.051   1.246  0.00  0.00    +0.084 C 
ATOM      4  C   UNL     1     -38.404  25.115   2.761  0.00  0.00    +0.202 C 
ATOM      5  C   UNL     1     -39.946  23.453   2.225  0.00  0.00    +0.219 C 
ENDROOT
BRANCH   4   8
ATOM      6  O   UNL     1     -36.505  27.157   2.248  0.00  0.00    -0.252 OA
ATOM      7  O   UNL     1     -33.284  24.976   4.701  0.00  0.00    -0.270 OA
ATOM      8  N   UNL     1     -37.055  25.122   3.245  0.00  0.00    -0.219 N 
ATOM      9  N   UNL     1     -34.908  26.058   3.474  0.00  0.00    -0.236 N 
ATOM     10  C   UNL     1     -36.645  24.056   4.020  0.00  0.00    +0.071 C 
ATOM     11  C   UNL     1     -36.194  26.183   2.935  0.00  0.00    +0.315 C 
ATOM     12  C   UNL     1     -35.414  23.941   4.535  0.00  0.00    +0.047 C 
ATOM     13  C   UNL     1     -34.429  25.020   4.258  0.00  0.00    +0.250 C 
ATOM     14  C   UNL     1     -34.973  22.785   5.374  0.00  0.00    +0.037 C 
ATOM     15  H   UNL     1     -34.276  26.786   3.274  0.00  0.00    +0.159 HD
ENDBRANCH   4   8
BRANCH   5  18
ATOM     16  O   UNL     1     -40.226  21.114   1.856  0.00  0.00    -0.272 OA
ATOM     17  N   UNL     1     -38.083  22.022   1.776  0.00  0.00    -0.302 N 
ATOM     18  C   UNL     1     -39.459  22.071   1.928  0.00  0.00    +0.252 C 
ATOM     19  H   UNL     1     -37.573  22.859   1.856  0.00  0.00    +0.150 HD
BRANCH  17  20
ATOM     20  C   UNL     1     -37.362  20.799   1.507  0.00  0.00    +0.094 C 
BRANCH  20  21
ATOM     21  C   UNL     1     -36.040  20.718   2.269  0.00  0.00    +0.049 C 
BRANCH  21  23
ATOM     22  N   UNL     1     -33.440  22.051   0.078  0.00  0.00    -0.312 N 
ATOM     23  C   UNL     1     -34.842  21.011   1.411  0.00  0.00    -0.005 C 
ATOM     24  C   UNL     1     -33.765  20.136   1.175  0.00  0.00    +0.011 C 
ATOM     25  C   UNL     1     -32.888  20.814   0.328  0.00  0.00    +0.048 C 
ATOM     26  C   UNL     1     -34.633  22.176   0.737  0.00  0.00    +0.058 C 
ATOM     27  C   UNL     1     -33.435  18.830   1.590  0.00  0.00    +0.001 C 
ATOM     28  C   UNL     1     -31.691  20.251  -0.128  0.00  0.00    +0.015 C 
ATOM     29  C   UNL     1     -32.240  18.254   1.142  0.00  0.00    +0.000 C 
ATOM     30  C   UNL     1     -31.383  18.956   0.296  0.00  0.00    +0.001 C 
ATOM     31  H   UNL     1     -33.036  22.744  -0.491  0.00  0.00    +0.152 HD
ENDBRANCH  21  23
ENDBRANCH  20  21
ENDBRANCH  17  20
ENDBRANCH   5  18
BRANCH   2  32
ATOM     32  O   UNL     1     -40.869  25.342   1.086  0.00  0.00    -0.381 OA
ATOM     33  H   UNL     1     -41.154  25.456   2.007  0.00  0.00    +0.210 HD
ENDBRANCH   2  32
TORSDOF 6
ENDMDL
MODEL 7
REMARK VINA RESULT:      -7.0      2.082      4.441
REMARK  Name = 196470
REMARK  6 active torsions:
REMARK  status: ('A' for Active; 'I' for Inactive)
REMARK    1  A    between atoms: C_2  and  O_32
REMARK    2  A    between atoms: C_4  and  N_8
REMARK    3  A    between atoms: C_5  and  C_18
REMARK    4  A    between atoms: N_17  and  C_20
REMARK    5  A    between atoms: C_20  and  C_21
REMARK    6  A    between atoms: C_21  and  C_23
REMARK                            x       y       z     vdW  Elec       q    Type
REMARK                         _______ _______ _______ _____ _____    ______ ____
ROOT
ATOM      1  O   UNL     1     -35.006  24.954   3.445  0.00  0.00    -0.328 OA
ATOM      2  C   UNL     1     -35.046  25.408   5.784  0.00  0.00    +0.151 C 
ATOM      3  C   UNL     1     -36.287  25.986   5.143  0.00  0.00    +0.084 C 
ATOM      4  C   UNL     1     -35.887  26.059   3.680  0.00  0.00    +0.202 C 
ATOM      5  C   UNL     1     -34.482  24.507   4.701  0.00  0.00    +0.219 C 
ENDROOT
BRANCH   4   8
ATOM      6  O   UNL     1     -36.478  27.926   1.629  0.00  0.00    -0.252 OA
ATOM      7  O   UNL     1     -40.222  25.572   0.369  0.00  0.00    -0.270 OA
ATOM      8  N   UNL     1     -37.008  25.974   2.791  0.00  0.00    -0.219 N 
ATOM      9  N   UNL     1     -38.343  26.742   1.011  0.00  0.00    -0.236 N 
ATOM     10  C   UNL     1     -37.867  24.905   2.941  0.00  0.00    +0.071 C 
ATOM     11  C   UNL     1     -37.211  26.951   1.807  0.00  0.00    +0.315 C 
ATOM     12  C   UNL     1     -38.949  24.708   2.176  0.00  0.00    +0.047 C 
ATOM     13  C   UNL     1     -39.246  25.695   1.105  0.00  0.00    +0.250 C 
ATOM     14  C   UNL     1     -39.878  23.548   2.340  0.00  0.00    +0.037 C 
ATOM     15  H   UNL     1     -38.516  27.411   0.310  0.00  0.00    +0.159 HD
ENDBRANCH   4   8
BRANCH   5  18
ATOM     16  O   UNL     1     -35.079  22.563   5.945  0.00  0.00    -0.272 OA
ATOM     17  N   UNL     1     -35.145  22.480   3.619  0.00  0.00    -0.302 N 
ATOM     18  C   UNL     1     -34.937  23.091   4.844  0.00  0.00    +0.252 C 
ATOM     19  H   UNL     1     -34.997  23.008   2.802  0.00  0.00    +0.150 HD
BRANCH  17  20
ATOM     20  C   UNL     1     -35.566  21.104   3.483  0.00  0.00    +0.094 C 
BRANCH  20  21
ATOM     21  C   UNL     1     -35.775  20.697   2.025  0.00  0.00    +0.049 C 
BRANCH  21  23
ATOM     22  N   UNL     1     -33.095  21.771  -0.210  0.00  0.00    -0.312 N 
ATOM     23  C   UNL     1     -34.551  20.886   1.175  0.00  0.00    -0.005 C 
ATOM     24  C   UNL     1     -33.490  19.970   1.045  0.00  0.00    +0.011 C 
ATOM     25  C   UNL     1     -32.578  20.550   0.163  0.00  0.00    +0.048 C 
ATOM     26  C   UNL     1     -34.300  21.980   0.404  0.00  0.00    +0.058 C 
ATOM     27  C   UNL     1     -33.199  18.700   1.584  0.00  0.00    +0.001 C 
ATOM     28  C   UNL     1     -31.383  19.923  -0.210  0.00  0.00    +0.015 C 
ATOM     29  C   UNL     1     -32.008  18.061   1.220  0.00  0.00    +0.000 C 
ATOM     30  C   UNL     1     -31.116  18.665   0.336  0.00  0.00    +0.001 C 
ATOM     31  H   UNL     1     -32.662  22.401  -0.830  0.00  0.00    +0.152 HD
ENDBRANCH  21  23
ENDBRANCH  20  21
ENDBRANCH  17  20
ENDBRANCH   5  18
BRANCH   2  32
ATOM     32  O   UNL     1     -34.108  26.445   6.050  0.00  0.00    -0.381 OA
ATOM     33  H   UNL     1     -33.759  26.344   6.949  0.00  0.00    +0.210 HD
ENDBRANCH   2  32
TORSDOF 6
ENDMDL
MODEL 8
REMARK VINA RESULT:      -7.0      2.694      4.838
REMARK  Name = 196470
REMARK  6 active torsions:
REMARK  status: ('A' for Active; 'I' for Inactive)
REMARK    1  A    between atoms: C_2  and  O_32
REMARK    2  A    between atoms: C_4  and  N_8
REMARK    3  A    between atoms: C_5  and  C_18
REMARK    4  A    between atoms: N_17  and  C_20
REMARK    5  A    between atoms: C_20  and  C_21
REMARK    6  A    between atoms: C_21  and  C_23
REMARK                            x       y       z     vdW  Elec       q    Type
REMARK                         _______ _______ _______ _____ _____    ______ ____
ROOT
ATOM      1  O   UNL     1     -34.375  24.066   3.729  0.00  0.00    -0.328 OA
ATOM      2  C   UNL     1     -35.851  23.333   5.451  0.00  0.00    +0.151 C 
ATOM      3  C   UNL     1     -35.626  24.822   5.587  0.00  0.00    +0.084 C 
ATOM      4  C   UNL     1     -34.349  25.027   4.792  0.00  0.00    +0.202 C 
ATOM      5  C   UNL     1     -35.292  23.021   4.074  0.00  0.00    +0.219 C 
ENDROOT
BRANCH   4   8
ATOM      6  O   UNL     1     -32.467  26.982   5.613  0.00  0.00    -0.252 OA
ATOM      7  O   UNL     1     -34.082  30.024   2.567  0.00  0.00    -0.270 OA
ATOM      8  N   UNL     1     -34.242  26.346   4.241  0.00  0.00    -0.219 N 
ATOM      9  N   UNL     1     -33.283  28.490   4.090  0.00  0.00    -0.236 N 
ATOM     10  C   UNL     1     -35.119  26.695   3.234  0.00  0.00    +0.071 C 
ATOM     11  C   UNL     1     -33.273  27.239   4.718  0.00  0.00    +0.315 C 
ATOM     12  C   UNL     1     -35.124  27.892   2.634  0.00  0.00    +0.047 C 
ATOM     13  C   UNL     1     -34.131  28.907   3.076  0.00  0.00    +0.250 C 
ATOM     14  C   UNL     1     -36.075  28.268   1.544  0.00  0.00    +0.037 C 
ATOM     15  H   UNL     1     -32.615  29.142   4.402  0.00  0.00    +0.159 HD
ENDBRANCH   4   8
BRANCH   5  18
ATOM     16  O   UNL     1     -37.527  22.829   3.269  0.00  0.00    -0.272 OA
ATOM     17  N   UNL     1     -35.820  23.311   1.760  0.00  0.00    -0.302 N 
ATOM     18  C   UNL     1     -36.345  23.046   3.014  0.00  0.00    +0.252 C 
ATOM     19  H   UNL     1     -34.852  23.469   1.682  0.00  0.00    +0.150 HD
BRANCH  17  20
ATOM     20  C   UNL     1     -36.627  23.367   0.562  0.00  0.00    +0.094 C 
BRANCH  20  21
ATOM     21  C   UNL     1     -36.202  22.333  -0.479  0.00  0.00    +0.049 C 
BRANCH  21  23
ATOM     22  N   UNL     1     -35.864  19.052   1.088  0.00  0.00    -0.312 N 
ATOM     23  C   UNL     1     -35.780  21.024   0.123  0.00  0.00    -0.005 C 
ATOM     24  C   UNL     1     -34.455  20.562   0.244  0.00  0.00    +0.011 C 
ATOM     25  C   UNL     1     -34.531  19.311   0.858  0.00  0.00    +0.048 C 
ATOM     26  C   UNL     1     -36.630  20.095   0.642  0.00  0.00    +0.058 C 
ATOM     27  C   UNL     1     -33.188  21.072  -0.102  0.00  0.00    +0.001 C 
ATOM     28  C   UNL     1     -33.399  18.540   1.144  0.00  0.00    +0.015 C 
ATOM     29  C   UNL     1     -32.046  20.312   0.178  0.00  0.00    +0.000 C 
ATOM     30  C   UNL     1     -32.153  19.065   0.792  0.00  0.00    +0.001 C 
ATOM     31  H   UNL     1     -36.215  18.237   1.512  0.00  0.00    +0.152 HD
ENDBRANCH  21  23
ENDBRANCH  20  21
ENDBRANCH  17  20
ENDBRANCH   5  18
BRANCH   2  32
ATOM     32  O   UNL     1     -35.082  22.634   6.424  0.00  0.00    -0.381 OA
ATOM     33  H   UNL     1     -35.604  22.529   7.235  0.00  0.00    +0.210 HD
ENDBRANCH   2  32
TORSDOF 6
ENDMDL
MODEL 9
REMARK VINA RESULT:      -6.9      3.215      7.096
REMARK  Name = 196470
REMARK  6 active torsions:
REMARK  status: ('A' for Active; 'I' for Inactive)
REMARK    1  A    between atoms: C_2  and  O_32
REMARK    2  A    between atoms: C_4  and  N_8
REMARK    3  A    between atoms: C_5  and  C_18
REMARK    4  A    between atoms: N_17  and  C_20
REMARK    5  A    between atoms: C_20  and  C_21
REMARK    6  A    between atoms: C_21  and  C_23
REMARK                            x       y       z     vdW  Elec       q    Type
REMARK                         _______ _______ _______ _____ _____    ______ ____
ROOT
ATOM      1  O   UNL     1     -35.776  25.741   4.508  0.00  0.00    -0.328 OA
ATOM      2  C   UNL     1     -33.635  26.779   4.646  0.00  0.00    +0.151 C 
ATOM      3  C   UNL     1     -33.456  25.296   4.414  0.00  0.00    +0.084 C 
ATOM      4  C   UNL     1     -34.804  24.741   4.837  0.00  0.00    +0.202 C 
ATOM      5  C   UNL     1     -35.109  27.001   4.361  0.00  0.00    +0.219 C 
ENDROOT
BRANCH   4   8
ATOM      6  O   UNL     1     -35.872  22.442   6.108  0.00  0.00    -0.252 OA
ATOM      7  O   UNL     1     -36.016  20.137   2.131  0.00  0.00    -0.270 OA
ATOM      8  N   UNL     1     -35.135  23.515   4.173  0.00  0.00    -0.219 N 
ATOM      9  N   UNL     1     -35.938  21.303   4.118  0.00  0.00    -0.236 N 
ATOM     10  C   UNL     1     -34.920  23.444   2.812  0.00  0.00    +0.071 C 
ATOM     11  C   UNL     1     -35.661  22.435   4.894  0.00  0.00    +0.315 C 
ATOM     12  C   UNL     1     -35.188  22.360   2.072  0.00  0.00    +0.047 C 
ATOM     13  C   UNL     1     -35.748  21.162   2.752  0.00  0.00    +0.250 C 
ATOM     14  C   UNL     1     -34.954  22.286   0.597  0.00  0.00    +0.037 C 
ATOM     15  H   UNL     1     -36.307  20.525   4.593  0.00  0.00    +0.159 HD
ENDBRANCH   4   8
BRANCH   5  18
ATOM     16  O   UNL     1     -34.579  28.153   2.343  0.00  0.00    -0.272 OA
ATOM     17  N   UNL     1     -36.549  26.918   2.454  0.00  0.00    -0.302 N 
ATOM     18  C   UNL     1     -35.358  27.423   2.950  0.00  0.00    +0.252 C 
ATOM     19  H   UNL     1     -37.092  26.341   3.038  0.00  0.00    +0.150 HD
BRANCH  17  20
ATOM     20  C   UNL     1     -37.032  27.199   1.121  0.00  0.00    +0.094 C 
BRANCH  20  21
ATOM     21  C   UNL     1     -38.509  26.849   0.947  0.00  0.00    +0.049 C 
BRANCH  21  23
ATOM     22  N   UNL     1     -39.687  24.375   3.361  0.00  0.00    -0.312 N 
ATOM     23  C   UNL     1     -38.929  25.640   1.733  0.00  0.00    -0.005 C 
ATOM     24  C   UNL     1     -38.872  24.307   1.285  0.00  0.00    +0.011 C 
ATOM     25  C   UNL     1     -39.356  23.521   2.332  0.00  0.00    +0.048 C 
ATOM     26  C   UNL     1     -39.427  25.670   3.000  0.00  0.00    +0.058 C 
ATOM     27  C   UNL     1     -38.459  23.673   0.096  0.00  0.00    +0.001 C 
ATOM     28  C   UNL     1     -39.449  22.127   2.250  0.00  0.00    +0.015 C 
ATOM     29  C   UNL     1     -38.546  22.279  -0.001  0.00  0.00    +0.000 C 
ATOM     30  C   UNL     1     -39.034  21.520   1.062  0.00  0.00    +0.001 C 
ATOM     31  H   UNL     1     -40.054  24.095   4.230  0.00  0.00    +0.152 HD
ENDBRANCH  21  23
ENDBRANCH  20  21
ENDBRANCH  17  20
ENDBRANCH   5  18
BRANCH   2  32
ATOM     32  O   UNL     1     -33.381  27.092   6.011  0.00  0.00    -0.381 OA
ATOM     33  H   UNL     1     -33.015  26.314   6.460  0.00  0.00    +0.210 HD
ENDBRANCH   2  32
TORSDOF 6
ENDMDL
