MODEL 1
REMARK VINA RESULT:      -7.1      0.000      0.000
REMARK  Name = 194425
REMARK  8 active torsions:
REMARK  status: ('A' for Active; 'I' for Inactive)
REMARK    1  A    between atoms: N_1  and  C_24
REMARK    2  A    between atoms: C_5  and  C_11
REMARK    3  A    between atoms: C_11  and  C_12
REMARK    4  A    between atoms: C_13  and  C_20
REMARK    5  A    between atoms: N_17  and  C_22
REMARK    6  A    between atoms: C_24  and  C_25
REMARK    7  A    between atoms: C_25  and  C_26
REMARK    8  A    between atoms: C_26  and  S_27
REMARK                            x       y       z     vdW  Elec       q    Type
REMARK                         _______ _______ _______ _____ _____    ______ ____
ROOT
ATOM      1  N   UNL     1     -36.042  24.551   3.038  0.00  0.00    -0.286 N 
ATOM      2  C   UNL     1     -35.749  23.613   4.071  0.00  0.00    +0.048 C 
ATOM      3  C   UNL     1     -35.567  22.232   3.743  0.00  0.00    -0.008 C 
ATOM      4  C   UNL     1     -36.152  24.121   1.727  0.00  0.00    +0.065 C 
ATOM      5  C   UNL     1     -35.694  21.830   2.303  0.00  0.00    -0.019 C 
ATOM      6  C   UNL     1     -36.001  22.857   1.316  0.00  0.00    +0.012 C 
ATOM      7  C   UNL     1     -35.630  23.997   5.423  0.00  0.00    +0.014 C 
ATOM      8  C   UNL     1     -35.279  21.314   4.769  0.00  0.00    +0.053 C 
ATOM      9  C   UNL     1     -35.343  23.067   6.421  0.00  0.00    -0.003 C 
ATOM     10  C   UNL     1     -35.168  21.729   6.095  0.00  0.00    -0.021 C 
ENDROOT
BRANCH   5  11
ATOM     11  C   UNL     1     -35.540  20.564   1.872  0.00  0.00    +0.052 C 
BRANCH  11  12
ATOM     12  C   UNL     1     -34.284  19.861   1.931  0.00  0.00    -0.021 C 
ATOM     13  C   UNL     1     -33.882  19.011   0.974  0.00  0.00    -0.001 C 
BRANCH  13  20
ATOM     14  S   UNL     1     -29.534  21.395  -1.302  0.00  0.00    +0.007 S 
ATOM     15  O   UNL     1     -31.395  20.005  -0.139  0.00  0.00    -0.429 OA
ATOM     16  O   UNL     1     -29.999  16.982   1.063  0.00  0.00    -0.266 OA
ATOM     17  N   UNL     1     -29.370  18.934  -0.087  0.00  0.00    -0.218 N 
ATOM     18  C   UNL     1     -31.488  18.783   0.506  0.00  0.00    +0.201 C 
ATOM     19  C   UNL     1     -30.207  18.069   0.559  0.00  0.00    +0.290 C 
ATOM     20  C   UNL     1     -32.624  18.303   1.027  0.00  0.00    +0.042 C 
ATOM     21  C   UNL     1     -30.064  20.045  -0.485  0.00  0.00    +0.244 C 
BRANCH  17  22
ATOM     22  C   UNL     1     -27.952  18.707  -0.317  0.00  0.00    +0.102 C 
ATOM     23  C   UNL     1     -27.132  19.019   0.918  0.00  0.00    +0.024 C 
ENDBRANCH  17  22
ENDBRANCH  13  20
ENDBRANCH  11  12
ENDBRANCH   5  11
BRANCH   1  24
ATOM     24  C   UNL     1     -36.222  25.957   3.396  0.00  0.00    +0.097 C 
BRANCH  24  25
ATOM     25  C   UNL     1     -35.109  26.816   2.805  0.00  0.00    +0.048 C 
BRANCH  25  26
ATOM     26  C   UNL     1     -33.724  26.374   3.260  0.00  0.00    +0.160 C 
BRANCH  26  27
ATOM     27  S   UNL     1     -32.922  27.640   4.193  0.00  0.00    +0.023 S 
ATOM     28  O   UNL     1     -33.368  27.124   5.676  0.00  0.00    -0.069 OA
ATOM     29  O   UNL     1     -33.574  28.908   3.924  0.00  0.00    -0.069 OA
ATOM     30  O   UNL     1     -31.486  27.481   4.057  0.00  0.00    -0.069 OA
ENDBRANCH  26  27
ENDBRANCH  25  26
ENDBRANCH  24  25
ENDBRANCH   1  24
TORSDOF 8
ENDMDL
MODEL 2
REMARK VINA RESULT:      -7.1      2.484      2.950
REMARK  Name = 194425
REMARK  8 active torsions:
REMARK  status: ('A' for Active; 'I' for Inactive)
REMARK    1  A    between atoms: N_1  and  C_24
REMARK    2  A    between atoms: C_5  and  C_11
REMARK    3  A    between atoms: C_11  and  C_12
REMARK    4  A    between atoms: C_13  and  C_20
REMARK    5  A    between atoms: N_17  and  C_22
REMARK    6  A    between atoms: C_24  and  C_25
REMARK    7  A    between atoms: C_25  and  C_26
REMARK    8  A    between atoms: C_26  and  S_27
REMARK                            x       y       z     vdW  Elec       q    Type
REMARK                         _______ _______ _______ _____ _____    ______ ____
ROOT
ATOM      1  N   UNL     1     -35.489  25.080   3.199  0.00  0.00    -0.286 N 
ATOM      2  C   UNL     1     -35.419  23.929   4.038  0.00  0.00    +0.048 C 
ATOM      3  C   UNL     1     -35.491  22.623   3.457  0.00  0.00    -0.008 C 
ATOM      4  C   UNL     1     -35.629  24.928   1.830  0.00  0.00    +0.065 C 
ATOM      5  C   UNL     1     -35.637  22.525   1.967  0.00  0.00    -0.019 C 
ATOM      6  C   UNL     1     -35.706  23.756   1.190  0.00  0.00    +0.012 C 
ATOM      7  C   UNL     1     -35.280  24.028   5.438  0.00  0.00    +0.014 C 
ATOM      8  C   UNL     1     -35.422  21.494   4.292  0.00  0.00    +0.053 C 
ATOM      9  C   UNL     1     -35.214  22.892   6.244  0.00  0.00    -0.003 C 
ATOM     10  C   UNL     1     -35.285  21.629   5.673  0.00  0.00    -0.021 C 
ENDROOT
BRANCH   5  11
ATOM     11  C   UNL     1     -35.710  21.355   1.306  0.00  0.00    +0.052 C 
BRANCH  11  12
ATOM     12  C   UNL     1     -34.550  20.571   0.963  0.00  0.00    -0.021 C 
ATOM     13  C   UNL     1     -34.171  19.491   1.662  0.00  0.00    -0.001 C 
BRANCH  13  20
ATOM     14  S   UNL     1     -34.980  14.835  -1.064  0.00  0.00    +0.007 S 
ATOM     15  O   UNL     1     -34.264  16.976   0.221  0.00  0.00    -0.429 OA
ATOM     16  O   UNL     1     -30.741  16.996   0.562  0.00  0.00    -0.266 OA
ATOM     17  N   UNL     1     -32.463  15.679  -0.348  0.00  0.00    -0.218 N 
ATOM     18  C   UNL     1     -33.078  17.543   0.655  0.00  0.00    +0.201 C 
ATOM     19  C   UNL     1     -31.902  16.738   0.307  0.00  0.00    +0.290 C 
ATOM     20  C   UNL     1     -33.010  18.702   1.322  0.00  0.00    +0.042 C 
ATOM     21  C   UNL     1     -33.824  15.825  -0.392  0.00  0.00    +0.244 C 
BRANCH  17  22
ATOM     22  C   UNL     1     -31.724  14.562  -0.915  0.00  0.00    +0.102 C 
ATOM     23  C   UNL     1     -31.258  14.862  -2.325  0.00  0.00    +0.024 C 
ENDBRANCH  17  22
ENDBRANCH  13  20
ENDBRANCH  11  12
ENDBRANCH   5  11
BRANCH   1  24
ATOM     24  C   UNL     1     -35.411  26.404   3.814  0.00  0.00    +0.097 C 
BRANCH  24  25
ATOM     25  C   UNL     1     -34.457  27.308   3.041  0.00  0.00    +0.048 C 
BRANCH  25  26
ATOM     26  C   UNL     1     -32.996  27.054   3.393  0.00  0.00    +0.160 C 
BRANCH  26  27
ATOM     27  S   UNL     1     -32.520  27.947   4.839  0.00  0.00    +0.023 S 
ATOM     28  O   UNL     1     -30.905  27.816   4.645  0.00  0.00    -0.069 OA
ATOM     29  O   UNL     1     -32.912  27.188   6.011  0.00  0.00    -0.069 OA
ATOM     30  O   UNL     1     -32.898  29.339   4.674  0.00  0.00    -0.069 OA
ENDBRANCH  26  27
ENDBRANCH  25  26
ENDBRANCH  24  25
ENDBRANCH   1  24
TORSDOF 8
ENDMDL
MODEL 3
REMARK VINA RESULT:      -6.9      1.237      2.500
REMARK  Name = 194425
REMARK  8 active torsions:
REMARK  status: ('A' for Active; 'I' for Inactive)
REMARK    1  A    between atoms: N_1  and  C_24
REMARK    2  A    between atoms: C_5  and  C_11
REMARK    3  A    between atoms: C_11  and  C_12
REMARK    4  A    between atoms: C_13  and  C_20
REMARK    5  A    between atoms: N_17  and  C_22
REMARK    6  A    between atoms: C_24  and  C_25
REMARK    7  A    between atoms: C_25  and  C_26
REMARK    8  A    between atoms: C_26  and  S_27
REMARK                            x       y       z     vdW  Elec       q    Type
REMARK                         _______ _______ _______ _____ _____    ______ ____
ROOT
ATOM      1  N   UNL     1     -35.796  24.714   4.811  0.00  0.00    -0.286 N 
ATOM      2  C   UNL     1     -36.437  24.879   3.548  0.00  0.00    +0.048 C 
ATOM      3  C   UNL     1     -36.649  23.740   2.707  0.00  0.00    -0.008 C 
ATOM      4  C   UNL     1     -35.379  23.457   5.214  0.00  0.00    +0.065 C 
ATOM      5  C   UNL     1     -36.179  22.404   3.203  0.00  0.00    -0.019 C 
ATOM      6  C   UNL     1     -35.529  22.332   4.505  0.00  0.00    +0.012 C 
ATOM      7  C   UNL     1     -36.877  26.137   3.088  0.00  0.00    +0.014 C 
ATOM      8  C   UNL     1     -37.282  23.913   1.463  0.00  0.00    +0.053 C 
ATOM      9  C   UNL     1     -37.503  26.281   1.850  0.00  0.00    -0.003 C 
ATOM     10  C   UNL     1     -37.705  25.172   1.040  0.00  0.00    -0.021 C 
ENDROOT
BRANCH   5  11
ATOM     11  C   UNL     1     -36.327  21.263   2.506  0.00  0.00    +0.052 C 
BRANCH  11  12
ATOM     12  C   UNL     1     -35.312  20.242   2.441  0.00  0.00    -0.021 C 
ATOM     13  C   UNL     1     -34.466  20.124   1.407  0.00  0.00    -0.001 C 
BRANCH  13  20
ATOM     14  S   UNL     1     -29.837  21.336  -1.214  0.00  0.00    +0.007 S 
ATOM     15  O   UNL     1     -31.903  20.454   0.091  0.00  0.00    -0.429 OA
ATOM     16  O   UNL     1     -31.284  17.124   1.120  0.00  0.00    -0.266 OA
ATOM     17  N   UNL     1     -30.247  18.877  -0.053  0.00  0.00    -0.218 N 
ATOM     18  C   UNL     1     -32.270  19.279   0.724  0.00  0.00    +0.201 C 
ATOM     19  C   UNL     1     -31.231  18.245   0.652  0.00  0.00    +0.290 C 
ATOM     20  C   UNL     1     -33.447  19.103   1.338  0.00  0.00    +0.042 C 
ATOM     21  C   UNL     1     -30.644  20.148  -0.372  0.00  0.00    +0.244 C 
BRANCH  17  22
ATOM     22  C   UNL     1     -28.967  18.287  -0.412  0.00  0.00    +0.102 C 
ATOM     23  C   UNL     1     -28.120  18.008   0.813  0.00  0.00    +0.024 C 
ENDBRANCH  17  22
ENDBRANCH  13  20
ENDBRANCH  11  12
ENDBRANCH   5  11
BRANCH   1  24
ATOM     24  C   UNL     1     -35.592  25.891   5.655  0.00  0.00    +0.097 C 
BRANCH  24  25
ATOM     25  C   UNL     1     -34.106  26.182   5.833  0.00  0.00    +0.048 C 
BRANCH  25  26
ATOM     26  C   UNL     1     -33.498  26.883   4.625  0.00  0.00    +0.160 C 
BRANCH  26  27
ATOM     27  S   UNL     1     -32.374  28.151   5.119  0.00  0.00    +0.023 S 
ATOM     28  O   UNL     1     -32.550  27.974   6.731  0.00  0.00    -0.069 OA
ATOM     29  O   UNL     1     -32.916  29.439   4.729  0.00  0.00    -0.069 OA
ATOM     30  O   UNL     1     -31.028  27.752   4.750  0.00  0.00    -0.069 OA
ENDBRANCH  26  27
ENDBRANCH  25  26
ENDBRANCH  24  25
ENDBRANCH   1  24
TORSDOF 8
ENDMDL
MODEL 4
REMARK VINA RESULT:      -6.8      2.907      3.201
REMARK  Name = 194425
REMARK  8 active torsions:
REMARK  status: ('A' for Active; 'I' for Inactive)
REMARK    1  A    between atoms: N_1  and  C_24
REMARK    2  A    between atoms: C_5  and  C_11
REMARK    3  A    between atoms: C_11  and  C_12
REMARK    4  A    between atoms: C_13  and  C_20
REMARK    5  A    between atoms: N_17  and  C_22
REMARK    6  A    between atoms: C_24  and  C_25
REMARK    7  A    between atoms: C_25  and  C_26
REMARK    8  A    between atoms: C_26  and  S_27
REMARK                            x       y       z     vdW  Elec       q    Type
REMARK                         _______ _______ _______ _____ _____    ______ ____
ROOT
ATOM      1  N   UNL     1     -35.950  24.324   2.631  0.00  0.00    -0.286 N 
ATOM      2  C   UNL     1     -35.681  23.505   3.766  0.00  0.00    +0.048 C 
ATOM      3  C   UNL     1     -35.468  22.100   3.593  0.00  0.00    -0.008 C 
ATOM      4  C   UNL     1     -36.009  23.756   1.370  0.00  0.00    +0.065 C 
ATOM      5  C   UNL     1     -35.540  21.547   2.200  0.00  0.00    -0.019 C 
ATOM      6  C   UNL     1     -35.827  22.458   1.100  0.00  0.00    +0.012 C 
ATOM      7  C   UNL     1     -35.613  24.032   5.073  0.00  0.00    +0.014 C 
ATOM      8  C   UNL     1     -35.203  21.301   4.719  0.00  0.00    +0.053 C 
ATOM      9  C   UNL     1     -35.349  23.217   6.173  0.00  0.00    -0.003 C 
ATOM     10  C   UNL     1     -35.144  21.855   5.997  0.00  0.00    -0.021 C 
ENDROOT
BRANCH   5  11
ATOM     11  C   UNL     1     -35.353  20.246   1.911  0.00  0.00    +0.052 C 
BRANCH  11  12
ATOM     12  C   UNL     1     -34.060  19.610   1.941  0.00  0.00    -0.021 C 
ATOM     13  C   UNL     1     -33.675  18.703   1.031  0.00  0.00    -0.001 C 
BRANCH  13  20
ATOM     14  S   UNL     1     -29.488  21.362  -1.243  0.00  0.00    +0.007 S 
ATOM     15  O   UNL     1     -31.258  19.852  -0.088  0.00  0.00    -0.429 OA
ATOM     16  O   UNL     1     -29.687  16.885   1.037  0.00  0.00    -0.266 OA
ATOM     17  N   UNL     1     -29.178  18.891  -0.080  0.00  0.00    -0.218 N 
ATOM     18  C   UNL     1     -31.278  18.614   0.533  0.00  0.00    +0.201 C 
ATOM     19  C   UNL     1     -29.960  17.969   0.557  0.00  0.00    +0.290 C 
ATOM     20  C   UNL     1     -32.380  18.064   1.057  0.00  0.00    +0.042 C 
ATOM     21  C   UNL     1     -29.935  19.970  -0.448  0.00  0.00    +0.244 C 
BRANCH  17  22
ATOM     22  C   UNL     1     -27.752  18.745  -0.330  0.00  0.00    +0.102 C 
ATOM     23  C   UNL     1     -26.939  19.019   0.919  0.00  0.00    +0.024 C 
ENDBRANCH  17  22
ENDBRANCH  13  20
ENDBRANCH  11  12
ENDBRANCH   5  11
BRANCH   1  24
ATOM     24  C   UNL     1     -36.162  25.757   2.831  0.00  0.00    +0.097 C 
BRANCH  24  25
ATOM     25  C   UNL     1     -37.589  26.039   3.289  0.00  0.00    +0.048 C 
BRANCH  25  26
ATOM     26  C   UNL     1     -38.552  26.218   2.123  0.00  0.00    +0.160 C 
BRANCH  26  27
ATOM     27  S   UNL     1     -40.179  25.682   2.548  0.00  0.00    +0.023 S 
ATOM     28  O   UNL     1     -39.758  24.657   3.746  0.00  0.00    -0.069 OA
ATOM     29  O   UNL     1     -40.724  24.912   1.445  0.00  0.00    -0.069 OA
ATOM     30  O   UNL     1     -40.904  26.800   3.124  0.00  0.00    -0.069 OA
ENDBRANCH  26  27
ENDBRANCH  25  26
ENDBRANCH  24  25
ENDBRANCH   1  24
TORSDOF 8
ENDMDL
MODEL 5
REMARK VINA RESULT:      -6.6      3.675      4.104
REMARK  Name = 194425
REMARK  8 active torsions:
REMARK  status: ('A' for Active; 'I' for Inactive)
REMARK    1  A    between atoms: N_1  and  C_24
REMARK    2  A    between atoms: C_5  and  C_11
REMARK    3  A    between atoms: C_11  and  C_12
REMARK    4  A    between atoms: C_13  and  C_20
REMARK    5  A    between atoms: N_17  and  C_22
REMARK    6  A    between atoms: C_24  and  C_25
REMARK    7  A    between atoms: C_25  and  C_26
REMARK    8  A    between atoms: C_26  and  S_27
REMARK                            x       y       z     vdW  Elec       q    Type
REMARK                         _______ _______ _______ _____ _____    ______ ____
ROOT
ATOM      1  N   UNL     1     -36.110  24.266   2.632  0.00  0.00    -0.286 N 
ATOM      2  C   UNL     1     -35.773  23.401   3.714  0.00  0.00    +0.048 C 
ATOM      3  C   UNL     1     -35.431  22.036   3.450  0.00  0.00    -0.008 C 
ATOM      4  C   UNL     1     -36.107  23.781   1.335  0.00  0.00    +0.065 C 
ATOM      5  C   UNL     1     -35.442  21.573   2.023  0.00  0.00    -0.019 C 
ATOM      6  C   UNL     1     -35.804  22.526   0.983  0.00  0.00    +0.012 C 
ATOM      7  C   UNL     1     -35.764  23.842   5.053  0.00  0.00    +0.014 C 
ATOM      8  C   UNL     1     -35.102  21.190   4.524  0.00  0.00    +0.053 C 
ATOM      9  C   UNL     1     -35.433  22.983   6.100  0.00  0.00    -0.003 C 
ATOM     10  C   UNL     1     -35.103  21.660   5.837  0.00  0.00    -0.021 C 
ENDROOT
BRANCH   5  11
ATOM     11  C   UNL     1     -35.134  20.317   1.651  0.00  0.00    +0.052 C 
BRANCH  11  12
ATOM     12  C   UNL     1     -33.795  19.899   1.321  0.00  0.00    -0.021 C 
ATOM     13  C   UNL     1     -33.357  18.646   1.514  0.00  0.00    -0.001 C 
BRANCH  13  20
ATOM     14  S   UNL     1     -32.792  14.134  -1.501  0.00  0.00    +0.007 S 
ATOM     15  O   UNL     1     -32.722  16.299  -0.068  0.00  0.00    -0.429 OA
ATOM     16  O   UNL     1     -29.348  17.243   0.437  0.00  0.00    -0.266 OA
ATOM     17  N   UNL     1     -30.621  15.575  -0.624  0.00  0.00    -0.218 N 
ATOM     18  C   UNL     1     -31.748  17.134   0.452  0.00  0.00    +0.201 C 
ATOM     19  C   UNL     1     -30.388  16.700   0.115  0.00  0.00    +0.290 C 
ATOM     20  C   UNL     1     -32.016  18.222   1.185  0.00  0.00    +0.042 C 
ATOM     21  C   UNL     1     -31.968  15.352  -0.722  0.00  0.00    +0.244 C 
BRANCH  17  22
ATOM     22  C   UNL     1     -29.590  14.737  -1.217  0.00  0.00    +0.102 C 
ATOM     23  C   UNL     1     -28.905  13.878  -0.174  0.00  0.00    +0.024 C 
ENDBRANCH  17  22
ENDBRANCH  13  20
ENDBRANCH  11  12
ENDBRANCH   5  11
BRANCH   1  24
ATOM     24  C   UNL     1     -36.453  25.656   2.924  0.00  0.00    +0.097 C 
BRANCH  24  25
ATOM     25  C   UNL     1     -37.801  26.025   2.313  0.00  0.00    +0.048 C 
BRANCH  25  26
ATOM     26  C   UNL     1     -38.973  25.417   3.073  0.00  0.00    +0.160 C 
BRANCH  26  27
ATOM     27  S   UNL     1     -40.510  26.087   2.523  0.00  0.00    +0.023 S 
ATOM     28  O   UNL     1     -39.908  27.091   1.385  0.00  0.00    -0.069 OA
ATOM     29  O   UNL     1     -41.086  26.883   3.590  0.00  0.00    -0.069 OA
ATOM     30  O   UNL     1     -41.268  25.039   1.865  0.00  0.00    -0.069 OA
ENDBRANCH  26  27
ENDBRANCH  25  26
ENDBRANCH  24  25
ENDBRANCH   1  24
TORSDOF 8
ENDMDL
MODEL 6
REMARK VINA RESULT:      -6.5      1.658      2.020
REMARK  Name = 194425
REMARK  8 active torsions:
REMARK  status: ('A' for Active; 'I' for Inactive)
REMARK    1  A    between atoms: N_1  and  C_24
REMARK    2  A    between atoms: C_5  and  C_11
REMARK    3  A    between atoms: C_11  and  C_12
REMARK    4  A    between atoms: C_13  and  C_20
REMARK    5  A    between atoms: N_17  and  C_22
REMARK    6  A    between atoms: C_24  and  C_25
REMARK    7  A    between atoms: C_25  and  C_26
REMARK    8  A    between atoms: C_26  and  S_27
REMARK                            x       y       z     vdW  Elec       q    Type
REMARK                         _______ _______ _______ _____ _____    ______ ____
ROOT
ATOM      1  N   UNL     1     -36.037  24.065   2.562  0.00  0.00    -0.286 N 
ATOM      2  C   UNL     1     -35.727  23.354   3.758  0.00  0.00    +0.048 C 
ATOM      3  C   UNL     1     -35.352  21.975   3.686  0.00  0.00    -0.008 C 
ATOM      4  C   UNL     1     -35.979  23.417   1.340  0.00  0.00    +0.065 C 
ATOM      5  C   UNL     1     -35.303  21.331   2.331  0.00  0.00    -0.019 C 
ATOM      6  C   UNL     1     -35.642  22.134   1.164  0.00  0.00    +0.012 C 
ATOM      7  C   UNL     1     -35.774  23.965   5.029  0.00  0.00    +0.014 C 
ATOM      8  C   UNL     1     -35.048  21.281   4.871  0.00  0.00    +0.053 C 
ATOM      9  C   UNL     1     -35.467  23.255   6.189  0.00  0.00    -0.003 C 
ATOM     10  C   UNL     1     -35.106  21.917   6.111  0.00  0.00    -0.021 C 
ENDROOT
BRANCH   5  11
ATOM     11  C   UNL     1     -34.961  20.044   2.136  0.00  0.00    +0.052 C 
BRANCH  11  12
ATOM     12  C   UNL     1     -34.203  19.595   0.995  0.00  0.00    -0.021 C 
ATOM     13  C   UNL     1     -33.054  18.913   1.109  0.00  0.00    -0.001 C 
BRANCH  13  20
ATOM     14  S   UNL     1     -27.874  17.422   1.952  0.00  0.00    +0.007 S 
ATOM     15  O   UNL     1     -30.286  18.054   1.226  0.00  0.00    -0.429 OA
ATOM     16  O   UNL     1     -30.621  17.517  -2.258  0.00  0.00    -0.266 OA
ATOM     17  N   UNL     1     -29.024  17.327  -0.543  0.00  0.00    -0.218 N 
ATOM     18  C   UNL     1     -31.014  18.068   0.048  0.00  0.00    +0.201 C 
ATOM     19  C   UNL     1     -30.236  17.608  -1.108  0.00  0.00    +0.290 C 
ATOM     20  C   UNL     1     -32.292  18.460  -0.031  0.00  0.00    +0.042 C 
ATOM     21  C   UNL     1     -29.063  17.588   0.800  0.00  0.00    +0.244 C 
BRANCH  17  22
ATOM     22  C   UNL     1     -27.863  16.825  -1.263  0.00  0.00    +0.102 C 
ATOM     23  C   UNL     1     -27.869  15.312  -1.340  0.00  0.00    +0.024 C 
ENDBRANCH  17  22
ENDBRANCH  13  20
ENDBRANCH  11  12
ENDBRANCH   5  11
BRANCH   1  24
ATOM     24  C   UNL     1     -36.415  25.474   2.660  0.00  0.00    +0.097 C 
BRANCH  24  25
ATOM     25  C   UNL     1     -35.252  26.378   2.263  0.00  0.00    +0.048 C 
BRANCH  25  26
ATOM     26  C   UNL     1     -34.894  27.381   3.352  0.00  0.00    +0.160 C 
BRANCH  26  27
ATOM     27  S   UNL     1     -33.484  26.852   4.273  0.00  0.00    +0.023 S 
ATOM     28  O   UNL     1     -32.512  28.113   3.913  0.00  0.00    -0.069 OA
ATOM     29  O   UNL     1     -32.942  25.655   3.657  0.00  0.00    -0.069 OA
ATOM     30  O   UNL     1     -33.805  26.900   5.687  0.00  0.00    -0.069 OA
ENDBRANCH  26  27
ENDBRANCH  25  26
ENDBRANCH  24  25
ENDBRANCH   1  24
TORSDOF 8
ENDMDL
MODEL 7
REMARK VINA RESULT:      -6.5      2.591      3.729
REMARK  Name = 194425
REMARK  8 active torsions:
REMARK  status: ('A' for Active; 'I' for Inactive)
REMARK    1  A    between atoms: N_1  and  C_24
REMARK    2  A    between atoms: C_5  and  C_11
REMARK    3  A    between atoms: C_11  and  C_12
REMARK    4  A    between atoms: C_13  and  C_20
REMARK    5  A    between atoms: N_17  and  C_22
REMARK    6  A    between atoms: C_24  and  C_25
REMARK    7  A    between atoms: C_25  and  C_26
REMARK    8  A    between atoms: C_26  and  S_27
REMARK                            x       y       z     vdW  Elec       q    Type
REMARK                         _______ _______ _______ _____ _____    ______ ____
ROOT
ATOM      1  N   UNL     1     -35.579  24.738   4.539  0.00  0.00    -0.286 N 
ATOM      2  C   UNL     1     -35.808  24.734   3.132  0.00  0.00    +0.048 C 
ATOM      3  C   UNL     1     -35.913  23.488   2.435  0.00  0.00    -0.008 C 
ATOM      4  C   UNL     1     -35.454  23.540   5.221  0.00  0.00    +0.065 C 
ATOM      5  C   UNL     1     -35.773  22.224   3.232  0.00  0.00    -0.019 C 
ATOM      6  C   UNL     1     -35.534  22.326   4.665  0.00  0.00    +0.012 C 
ATOM      7  C   UNL     1     -35.940  25.925   2.389  0.00  0.00    +0.014 C 
ATOM      8  C   UNL     1     -36.139  23.494   1.047  0.00  0.00    +0.053 C 
ATOM      9  C   UNL     1     -36.164  25.903   1.013  0.00  0.00    -0.003 C 
ATOM     10  C   UNL     1     -36.263  24.692   0.344  0.00  0.00    -0.021 C 
ENDROOT
BRANCH   5  11
ATOM     11  C   UNL     1     -35.857  20.995   2.690  0.00  0.00    +0.052 C 
BRANCH  11  12
ATOM     12  C   UNL     1     -34.719  20.127   2.527  0.00  0.00    -0.021 C 
ATOM     13  C   UNL     1     -34.209  19.815   1.326  0.00  0.00    -0.001 C 
BRANCH  13  20
ATOM     14  S   UNL     1     -35.048  14.948  -0.993  0.00  0.00    +0.007 S 
ATOM     15  O   UNL     1     -34.323  17.174   0.132  0.00  0.00    -0.429 OA
ATOM     16  O   UNL     1     -30.839  17.073   0.752  0.00  0.00    -0.266 OA
ATOM     17  N   UNL     1     -32.553  15.749  -0.162  0.00  0.00    -0.218 N 
ATOM     18  C   UNL     1     -33.145  17.730   0.604  0.00  0.00    +0.201 C 
ATOM     19  C   UNL     1     -31.989  16.843   0.431  0.00  0.00    +0.290 C 
ATOM     20  C   UNL     1     -33.068  18.946   1.158  0.00  0.00    +0.042 C 
ATOM     21  C   UNL     1     -33.897  15.950  -0.329  0.00  0.00    +0.244 C 
BRANCH  17  22
ATOM     22  C   UNL     1     -31.832  14.549  -0.556  0.00  0.00    +0.102 C 
ATOM     23  C   UNL     1     -31.115  14.741  -1.877  0.00  0.00    +0.024 C 
ENDBRANCH  17  22
ENDBRANCH  13  20
ENDBRANCH  11  12
ENDBRANCH   5  11
BRANCH   1  24
ATOM     24  C   UNL     1     -35.478  26.022   5.231  0.00  0.00    +0.097 C 
BRANCH  24  25
ATOM     25  C   UNL     1     -34.043  26.295   5.669  0.00  0.00    +0.048 C 
BRANCH  25  26
ATOM     26  C   UNL     1     -33.249  27.067   4.624  0.00  0.00    +0.160 C 
BRANCH  26  27
ATOM     27  S   UNL     1     -32.280  28.341   5.367  0.00  0.00    +0.023 S 
ATOM     28  O   UNL     1     -30.823  27.839   4.829  0.00  0.00    -0.069 OA
ATOM     29  O   UNL     1     -32.323  28.185   6.809  0.00  0.00    -0.069 OA
ATOM     30  O   UNL     1     -32.602  29.605   4.730  0.00  0.00    -0.069 OA
ENDBRANCH  26  27
ENDBRANCH  25  26
ENDBRANCH  24  25
ENDBRANCH   1  24
TORSDOF 8
ENDMDL
MODEL 8
REMARK VINA RESULT:      -6.5      2.823      8.439
REMARK  Name = 194425
REMARK  8 active torsions:
REMARK  status: ('A' for Active; 'I' for Inactive)
REMARK    1  A    between atoms: N_1  and  C_24
REMARK    2  A    between atoms: C_5  and  C_11
REMARK    3  A    between atoms: C_11  and  C_12
REMARK    4  A    between atoms: C_13  and  C_20
REMARK    5  A    between atoms: N_17  and  C_22
REMARK    6  A    between atoms: C_24  and  C_25
REMARK    7  A    between atoms: C_25  and  C_26
REMARK    8  A    between atoms: C_26  and  S_27
REMARK                            x       y       z     vdW  Elec       q    Type
REMARK                         _______ _______ _______ _____ _____    ______ ____
ROOT
ATOM      1  N   UNL     1     -35.920  21.709   2.396  0.00  0.00    -0.286 N 
ATOM      2  C   UNL     1     -35.670  22.147   3.729  0.00  0.00    +0.048 C 
ATOM      3  C   UNL     1     -35.892  23.517   4.079  0.00  0.00    -0.008 C 
ATOM      4  C   UNL     1     -36.372  22.610   1.447  0.00  0.00    +0.065 C 
ATOM      5  C   UNL     1     -36.387  24.443   3.007  0.00  0.00    -0.019 C 
ATOM      6  C   UNL     1     -36.610  23.908   1.670  0.00  0.00    +0.012 C 
ATOM      7  C   UNL     1     -35.205  21.271   4.733  0.00  0.00    +0.014 C 
ATOM      8  C   UNL     1     -35.642  23.939   5.397  0.00  0.00    +0.053 C 
ATOM      9  C   UNL     1     -34.965  21.716   6.032  0.00  0.00    -0.003 C 
ATOM     10  C   UNL     1     -35.183  23.046   6.364  0.00  0.00    -0.021 C 
ENDROOT
BRANCH   5  11
ATOM     11  C   UNL     1     -36.638  25.749   3.216  0.00  0.00    +0.052 C 
BRANCH  11  12
ATOM     12  C   UNL     1     -35.748  26.799   2.788  0.00  0.00    -0.021 C 
ATOM     13  C   UNL     1     -34.520  26.963   3.302  0.00  0.00    -0.001 C 
BRANCH  13  20
ATOM     14  S   UNL     1     -31.460  29.386   7.115  0.00  0.00    +0.007 S 
ATOM     15  O   UNL     1     -32.767  28.441   5.078  0.00  0.00    -0.429 OA
ATOM     16  O   UNL     1     -31.757  30.166   2.156  0.00  0.00    -0.266 OA
ATOM     17  N   UNL     1     -31.326  30.115   4.467  0.00  0.00    -0.218 N 
ATOM     18  C   UNL     1     -32.824  28.682   3.716  0.00  0.00    +0.201 C 
ATOM     19  C   UNL     1     -31.913  29.750   3.288  0.00  0.00    +0.290 C 
ATOM     20  C   UNL     1     -33.624  28.014   2.876  0.00  0.00    +0.042 C 
ATOM     21  C   UNL     1     -31.826  29.356   5.491  0.00  0.00    +0.244 C 
BRANCH  17  22
ATOM     22  C   UNL     1     -30.321  31.157   4.612  0.00  0.00    +0.102 C 
ATOM     23  C   UNL     1     -28.933  30.636   4.301  0.00  0.00    +0.024 C 
ENDBRANCH  17  22
ENDBRANCH  13  20
ENDBRANCH  11  12
ENDBRANCH   5  11
BRANCH   1  24
ATOM     24  C   UNL     1     -35.688  20.304   2.062  0.00  0.00    +0.097 C 
BRANCH  24  25
ATOM     25  C   UNL     1     -34.417  20.143   1.236  0.00  0.00    +0.048 C 
BRANCH  25  26
ATOM     26  C   UNL     1     -33.559  18.975   1.704  0.00  0.00    +0.160 C 
BRANCH  26  27
ATOM     27  S   UNL     1     -32.178  18.723   0.634  0.00  0.00    +0.023 S 
ATOM     28  O   UNL     1     -33.016  18.243  -0.682  0.00  0.00    -0.069 OA
ATOM     29  O   UNL     1     -31.399  17.602   1.126  0.00  0.00    -0.069 OA
ATOM     30  O   UNL     1     -31.565  20.008   0.352  0.00  0.00    -0.069 OA
ENDBRANCH  26  27
ENDBRANCH  25  26
ENDBRANCH  24  25
ENDBRANCH   1  24
TORSDOF 8
ENDMDL
MODEL 9
REMARK VINA RESULT:      -6.4      2.555      3.488
REMARK  Name = 194425
REMARK  8 active torsions:
REMARK  status: ('A' for Active; 'I' for Inactive)
REMARK    1  A    between atoms: N_1  and  C_24
REMARK    2  A    between atoms: C_5  and  C_11
REMARK    3  A    between atoms: C_11  and  C_12
REMARK    4  A    between atoms: C_13  and  C_20
REMARK    5  A    between atoms: N_17  and  C_22
REMARK    6  A    between atoms: C_24  and  C_25
REMARK    7  A    between atoms: C_25  and  C_26
REMARK    8  A    between atoms: C_26  and  S_27
REMARK                            x       y       z     vdW  Elec       q    Type
REMARK                         _______ _______ _______ _____ _____    ______ ____
ROOT
ATOM      1  N   UNL     1     -36.986  23.361   3.432  0.00  0.00    -0.286 N 
ATOM      2  C   UNL     1     -37.820  22.710   2.477  0.00  0.00    +0.048 C 
ATOM      3  C   UNL     1     -37.351  21.533   1.812  0.00  0.00    -0.008 C 
ATOM      4  C   UNL     1     -35.727  22.854   3.707  0.00  0.00    +0.065 C 
ATOM      5  C   UNL     1     -35.980  21.031   2.157  0.00  0.00    -0.019 C 
ATOM      6  C   UNL     1     -35.196  21.764   3.141  0.00  0.00    +0.012 C 
ATOM      7  C   UNL     1     -39.109  23.186   2.157  0.00  0.00    +0.014 C 
ATOM      8  C   UNL     1     -38.182  20.898   0.871  0.00  0.00    +0.053 C 
ATOM      9  C   UNL     1     -39.912  22.537   1.221  0.00  0.00    -0.003 C 
ATOM     10  C   UNL     1     -39.451  21.396   0.579  0.00  0.00    -0.021 C 
ENDROOT
BRANCH   5  11
ATOM     11  C   UNL     1     -35.433  19.933   1.603  0.00  0.00    +0.052 C 
BRANCH  11  12
ATOM     12  C   UNL     1     -34.036  19.835   1.264  0.00  0.00    -0.021 C 
ATOM     13  C   UNL     1     -33.329  18.705   1.418  0.00  0.00    -0.001 C 
BRANCH  13  20
ATOM     14  S   UNL     1     -31.556  13.964  -0.618  0.00  0.00    +0.007 S 
ATOM     15  O   UNL     1     -32.080  16.329   0.319  0.00  0.00    -0.429 OA
ATOM     16  O   UNL     1     -29.105  18.248   0.343  0.00  0.00    -0.266 OA
ATOM     17  N   UNL     1     -29.870  16.102  -0.238  0.00  0.00    -0.218 N 
ATOM     18  C   UNL     1     -31.375  17.494   0.572  0.00  0.00    +0.201 C 
ATOM     19  C   UNL     1     -29.953  17.384   0.226  0.00  0.00    +0.290 C 
ATOM     20  C   UNL     1     -31.929  18.602   1.079  0.00  0.00    +0.042 C 
ATOM     21  C   UNL     1     -31.100  15.503  -0.180  0.00  0.00    +0.244 C 
BRANCH  17  22
ATOM     22  C   UNL     1     -28.654  15.467  -0.723  0.00  0.00    +0.102 C 
ATOM     23  C   UNL     1     -27.874  14.825   0.407  0.00  0.00    +0.024 C 
ENDBRANCH  17  22
ENDBRANCH  13  20
ENDBRANCH  11  12
ENDBRANCH   5  11
BRANCH   1  24
ATOM     24  C   UNL     1     -37.486  24.561   4.101  0.00  0.00    +0.097 C 
BRANCH  24  25
ATOM     25  C   UNL     1     -36.445  25.674   4.075  0.00  0.00    +0.048 C 
BRANCH  25  26
ATOM     26  C   UNL     1     -35.785  25.890   5.431  0.00  0.00    +0.160 C 
BRANCH  26  27
ATOM     27  S   UNL     1     -34.067  26.256   5.257  0.00  0.00    +0.023 S 
ATOM     28  O   UNL     1     -34.224  27.546   4.271  0.00  0.00    -0.069 OA
ATOM     29  O   UNL     1     -33.429  25.180   4.521  0.00  0.00    -0.069 OA
ATOM     30  O   UNL     1     -33.554  26.708   6.537  0.00  0.00    -0.069 OA
ENDBRANCH  26  27
ENDBRANCH  25  26
ENDBRANCH  24  25
ENDBRANCH   1  24
TORSDOF 8
ENDMDL
