MODEL 1
REMARK VINA RESULT:      -6.6      0.000      0.000
REMARK  Name = 193429
REMARK  9 active torsions:
REMARK  status: ('A' for Active; 'I' for Inactive)
REMARK    1  A    between atoms: C_6  and  C_26
REMARK    2  A    between atoms: C_7  and  O_20
REMARK    3  A    between atoms: C_11  and  O_22
REMARK    4  A    between atoms: C_19  and  O_24
REMARK    5  A    between atoms: C_26  and  C_28
REMARK    6  A    between atoms: C_28  and  C_29
REMARK    7  A    between atoms: C_29  and  O_30
REMARK    8  A    between atoms: C_29  and  C_33
REMARK    9  A    between atoms: C_33  and  O_34
REMARK                            x       y       z     vdW  Elec       q    Type
REMARK                         _______ _______ _______ _____ _____    ______ ____
ROOT
ATOM      1  C   UNL     1     -36.002  22.458   2.504  0.00  0.00    +0.025 C 
ATOM      2  C   UNL     1     -37.389  22.142   1.897  0.00  0.00    +0.005 C 
ATOM      3  C   UNL     1     -37.308  21.568   0.474  0.00  0.00    +0.027 C 
ATOM      4  C   UNL     1     -36.469  20.246   0.506  0.00  0.00    +0.005 C 
ATOM      5  C   UNL     1     -36.344  19.601  -0.928  0.00  0.00    +0.000 C 
ATOM      6  C   UNL     1     -36.463  23.069   3.853  0.00  0.00    +0.002 C 
ATOM      7  C   UNL     1     -35.188  21.151   2.595  0.00  0.00    +0.110 C 
ATOM      8  C   UNL     1     -35.103  20.438   1.228  0.00  0.00    +0.029 C 
ATOM      9  C   UNL     1     -37.776  19.361  -1.514  0.00  0.00    +0.005 C 
ATOM     10  C   UNL     1     -38.181  23.430   2.119  0.00  0.00    +0.000 C 
ATOM     11  C   UNL     1     -38.702  21.352  -0.147  0.00  0.00    +0.110 C 
ATOM     12  C   UNL     1     -37.653  23.975   3.458  0.00  0.00    +0.000 C 
ATOM     13  C   UNL     1     -38.637  20.640  -1.501  0.00  0.00    +0.029 C 
ATOM     14  C   UNL     1     -35.579  18.244  -0.910  0.00  0.00    +0.002 C 
ATOM     15  C   UNL     1     -35.187  23.492   1.680  0.00  0.00    +0.002 C 
ATOM     16  C   UNL     1     -38.512  18.185  -0.839  0.00  0.00    +0.029 C 
ATOM     17  C   UNL     1     -35.546  20.521  -1.891  0.00  0.00    +0.000 C 
ATOM     18  C   UNL     1     -36.328  17.117  -0.210  0.00  0.00    +0.029 C 
ATOM     19  C   UNL     1     -37.693  16.899  -0.849  0.00  0.00    +0.111 C 
ENDROOT
BRANCH   7  20
ATOM     20  O   UNL     1     -35.726  20.250   3.563  0.00  0.00    -0.384 OA
ATOM     21  H   UNL     1     -35.304  19.381   3.467  0.00  0.00    +0.210 HD
ENDBRANCH   7  20
BRANCH  11  22
ATOM     22  O   UNL     1     -39.537  20.625   0.750  0.00  0.00    -0.384 OA
ATOM     23  H   UNL     1     -40.441  20.973   0.703  0.00  0.00    +0.210 HD
ENDBRANCH  11  22
BRANCH  19  24
ATOM     24  O   UNL     1     -38.378  15.888  -0.119  0.00  0.00    -0.384 OA
ATOM     25  H   UNL     1     -39.317  16.122  -0.047  0.00  0.00    +0.210 HD
ENDBRANCH  19  24
BRANCH   6  26
ATOM     26  C   UNL     1     -35.403  23.803   4.662  0.00  0.00    +0.003 C 
ATOM     27  C   UNL     1     -35.176  23.089   6.000  0.00  0.00    +0.000 C 
BRANCH  26  28
ATOM     28  C   UNL     1     -35.774  25.279   4.925  0.00  0.00    +0.041 C 
BRANCH  28  29
ATOM     29  C   UNL     1     -34.845  26.294   4.252  0.00  0.00    +0.209 C 
BRANCH  29  30
ATOM     30  O   UNL     1     -35.562  27.498   4.020  0.00  0.00    -0.374 OA
ATOM     31  H   UNL     1     -35.120  28.008   3.322  0.00  0.00    +0.211 HD
ENDBRANCH  29  30
BRANCH  29  33
ATOM     32  O   UNL     1     -33.698  26.603   6.375  0.00  0.00    -0.248 OA
ATOM     33  C   UNL     1     -33.670  26.625   5.152  0.00  0.00    +0.341 C 
BRANCH  33  34
ATOM     34  O   UNL     1     -32.565  26.973   4.444  0.00  0.00    -0.479 OA
ATOM     35  H   UNL     1     -32.325  26.488   3.680  0.00  0.00    +0.295 HD
ENDBRANCH  33  34
ENDBRANCH  29  33
ENDBRANCH  28  29
ENDBRANCH  26  28
ENDBRANCH   6  26
TORSDOF 9
ENDMDL
MODEL 2
REMARK VINA RESULT:      -6.3      3.905      7.231
REMARK  Name = 193429
REMARK  9 active torsions:
REMARK  status: ('A' for Active; 'I' for Inactive)
REMARK    1  A    between atoms: C_6  and  C_26
REMARK    2  A    between atoms: C_7  and  O_20
REMARK    3  A    between atoms: C_11  and  O_22
REMARK    4  A    between atoms: C_19  and  O_24
REMARK    5  A    between atoms: C_26  and  C_28
REMARK    6  A    between atoms: C_28  and  C_29
REMARK    7  A    between atoms: C_29  and  O_30
REMARK    8  A    between atoms: C_29  and  C_33
REMARK    9  A    between atoms: C_33  and  O_34
REMARK                            x       y       z     vdW  Elec       q    Type
REMARK                         _______ _______ _______ _____ _____    ______ ____
ROOT
ATOM      1  C   UNL     1     -39.654  25.044   1.662  0.00  0.00    +0.025 C 
ATOM      2  C   UNL     1     -39.286  23.557   1.455  0.00  0.00    +0.005 C 
ATOM      3  C   UNL     1     -37.769  23.310   1.421  0.00  0.00    +0.027 C 
ATOM      4  C   UNL     1     -37.146  23.792   2.774  0.00  0.00    +0.005 C 
ATOM      5  C   UNL     1     -35.584  23.569   2.808  0.00  0.00    +0.000 C 
ATOM      6  C   UNL     1     -41.198  24.925   1.564  0.00  0.00    +0.002 C 
ATOM      7  C   UNL     1     -39.096  25.513   3.021  0.00  0.00    +0.110 C 
ATOM      8  C   UNL     1     -37.580  25.243   3.134  0.00  0.00    +0.029 C 
ATOM      9  C   UNL     1     -35.271  22.060   2.533  0.00  0.00    +0.005 C 
ATOM     10  C   UNL     1     -40.118  23.144   0.242  0.00  0.00    +0.000 C 
ATOM     11  C   UNL     1     -37.425  21.839   1.118  0.00  0.00    +0.110 C 
ATOM     12  C   UNL     1     -41.417  23.957   0.379  0.00  0.00    +0.000 C 
ATOM     13  C   UNL     1     -35.925  21.552   1.233  0.00  0.00    +0.029 C 
ATOM     14  C   UNL     1     -34.951  23.968   4.174  0.00  0.00    +0.002 C 
ATOM     15  C   UNL     1     -39.102  25.979   0.551  0.00  0.00    +0.002 C 
ATOM     16  C   UNL     1     -35.621  21.147   3.727  0.00  0.00    +0.029 C 
ATOM     17  C   UNL     1     -34.868  24.440   1.741  0.00  0.00    +0.000 C 
ATOM     18  C   UNL     1     -35.343  23.059   5.331  0.00  0.00    +0.029 C 
ATOM     19  C   UNL     1     -34.976  21.613   5.028  0.00  0.00    +0.111 C 
ENDROOT
BRANCH   7  20
ATOM     20  O   UNL     1     -39.767  24.895   4.119  0.00  0.00    -0.384 OA
ATOM     21  H   UNL     1     -40.024  25.573   4.764  0.00  0.00    +0.210 HD
ENDBRANCH   7  20
BRANCH  11  22
ATOM     22  O   UNL     1     -38.158  20.971   1.978  0.00  0.00    -0.384 OA
ATOM     23  H   UNL     1     -37.768  20.992   2.866  0.00  0.00    +0.210 HD
ENDBRANCH  11  22
BRANCH  19  24
ATOM     24  O   UNL     1     -35.423  20.796   6.105  0.00  0.00    -0.384 OA
ATOM     25  H   UNL     1     -35.472  21.329   6.914  0.00  0.00    +0.210 HD
ENDBRANCH  19  24
BRANCH   6  26
ATOM     26  C   UNL     1     -41.970  26.229   1.416  0.00  0.00    +0.003 C 
ATOM     27  C   UNL     1     -42.378  26.757   2.797  0.00  0.00    +0.000 C 
BRANCH  26  28
ATOM     28  C   UNL     1     -43.229  26.075   0.534  0.00  0.00    +0.041 C 
BRANCH  28  29
ATOM     29  C   UNL     1     -44.551  26.132   1.306  0.00  0.00    +0.209 C 
BRANCH  29  30
ATOM     30  O   UNL     1     -45.525  26.791   0.509  0.00  0.00    -0.374 OA
ATOM     31  H   UNL     1     -46.097  26.131   0.085  0.00  0.00    +0.211 HD
ENDBRANCH  29  30
BRANCH  29  33
ATOM     32  O   UNL     1     -44.895  23.763   0.873  0.00  0.00    -0.248 OA
ATOM     33  C   UNL     1     -45.064  24.735   1.597  0.00  0.00    +0.341 C 
BRANCH  33  34
ATOM     34  O   UNL     1     -45.760  24.677   2.761  0.00  0.00    -0.479 OA
ATOM     35  H   UNL     1     -45.645  23.951   3.341  0.00  0.00    +0.295 HD
ENDBRANCH  33  34
ENDBRANCH  29  33
ENDBRANCH  28  29
ENDBRANCH  26  28
ENDBRANCH   6  26
TORSDOF 9
ENDMDL
MODEL 3
REMARK VINA RESULT:      -6.2      4.465      9.151
REMARK  Name = 193429
REMARK  9 active torsions:
REMARK  status: ('A' for Active; 'I' for Inactive)
REMARK    1  A    between atoms: C_6  and  C_26
REMARK    2  A    between atoms: C_7  and  O_20
REMARK    3  A    between atoms: C_11  and  O_22
REMARK    4  A    between atoms: C_19  and  O_24
REMARK    5  A    between atoms: C_26  and  C_28
REMARK    6  A    between atoms: C_28  and  C_29
REMARK    7  A    between atoms: C_29  and  O_30
REMARK    8  A    between atoms: C_29  and  C_33
REMARK    9  A    between atoms: C_33  and  O_34
REMARK                            x       y       z     vdW  Elec       q    Type
REMARK                         _______ _______ _______ _____ _____    ______ ____
ROOT
ATOM      1  C   UNL     1     -35.922  26.503   1.775  0.00  0.00    +0.025 C 
ATOM      2  C   UNL     1     -35.425  27.726   2.580  0.00  0.00    +0.005 C 
ATOM      3  C   UNL     1     -35.179  28.965   1.705  0.00  0.00    +0.027 C 
ATOM      4  C   UNL     1     -36.515  29.354   0.987  0.00  0.00    +0.005 C 
ATOM      5  C   UNL     1     -36.335  30.622   0.066  0.00  0.00    +0.000 C 
ATOM      6  C   UNL     1     -35.980  25.465   2.926  0.00  0.00    +0.002 C 
ATOM      7  C   UNL     1     -37.269  26.856   1.112  0.00  0.00    +0.110 C 
ATOM      8  C   UNL     1     -37.164  28.139   0.260  0.00  0.00    +0.029 C 
ATOM      9  C   UNL     1     -35.774  31.807   0.923  0.00  0.00    +0.005 C 
ATOM     10  C   UNL     1     -34.261  27.171   3.399  0.00  0.00    +0.000 C 
ATOM     11  C   UNL     1     -34.593  30.141   2.511  0.00  0.00    +0.110 C 
ATOM     12  C   UNL     1     -34.680  25.725   3.721  0.00  0.00    +0.000 C 
ATOM     13  C   UNL     1     -34.488  31.425   1.682  0.00  0.00    +0.029 C 
ATOM     14  C   UNL     1     -37.669  31.075  -0.598  0.00  0.00    +0.002 C 
ATOM     15  C   UNL     1     -34.931  26.046   0.670  0.00  0.00    +0.002 C 
ATOM     16  C   UNL     1     -36.827  32.410   1.876  0.00  0.00    +0.029 C 
ATOM     17  C   UNL     1     -35.357  30.333  -1.105  0.00  0.00    +0.000 C 
ATOM     18  C   UNL     1     -38.691  31.639   0.380  0.00  0.00    +0.029 C 
ATOM     19  C   UNL     1     -38.107  32.815   1.152  0.00  0.00    +0.111 C 
ENDROOT
BRANCH   7  20
ATOM     20  O   UNL     1     -38.315  27.012   2.071  0.00  0.00    -0.384 OA
ATOM     21  H   UNL     1     -38.406  26.195   2.586  0.00  0.00    +0.210 HD
ENDBRANCH   7  20
BRANCH  11  22
ATOM     22  O   UNL     1     -35.371  30.375   3.682  0.00  0.00    -0.384 OA
ATOM     23  H   UNL     1     -35.796  31.245   3.619  0.00  0.00    +0.210 HD
ENDBRANCH  11  22
BRANCH  19  24
ATOM     24  O   UNL     1     -39.073  33.260   2.097  0.00  0.00    -0.384 OA
ATOM     25  H   UNL     1     -38.669  33.919   2.685  0.00  0.00    +0.210 HD
ENDBRANCH  19  24
BRANCH   6  26
ATOM     26  C   UNL     1     -36.144  24.008   2.517  0.00  0.00    +0.003 C 
ATOM     27  C   UNL     1     -37.592  23.558   2.745  0.00  0.00    +0.000 C 
BRANCH  26  28
ATOM     28  C   UNL     1     -35.188  23.066   3.283  0.00  0.00    +0.041 C 
BRANCH  28  29
ATOM     29  C   UNL     1     -35.891  21.940   4.048  0.00  0.00    +0.209 C 
BRANCH  29  30
ATOM     30  O   UNL     1     -35.528  20.692   3.474  0.00  0.00    -0.374 OA
ATOM     31  H   UNL     1     -36.326  20.236   3.162  0.00  0.00    +0.211 HD
ENDBRANCH  29  30
BRANCH  29  33
ATOM     32  O   UNL     1     -35.379  22.910   6.220  0.00  0.00    -0.248 OA
ATOM     33  C   UNL     1     -35.453  21.923   5.500  0.00  0.00    +0.341 C 
BRANCH  33  34
ATOM     34  O   UNL     1     -35.126  20.674   5.922  0.00  0.00    -0.479 OA
ATOM     35  H   UNL     1     -35.568  19.929   5.567  0.00  0.00    +0.295 HD
ENDBRANCH  33  34
ENDBRANCH  29  33
ENDBRANCH  28  29
ENDBRANCH  26  28
ENDBRANCH   6  26
TORSDOF 9
ENDMDL
MODEL 4
REMARK VINA RESULT:      -6.2      4.617     10.130
REMARK  Name = 193429
REMARK  9 active torsions:
REMARK  status: ('A' for Active; 'I' for Inactive)
REMARK    1  A    between atoms: C_6  and  C_26
REMARK    2  A    between atoms: C_7  and  O_20
REMARK    3  A    between atoms: C_11  and  O_22
REMARK    4  A    between atoms: C_19  and  O_24
REMARK    5  A    between atoms: C_26  and  C_28
REMARK    6  A    between atoms: C_28  and  C_29
REMARK    7  A    between atoms: C_29  and  O_30
REMARK    8  A    between atoms: C_29  and  C_33
REMARK    9  A    between atoms: C_33  and  O_34
REMARK                            x       y       z     vdW  Elec       q    Type
REMARK                         _______ _______ _______ _____ _____    ______ ____
ROOT
ATOM      1  C   UNL     1     -34.052  26.822   3.632  0.00  0.00    +0.025 C 
ATOM      2  C   UNL     1     -33.352  27.625   4.753  0.00  0.00    +0.005 C 
ATOM      3  C   UNL     1     -32.006  28.224   4.314  0.00  0.00    +0.027 C 
ATOM      4  C   UNL     1     -32.248  29.179   3.096  0.00  0.00    +0.005 C 
ATOM      5  C   UNL     1     -30.903  29.830   2.590  0.00  0.00    +0.000 C 
ATOM      6  C   UNL     1     -35.285  26.321   4.431  0.00  0.00    +0.002 C 
ATOM      7  C   UNL     1     -34.349  27.766   2.450  0.00  0.00    +0.110 C 
ATOM      8  C   UNL     1     -33.073  28.491   1.969  0.00  0.00    +0.029 C 
ATOM      9  C   UNL     1     -30.211  30.577   3.780  0.00  0.00    +0.005 C 
ATOM     10  C   UNL     1     -33.370  26.672   5.946  0.00  0.00    +0.000 C 
ATOM     11  C   UNL     1     -31.281  28.939   5.472  0.00  0.00    +0.110 C 
ATOM     12  C   UNL     1     -34.692  25.899   5.795  0.00  0.00    +0.000 C 
ATOM     13  C   UNL     1     -30.017  29.668   5.010  0.00  0.00    +0.029 C 
ATOM     14  C   UNL     1     -31.127  30.844   1.429  0.00  0.00    +0.002 C 
ATOM     15  C   UNL     1     -33.210  25.625   3.111  0.00  0.00    +0.002 C 
ATOM     16  C   UNL     1     -30.928  31.889   4.164  0.00  0.00    +0.029 C 
ATOM     17  C   UNL     1     -29.933  28.755   2.031  0.00  0.00    +0.000 C 
ATOM     18  C   UNL     1     -31.861  32.112   1.843  0.00  0.00    +0.029 C 
ATOM     19  C   UNL     1     -31.122  32.819   2.971  0.00  0.00    +0.111 C 
ENDROOT
BRANCH   7  20
ATOM     20  O   UNL     1     -35.346  28.735   2.774  0.00  0.00    -0.384 OA
ATOM     21  H   UNL     1     -34.955  29.429   3.330  0.00  0.00    +0.210 HD
ENDBRANCH   7  20
BRANCH  11  22
ATOM     22  O   UNL     1     -32.164  29.849   6.122  0.00  0.00    -0.384 OA
ATOM     23  H   UNL     1     -33.007  29.406   6.305  0.00  0.00    +0.210 HD
ENDBRANCH  11  22
BRANCH  19  24
ATOM     24  O   UNL     1     -31.880  33.956   3.367  0.00  0.00    -0.384 OA
ATOM     25  H   UNL     1     -32.495  34.198   2.656  0.00  0.00    +0.210 HD
ENDBRANCH  19  24
BRANCH   6  26
ATOM     26  C   UNL     1     -36.113  25.222   3.779  0.00  0.00    +0.003 C 
ATOM     27  C   UNL     1     -37.388  25.818   3.169  0.00  0.00    +0.000 C 
BRANCH  26  28
ATOM     28  C   UNL     1     -36.496  24.101   4.771  0.00  0.00    +0.041 C 
BRANCH  28  29
ATOM     29  C   UNL     1     -36.053  22.700   4.340  0.00  0.00    +0.209 C 
BRANCH  29  30
ATOM     30  O   UNL     1     -35.074  22.815   3.317  0.00  0.00    -0.374 OA
ATOM     31  H   UNL     1     -35.423  22.444   2.491  0.00  0.00    +0.211 HD
ENDBRANCH  29  30
BRANCH  29  33
ATOM     32  O   UNL     1     -35.168  22.448   6.592  0.00  0.00    -0.248 OA
ATOM     33  C   UNL     1     -35.421  21.956   5.500  0.00  0.00    +0.341 C 
BRANCH  33  34
ATOM     34  O   UNL     1     -35.142  20.663   5.190  0.00  0.00    -0.479 OA
ATOM     35  H   UNL     1     -34.295  20.431   4.867  0.00  0.00    +0.295 HD
ENDBRANCH  33  34
ENDBRANCH  29  33
ENDBRANCH  28  29
ENDBRANCH  26  28
ENDBRANCH   6  26
TORSDOF 9
ENDMDL
MODEL 5
REMARK VINA RESULT:      -6.1      3.953      6.719
REMARK  Name = 193429
REMARK  9 active torsions:
REMARK  status: ('A' for Active; 'I' for Inactive)
REMARK    1  A    between atoms: C_6  and  C_26
REMARK    2  A    between atoms: C_7  and  O_20
REMARK    3  A    between atoms: C_11  and  O_22
REMARK    4  A    between atoms: C_19  and  O_24
REMARK    5  A    between atoms: C_26  and  C_28
REMARK    6  A    between atoms: C_28  and  C_29
REMARK    7  A    between atoms: C_29  and  O_30
REMARK    8  A    between atoms: C_29  and  C_33
REMARK    9  A    between atoms: C_33  and  O_34
REMARK                            x       y       z     vdW  Elec       q    Type
REMARK                         _______ _______ _______ _____ _____    ______ ____
ROOT
ATOM      1  C   UNL     1     -39.648  25.156   1.742  0.00  0.00    +0.025 C 
ATOM      2  C   UNL     1     -39.301  23.669   1.499  0.00  0.00    +0.005 C 
ATOM      3  C   UNL     1     -37.788  23.402   1.454  0.00  0.00    +0.027 C 
ATOM      4  C   UNL     1     -37.154  23.843   2.817  0.00  0.00    +0.005 C 
ATOM      5  C   UNL     1     -35.596  23.598   2.842  0.00  0.00    +0.000 C 
ATOM      6  C   UNL     1     -41.193  25.060   1.646  0.00  0.00    +0.002 C 
ATOM      7  C   UNL     1     -39.079  25.584   3.110  0.00  0.00    +0.110 C 
ATOM      8  C   UNL     1     -37.567  25.291   3.213  0.00  0.00    +0.029 C 
ATOM      9  C   UNL     1     -35.304  22.091   2.530  0.00  0.00    +0.005 C 
ATOM     10  C   UNL     1     -40.141  23.296   0.279  0.00  0.00    +0.000 C 
ATOM     11  C   UNL     1     -37.464  21.934   1.116  0.00  0.00    +0.110 C 
ATOM     12  C   UNL     1     -41.429  24.124   0.438  0.00  0.00    +0.000 C 
ATOM     13  C   UNL     1     -35.968  21.624   1.220  0.00  0.00    +0.029 C 
ATOM     14  C   UNL     1     -34.954  23.956   4.215  0.00  0.00    +0.002 C 
ATOM     15  C   UNL     1     -39.086  26.109   0.652  0.00  0.00    +0.002 C 
ATOM     16  C   UNL     1     -35.664  21.155   3.702  0.00  0.00    +0.029 C 
ATOM     17  C   UNL     1     -34.871  24.485   1.793  0.00  0.00    +0.000 C 
ATOM     18  C   UNL     1     -35.355  23.025   5.351  0.00  0.00    +0.029 C 
ATOM     19  C   UNL     1     -35.009  21.581   5.013  0.00  0.00    +0.111 C 
ENDROOT
BRANCH   7  20
ATOM     20  O   UNL     1     -39.756  24.950   4.195  0.00  0.00    -0.384 OA
ATOM     21  H   UNL     1     -39.329  25.196   5.031  0.00  0.00    +0.210 HD
ENDBRANCH   7  20
BRANCH  11  22
ATOM     22  O   UNL     1     -38.207  21.056   1.957  0.00  0.00    -0.384 OA
ATOM     23  H   UNL     1     -38.337  20.208   1.504  0.00  0.00    +0.210 HD
ENDBRANCH  11  22
BRANCH  19  24
ATOM     24  O   UNL     1     -35.464  20.746   6.071  0.00  0.00    -0.384 OA
ATOM     25  H   UNL     1     -36.418  20.874   6.195  0.00  0.00    +0.210 HD
ENDBRANCH  19  24
BRANCH   6  26
ATOM     26  C   UNL     1     -41.948  26.377   1.531  0.00  0.00    +0.003 C 
ATOM     27  C   UNL     1     -42.973  26.496   2.665  0.00  0.00    +0.000 C 
BRANCH  26  28
ATOM     28  C   UNL     1     -42.667  26.532   0.172  0.00  0.00    +0.041 C 
BRANCH  28  29
ATOM     29  C   UNL     1     -42.122  27.664  -0.705  0.00  0.00    +0.209 C 
BRANCH  29  30
ATOM     30  O   UNL     1     -43.033  27.907  -1.768  0.00  0.00    -0.374 OA
ATOM     31  H   UNL     1     -43.237  28.855  -1.808  0.00  0.00    +0.211 HD
ENDBRANCH  29  30
BRANCH  29  33
ATOM     32  O   UNL     1     -42.932  29.586   0.547  0.00  0.00    -0.248 OA
ATOM     33  C   UNL     1     -41.993  28.947   0.093  0.00  0.00    +0.341 C 
BRANCH  33  34
ATOM     34  O   UNL     1     -40.698  29.331   0.239  0.00  0.00    -0.479 OA
ATOM     35  H   UNL     1     -40.113  28.819   0.760  0.00  0.00    +0.295 HD
ENDBRANCH  33  34
ENDBRANCH  29  33
ENDBRANCH  28  29
ENDBRANCH  26  28
ENDBRANCH   6  26
TORSDOF 9
ENDMDL
MODEL 6
REMARK VINA RESULT:      -6.0      1.551      2.090
REMARK  Name = 193429
REMARK  9 active torsions:
REMARK  status: ('A' for Active; 'I' for Inactive)
REMARK    1  A    between atoms: C_6  and  C_26
REMARK    2  A    between atoms: C_7  and  O_20
REMARK    3  A    between atoms: C_11  and  O_22
REMARK    4  A    between atoms: C_19  and  O_24
REMARK    5  A    between atoms: C_26  and  C_28
REMARK    6  A    between atoms: C_28  and  C_29
REMARK    7  A    between atoms: C_29  and  O_30
REMARK    8  A    between atoms: C_29  and  C_33
REMARK    9  A    between atoms: C_33  and  O_34
REMARK                            x       y       z     vdW  Elec       q    Type
REMARK                         _______ _______ _______ _____ _____    ______ ____
ROOT
ATOM      1  C   UNL     1     -35.942  21.636   1.621  0.00  0.00    +0.025 C 
ATOM      2  C   UNL     1     -37.047  20.747   1.004  0.00  0.00    +0.005 C 
ATOM      3  C   UNL     1     -36.645  20.138  -0.349  0.00  0.00    +0.027 C 
ATOM      4  C   UNL     1     -35.359  19.266  -0.152  0.00  0.00    +0.005 C 
ATOM      5  C   UNL     1     -34.888  18.608  -1.506  0.00  0.00    +0.000 C 
ATOM      6  C   UNL     1     -36.702  22.121   2.883  0.00  0.00    +0.002 C 
ATOM      7  C   UNL     1     -34.690  20.772   1.875  0.00  0.00    +0.110 C 
ATOM      8  C   UNL     1     -34.234  20.043   0.592  0.00  0.00    +0.029 C 
ATOM      9  C   UNL     1     -36.065  17.772  -2.113  0.00  0.00    +0.005 C 
ATOM     10  C   UNL     1     -38.294  21.627   1.064  0.00  0.00    +0.000 C 
ATOM     11  C   UNL     1     -37.794  19.335  -0.991  0.00  0.00    +0.110 C 
ATOM     12  C   UNL     1     -38.120  22.444   2.357  0.00  0.00    +0.000 C 
ATOM     13  C   UNL     1     -37.357  18.600  -2.261  0.00  0.00    +0.029 C 
ATOM     14  C   UNL     1     -33.656  17.673  -1.322  0.00  0.00    +0.002 C 
ATOM     15  C   UNL     1     -35.541  22.837   0.722  0.00  0.00    +0.002 C 
ATOM     16  C   UNL     1     -36.328  16.460  -1.344  0.00  0.00    +0.029 C 
ATOM     17  C   UNL     1     -34.448  19.687  -2.532  0.00  0.00    +0.000 C 
ATOM     18  C   UNL     1     -33.951  16.404  -0.535  0.00  0.00    +0.029 C 
ATOM     19  C   UNL     1     -35.071  15.609  -1.193  0.00  0.00    +0.111 C 
ENDROOT
BRANCH   7  20
ATOM     20  O   UNL     1     -34.899  19.814   2.911  0.00  0.00    -0.384 OA
ATOM     21  H   UNL     1     -34.104  19.755   3.464  0.00  0.00    +0.210 HD
ENDBRANCH   7  20
BRANCH  11  22
ATOM     22  O   UNL     1     -38.339  18.412  -0.052  0.00  0.00    -0.384 OA
ATOM     23  H   UNL     1     -37.807  17.601  -0.052  0.00  0.00    +0.210 HD
ENDBRANCH  11  22
BRANCH  19  24
ATOM     24  O   UNL     1     -35.355  14.472  -0.386  0.00  0.00    -0.384 OA
ATOM     25  H   UNL     1     -34.979  13.680  -0.801  0.00  0.00    +0.210 HD
ENDBRANCH  19  24
BRANCH   6  26
ATOM     26  C   UNL     1     -36.076  23.280   3.647  0.00  0.00    +0.003 C 
ATOM     27  C   UNL     1     -35.358  22.757   4.897  0.00  0.00    +0.000 C 
BRANCH  26  28
ATOM     28  C   UNL     1     -37.113  24.347   4.061  0.00  0.00    +0.041 C 
BRANCH  28  29
ATOM     29  C   UNL     1     -36.820  25.753   3.527  0.00  0.00    +0.209 C 
BRANCH  29  30
ATOM     30  O   UNL     1     -38.036  26.483   3.451  0.00  0.00    -0.374 OA
ATOM     31  H   UNL     1     -37.940  27.204   2.809  0.00  0.00    +0.211 HD
ENDBRANCH  29  30
BRANCH  29  33
ATOM     32  O   UNL     1     -35.703  26.211   5.639  0.00  0.00    -0.248 OA
ATOM     33  C   UNL     1     -35.893  26.500   4.465  0.00  0.00    +0.341 C 
BRANCH  33  34
ATOM     34  O   UNL     1     -35.295  27.559   3.859  0.00  0.00    -0.479 OA
ATOM     35  H   UNL     1     -34.721  28.115   4.346  0.00  0.00    +0.295 HD
ENDBRANCH  33  34
ENDBRANCH  29  33
ENDBRANCH  28  29
ENDBRANCH  26  28
ENDBRANCH   6  26
TORSDOF 9
ENDMDL
MODEL 7
REMARK VINA RESULT:      -5.9      1.944      2.950
REMARK  Name = 193429
REMARK  9 active torsions:
REMARK  status: ('A' for Active; 'I' for Inactive)
REMARK    1  A    between atoms: C_6  and  C_26
REMARK    2  A    between atoms: C_7  and  O_20
REMARK    3  A    between atoms: C_11  and  O_22
REMARK    4  A    between atoms: C_19  and  O_24
REMARK    5  A    between atoms: C_26  and  C_28
REMARK    6  A    between atoms: C_28  and  C_29
REMARK    7  A    between atoms: C_29  and  O_30
REMARK    8  A    between atoms: C_29  and  C_33
REMARK    9  A    between atoms: C_33  and  O_34
REMARK                            x       y       z     vdW  Elec       q    Type
REMARK                         _______ _______ _______ _____ _____    ______ ____
ROOT
ATOM      1  C   UNL     1     -35.343  21.542   1.143  0.00  0.00    +0.025 C 
ATOM      2  C   UNL     1     -36.309  21.197  -0.014  0.00  0.00    +0.005 C 
ATOM      3  C   UNL     1     -35.713  20.199  -1.020  0.00  0.00    +0.027 C 
ATOM      4  C   UNL     1     -35.350  18.875  -0.266  0.00  0.00    +0.005 C 
ATOM      5  C   UNL     1     -34.730  17.801  -1.241  0.00  0.00    +0.000 C 
ATOM      6  C   UNL     1     -36.216  22.591   1.880  0.00  0.00    +0.002 C 
ATOM      7  C   UNL     1     -35.026  20.253   1.929  0.00  0.00    +0.110 C 
ATOM      8  C   UNL     1     -34.488  19.142   1.003  0.00  0.00    +0.029 C 
ATOM      9  C   UNL     1     -35.724  17.539  -2.422  0.00  0.00    +0.005 C 
ATOM     10  C   UNL     1     -36.761  22.563  -0.527  0.00  0.00    +0.000 C 
ATOM     11  C   UNL     1     -36.654  19.944  -2.214  0.00  0.00    +0.110 C 
ATOM     12  C   UNL     1     -36.810  23.444   0.735  0.00  0.00    +0.000 C 
ATOM     13  C   UNL     1     -36.138  18.838  -3.140  0.00  0.00    +0.029 C 
ATOM     14  C   UNL     1     -34.432  16.447  -0.531  0.00  0.00    +0.002 C 
ATOM     15  C   UNL     1     -34.007  22.173   0.666  0.00  0.00    +0.002 C 
ATOM     16  C   UNL     1     -36.960  16.719  -1.995  0.00  0.00    +0.029 C 
ATOM     17  C   UNL     1     -33.371  18.283  -1.817  0.00  0.00    +0.000 C 
ATOM     18  C   UNL     1     -35.676  15.683  -0.102  0.00  0.00    +0.029 C 
ATOM     19  C   UNL     1     -36.584  15.417  -1.295  0.00  0.00    +0.111 C 
ENDROOT
BRANCH   7  20
ATOM     20  O   UNL     1     -36.162  19.764   2.640  0.00  0.00    -0.384 OA
ATOM     21  H   UNL     1     -35.982  19.786   3.593  0.00  0.00    +0.210 HD
ENDBRANCH   7  20
BRANCH  11  22
ATOM     22  O   UNL     1     -37.965  19.627  -1.754  0.00  0.00    -0.384 OA
ATOM     23  H   UNL     1     -38.599  20.257  -2.129  0.00  0.00    +0.210 HD
ENDBRANCH  11  22
BRANCH  19  24
ATOM     24  O   UNL     1     -37.761  14.764  -0.832  0.00  0.00    -0.384 OA
ATOM     25  H   UNL     1     -38.540  15.180  -1.234  0.00  0.00    +0.210 HD
ENDBRANCH  19  24
BRANCH   6  26
ATOM     26  C   UNL     1     -35.518  23.429   2.942  0.00  0.00    +0.003 C 
ATOM     27  C   UNL     1     -35.653  22.757   4.313  0.00  0.00    +0.000 C 
BRANCH  26  28
ATOM     28  C   UNL     1     -36.071  24.869   3.021  0.00  0.00    +0.041 C 
BRANCH  28  29
ATOM     29  C   UNL     1     -37.100  25.089   4.133  0.00  0.00    +0.209 C 
BRANCH  29  30
ATOM     30  O   UNL     1     -36.833  26.328   4.775  0.00  0.00    -0.374 OA
ATOM     31  H   UNL     1     -36.051  26.738   4.372  0.00  0.00    +0.211 HD
ENDBRANCH  29  30
BRANCH  29  33
ATOM     32  O   UNL     1     -39.212  24.192   3.324  0.00  0.00    -0.248 OA
ATOM     33  C   UNL     1     -38.503  25.161   3.561  0.00  0.00    +0.341 C 
BRANCH  33  34
ATOM     34  O   UNL     1     -38.892  26.439   3.316  0.00  0.00    -0.479 OA
ATOM     35  H   UNL     1     -38.966  26.746   2.435  0.00  0.00    +0.295 HD
ENDBRANCH  33  34
ENDBRANCH  29  33
ENDBRANCH  28  29
ENDBRANCH  26  28
ENDBRANCH   6  26
TORSDOF 9
ENDMDL
MODEL 8
REMARK VINA RESULT:      -5.9      3.159      5.807
REMARK  Name = 193429
REMARK  9 active torsions:
REMARK  status: ('A' for Active; 'I' for Inactive)
REMARK    1  A    between atoms: C_6  and  C_26
REMARK    2  A    between atoms: C_7  and  O_20
REMARK    3  A    between atoms: C_11  and  O_22
REMARK    4  A    between atoms: C_19  and  O_24
REMARK    5  A    between atoms: C_26  and  C_28
REMARK    6  A    between atoms: C_28  and  C_29
REMARK    7  A    between atoms: C_29  and  O_30
REMARK    8  A    between atoms: C_29  and  C_33
REMARK    9  A    between atoms: C_33  and  O_34
REMARK                            x       y       z     vdW  Elec       q    Type
REMARK                         _______ _______ _______ _____ _____    ______ ____
ROOT
ATOM      1  C   UNL     1     -33.374  26.825   3.561  0.00  0.00    +0.025 C 
ATOM      2  C   UNL     1     -33.874  25.648   4.431  0.00  0.00    +0.005 C 
ATOM      3  C   UNL     1     -35.044  24.881   3.794  0.00  0.00    +0.027 C 
ATOM      4  C   UNL     1     -34.583  24.312   2.410  0.00  0.00    +0.005 C 
ATOM      5  C   UNL     1     -35.739  23.511   1.695  0.00  0.00    +0.000 C 
ATOM      6  C   UNL     1     -32.294  27.390   4.520  0.00  0.00    +0.002 C 
ATOM      7  C   UNL     1     -32.863  26.269   2.216  0.00  0.00    +0.110 C 
ATOM      8  C   UNL     1     -33.935  25.408   1.513  0.00  0.00    +0.029 C 
ATOM      9  C   UNL     1     -36.245  22.374   2.647  0.00  0.00    +0.005 C 
ATOM     10  C   UNL     1     -34.082  26.280   5.807  0.00  0.00    +0.000 C 
ATOM     11  C   UNL     1     -35.588  23.776   4.720  0.00  0.00    +0.110 C 
ATOM     12  C   UNL     1     -32.973  27.343   5.908  0.00  0.00    +0.000 C 
ATOM     13  C   UNL     1     -36.649  22.908   4.035  0.00  0.00    +0.029 C 
ATOM     14  C   UNL     1     -35.283  22.869   0.352  0.00  0.00    +0.002 C 
ATOM     15  C   UNL     1     -34.467  27.889   3.273  0.00  0.00    +0.002 C 
ATOM     16  C   UNL     1     -35.246  21.204   2.768  0.00  0.00    +0.029 C 
ATOM     17  C   UNL     1     -36.929  24.440   1.336  0.00  0.00    +0.000 C 
ATOM     18  C   UNL     1     -34.277  21.737   0.513  0.00  0.00    +0.029 C 
ATOM     19  C   UNL     1     -34.838  20.642   1.410  0.00  0.00    +0.111 C 
ENDROOT
BRANCH   7  20
ATOM     20  O   UNL     1     -31.670  25.500   2.372  0.00  0.00    -0.384 OA
ATOM     21  H   UNL     1     -30.952  26.075   2.680  0.00  0.00    +0.210 HD
ENDBRANCH   7  20
BRANCH  11  22
ATOM     22  O   UNL     1     -34.522  22.961   5.200  0.00  0.00    -0.384 OA
ATOM     23  H   UNL     1     -34.623  22.061   4.852  0.00  0.00    +0.210 HD
ENDBRANCH  11  22
BRANCH  19  24
ATOM     24  O   UNL     1     -33.839  19.644   1.585  0.00  0.00    -0.384 OA
ATOM     25  H   UNL     1     -34.093  18.843   1.098  0.00  0.00    +0.210 HD
ENDBRANCH  19  24
BRANCH   6  26
ATOM     26  C   UNL     1     -31.739  28.766   4.178  0.00  0.00    +0.003 C 
ATOM     27  C   UNL     1     -30.594  28.634   3.166  0.00  0.00    +0.000 C 
BRANCH  26  28
ATOM     28  C   UNL     1     -31.235  29.528   5.424  0.00  0.00    +0.041 C 
BRANCH  28  29
ATOM     29  C   UNL     1     -29.710  29.581   5.558  0.00  0.00    +0.209 C 
BRANCH  29  30
ATOM     30  O   UNL     1     -29.296  30.939   5.615  0.00  0.00    -0.374 OA
ATOM     31  H   UNL     1     -30.034  31.490   5.921  0.00  0.00    +0.211 HD
ENDBRANCH  29  30
BRANCH  29  33
ATOM     32  O   UNL     1     -28.704  29.478   7.771  0.00  0.00    -0.248 OA
ATOM     33  C   UNL     1     -29.260  28.909   6.841  0.00  0.00    +0.341 C 
BRANCH  33  34
ATOM     34  O   UNL     1     -29.528  27.577   6.843  0.00  0.00    -0.479 OA
ATOM     35  H   UNL     1     -29.056  27.005   7.413  0.00  0.00    +0.295 HD
ENDBRANCH  33  34
ENDBRANCH  29  33
ENDBRANCH  28  29
ENDBRANCH  26  28
ENDBRANCH   6  26
TORSDOF 9
ENDMDL
MODEL 9
REMARK VINA RESULT:      -5.6      3.525      9.744
REMARK  Name = 193429
REMARK  9 active torsions:
REMARK  status: ('A' for Active; 'I' for Inactive)
REMARK    1  A    between atoms: C_6  and  C_26
REMARK    2  A    between atoms: C_7  and  O_20
REMARK    3  A    between atoms: C_11  and  O_22
REMARK    4  A    between atoms: C_19  and  O_24
REMARK    5  A    between atoms: C_26  and  C_28
REMARK    6  A    between atoms: C_28  and  C_29
REMARK    7  A    between atoms: C_29  and  O_30
REMARK    8  A    between atoms: C_29  and  C_33
REMARK    9  A    between atoms: C_33  and  O_34
REMARK                            x       y       z     vdW  Elec       q    Type
REMARK                         _______ _______ _______ _____ _____    ______ ____
ROOT
ATOM      1  C   UNL     1     -33.806  26.496   3.206  0.00  0.00    +0.025 C 
ATOM      2  C   UNL     1     -32.390  26.215   2.651  0.00  0.00    +0.005 C 
ATOM      3  C   UNL     1     -31.506  27.471   2.591  0.00  0.00    +0.027 C 
ATOM      4  C   UNL     1     -31.365  28.062   4.034  0.00  0.00    +0.005 C 
ATOM      5  C   UNL     1     -30.467  29.360   4.047  0.00  0.00    +0.000 C 
ATOM      6  C   UNL     1     -34.411  25.076   3.048  0.00  0.00    +0.002 C 
ATOM      7  C   UNL     1     -33.682  27.024   4.649  0.00  0.00    +0.110 C 
ATOM      8  C   UNL     1     -32.747  28.250   4.727  0.00  0.00    +0.029 C 
ATOM      9  C   UNL     1     -29.071  29.028   3.420  0.00  0.00    +0.005 C 
ATOM     10  C   UNL     1     -32.655  25.448   1.356  0.00  0.00    +0.000 C 
ATOM     11  C   UNL     1     -30.135  27.187   1.947  0.00  0.00    +0.110 C 
ATOM     12  C   UNL     1     -33.914  24.617   1.659  0.00  0.00    +0.000 C 
ATOM     13  C   UNL     1     -29.192  28.392   2.022  0.00  0.00    +0.029 C 
ATOM     14  C   UNL     1     -30.248  29.923   5.482  0.00  0.00    +0.002 C 
ATOM     15  C   UNL     1     -34.604  27.531   2.367  0.00  0.00    +0.002 C 
ATOM     16  C   UNL     1     -28.184  28.172   4.348  0.00  0.00    +0.029 C 
ATOM     17  C   UNL     1     -31.128  30.509   3.239  0.00  0.00    +0.000 C 
ATOM     18  C   UNL     1     -29.391  29.036   6.374  0.00  0.00    +0.029 C 
ATOM     19  C   UNL     1     -28.031  28.784   5.737  0.00  0.00    +0.111 C 
ENDROOT
BRANCH   7  20
ATOM     20  O   UNL     1     -33.215  26.019   5.550  0.00  0.00    -0.384 OA
ATOM     21  H   UNL     1     -33.782  25.234   5.481  0.00  0.00    +0.210 HD
ENDBRANCH   7  20
BRANCH  11  22
ATOM     22  O   UNL     1     -29.527  26.050   2.555  0.00  0.00    -0.384 OA
ATOM     23  H   UNL     1     -28.850  25.690   1.961  0.00  0.00    +0.210 HD
ENDBRANCH  11  22
BRANCH  19  24
ATOM     24  O   UNL     1     -27.296  27.897   6.573  0.00  0.00    -0.384 OA
ATOM     25  H   UNL     1     -26.367  27.883   6.291  0.00  0.00    +0.210 HD
ENDBRANCH  19  24
BRANCH   6  26
ATOM     26  C   UNL     1     -35.922  24.963   3.205  0.00  0.00    +0.003 C 
ATOM     27  C   UNL     1     -36.282  24.753   4.680  0.00  0.00    +0.000 C 
BRANCH  26  28
ATOM     28  C   UNL     1     -36.520  23.814   2.363  0.00  0.00    +0.041 C 
BRANCH  28  29
ATOM     29  C   UNL     1     -36.811  22.536   3.155  0.00  0.00    +0.209 C 
BRANCH  29  30
ATOM     30  O   UNL     1     -38.007  21.947   2.665  0.00  0.00    -0.374 OA
ATOM     31  H   UNL     1     -37.984  21.930   1.694  0.00  0.00    +0.211 HD
ENDBRANCH  29  30
BRANCH  29  33
ATOM     32  O   UNL     1     -35.060  21.362   1.941  0.00  0.00    -0.248 OA
ATOM     33  C   UNL     1     -35.693  21.527   2.975  0.00  0.00    +0.341 C 
BRANCH  33  34
ATOM     34  O   UNL     1     -35.476  20.796   4.100  0.00  0.00    -0.479 OA
ATOM     35  H   UNL     1     -35.403  21.223   4.929  0.00  0.00    +0.295 HD
ENDBRANCH  33  34
ENDBRANCH  29  33
ENDBRANCH  28  29
ENDBRANCH  26  28
ENDBRANCH   6  26
TORSDOF 9
ENDMDL
