MODEL 1
REMARK VINA RESULT:      -5.4      0.000      0.000
REMARK  Name = 60877
REMARK  3 active torsions:
REMARK  status: ('A' for Active; 'I' for Inactive)
REMARK    1  A    between atoms: N_3  and  C_14
REMARK    2  A    between atoms: C_16  and  C_17
REMARK    3  A    between atoms: C_17  and  O_18
REMARK                            x       y       z     vdW  Elec       q    Type
REMARK                         _______ _______ _______ _____ _____    ______ ____
ROOT
ATOM      1  F   UNL     1     -38.145  20.327   0.401  0.00  0.00    -0.199 F 
ATOM      2  O   UNL     1     -39.575  24.510   3.420  0.00  0.00    -0.193 OA
ATOM      3  N   UNL     1     -37.921  23.041   2.765  0.00  0.00    -0.177 N 
ATOM      4  N   UNL     1     -40.156  22.932   1.892  0.00  0.00    -0.304 NA
ATOM      5  N   UNL     1     -40.739  21.310   0.325  0.00  0.00    -0.330 N 
ATOM      6  C   UNL     1     -37.557  21.966   1.987  0.00  0.00    +0.113 C 
ATOM      7  C   UNL     1     -39.236  23.547   2.730  0.00  0.00    +0.276 C 
ATOM      8  C   UNL     1     -38.438  21.378   1.185  0.00  0.00    +0.200 C 
ATOM      9  C   UNL     1     -39.817  21.910   1.150  0.00  0.00    +0.220 C 
ATOM     10  H   UNL     1     -41.662  21.652   0.288  0.00  0.00    +0.145 HD
ATOM     11  H   UNL     1     -40.476  20.542  -0.231  0.00  0.00    +0.145 HD
ENDROOT
BRANCH   3  14
ATOM     12  S   UNL     1     -34.475  24.187   4.228  0.00  0.00    -0.105 S 
ATOM     13  O   UNL     1     -36.661  22.765   4.707  0.00  0.00    -0.325 OA
ATOM     14  C   UNL     1     -36.948  23.655   3.623  0.00  0.00    +0.218 C 
ATOM     15  C   UNL     1     -35.646  23.933   2.886  0.00  0.00    +0.112 C 
ATOM     16  C   UNL     1     -35.510  23.269   5.399  0.00  0.00    +0.194 C 
BRANCH  16  17
ATOM     17  C   UNL     1     -34.754  22.101   6.006  0.00  0.00    +0.178 C 
BRANCH  17  18
ATOM     18  O   UNL     1     -35.313  20.891   5.519  0.00  0.00    -0.379 OA
ATOM     19  H   UNL     1     -34.931  20.141   6.001  0.00  0.00    +0.211 HD
ENDBRANCH  17  18
ENDBRANCH  16  17
ENDBRANCH   3  14
TORSDOF 3
ENDMDL
MODEL 2
REMARK VINA RESULT:      -5.1      5.386      7.240
REMARK  Name = 60877
REMARK  3 active torsions:
REMARK  status: ('A' for Active; 'I' for Inactive)
REMARK    1  A    between atoms: N_3  and  C_14
REMARK    2  A    between atoms: C_16  and  C_17
REMARK    3  A    between atoms: C_17  and  O_18
REMARK                            x       y       z     vdW  Elec       q    Type
REMARK                         _______ _______ _______ _____ _____    ______ ____
ROOT
ATOM      1  F   UNL     1     -32.862  27.493   7.995  0.00  0.00    -0.199 F 
ATOM      2  O   UNL     1     -32.963  26.729   2.698  0.00  0.00    -0.193 OA
ATOM      3  N   UNL     1     -33.670  26.056   4.788  0.00  0.00    -0.177 N 
ATOM      4  N   UNL     1     -32.201  27.929   4.470  0.00  0.00    -0.304 NA
ATOM      5  N   UNL     1     -31.427  29.153   6.296  0.00  0.00    -0.330 N 
ATOM      6  C   UNL     1     -33.643  26.256   6.149  0.00  0.00    +0.113 C 
ATOM      7  C   UNL     1     -32.945  26.896   3.919  0.00  0.00    +0.276 C 
ATOM      8  C   UNL     1     -32.930  27.245   6.676  0.00  0.00    +0.200 C 
ATOM      9  C   UNL     1     -32.170  28.125   5.763  0.00  0.00    +0.220 C 
ATOM     10  H   UNL     1     -30.915  29.748   5.702  0.00  0.00    +0.145 HD
ATOM     11  H   UNL     1     -31.409  29.293   7.269  0.00  0.00    +0.145 HD
ENDROOT
BRANCH   3  14
ATOM     12  S   UNL     1     -36.702  23.697   4.030  0.00  0.00    -0.105 S 
ATOM     13  O   UNL     1     -34.264  23.819   5.066  0.00  0.00    -0.325 OA
ATOM     14  C   UNL     1     -34.448  24.978   4.247  0.00  0.00    +0.218 C 
ATOM     15  C   UNL     1     -35.933  25.311   4.232  0.00  0.00    +0.112 C 
ATOM     16  C   UNL     1     -35.240  22.842   4.675  0.00  0.00    +0.194 C 
BRANCH  16  17
ATOM     17  C   UNL     1     -35.586  21.988   5.880  0.00  0.00    +0.178 C 
BRANCH  17  18
ATOM     18  O   UNL     1     -35.218  20.644   5.611  0.00  0.00    -0.379 OA
ATOM     19  H   UNL     1     -35.130  20.159   6.446  0.00  0.00    +0.211 HD
ENDBRANCH  17  18
ENDBRANCH  16  17
ENDBRANCH   3  14
TORSDOF 3
ENDMDL
MODEL 3
REMARK VINA RESULT:      -5.1      4.691      5.669
REMARK  Name = 60877
REMARK  3 active torsions:
REMARK  status: ('A' for Active; 'I' for Inactive)
REMARK    1  A    between atoms: N_3  and  C_14
REMARK    2  A    between atoms: C_16  and  C_17
REMARK    3  A    between atoms: C_17  and  O_18
REMARK                            x       y       z     vdW  Elec       q    Type
REMARK                         _______ _______ _______ _____ _____    ______ ____
ROOT
ATOM      1  F   UNL     1     -34.505  22.942   5.750  0.00  0.00    -0.199 F 
ATOM      2  O   UNL     1     -35.940  26.891   2.433  0.00  0.00    -0.193 OA
ATOM      3  N   UNL     1     -34.436  26.086   3.987  0.00  0.00    -0.177 N 
ATOM      4  N   UNL     1     -36.373  24.839   3.308  0.00  0.00    -0.304 NA
ATOM      5  N   UNL     1     -36.805  22.736   4.211  0.00  0.00    -0.330 N 
ATOM      6  C   UNL     1     -34.070  25.069   4.838  0.00  0.00    +0.113 C 
ATOM      7  C   UNL     1     -35.602  25.988   3.201  0.00  0.00    +0.276 C 
ATOM      8  C   UNL     1     -34.808  23.969   4.940  0.00  0.00    +0.200 C 
ATOM      9  C   UNL     1     -36.031  23.868   4.114  0.00  0.00    +0.220 C 
ATOM     10  H   UNL     1     -37.623  22.651   3.668  0.00  0.00    +0.145 HD
ATOM     11  H   UNL     1     -36.541  22.010   4.820  0.00  0.00    +0.145 HD
ENDROOT
BRANCH   3  14
ATOM     12  S   UNL     1     -31.308  28.394   3.515  0.00  0.00    -0.105 S 
ATOM     13  O   UNL     1     -33.194  27.630   5.215  0.00  0.00    -0.325 OA
ATOM     14  C   UNL     1     -33.619  27.264   3.899  0.00  0.00    +0.218 C 
ATOM     15  C   UNL     1     -32.376  27.021   3.054  0.00  0.00    +0.112 C 
ATOM     16  C   UNL     1     -32.177  28.634   5.087  0.00  0.00    +0.194 C 
BRANCH  16  17
ATOM     17  C   UNL     1     -31.228  28.521   6.266  0.00  0.00    +0.178 C 
BRANCH  17  18
ATOM     18  O   UNL     1     -31.321  27.212   6.806  0.00  0.00    -0.379 OA
ATOM     19  H   UNL     1     -32.009  27.192   7.489  0.00  0.00    +0.211 HD
ENDBRANCH  17  18
ENDBRANCH  16  17
ENDBRANCH   3  14
TORSDOF 3
ENDMDL
MODEL 4
REMARK VINA RESULT:      -5.0      3.827      6.222
REMARK  Name = 60877
REMARK  3 active torsions:
REMARK  status: ('A' for Active; 'I' for Inactive)
REMARK    1  A    between atoms: N_3  and  C_14
REMARK    2  A    between atoms: C_16  and  C_17
REMARK    3  A    between atoms: C_17  and  O_18
REMARK                            x       y       z     vdW  Elec       q    Type
REMARK                         _______ _______ _______ _____ _____    ______ ____
ROOT
ATOM      1  F   UNL     1     -34.410  27.953   3.656  0.00  0.00    -0.199 F 
ATOM      2  O   UNL     1     -36.137  23.280   5.615  0.00  0.00    -0.193 OA
ATOM      3  N   UNL     1     -36.324  24.916   3.999  0.00  0.00    -0.177 N 
ATOM      4  N   UNL     1     -34.717  25.047   5.779  0.00  0.00    -0.304 NA
ATOM      5  N   UNL     1     -33.267  26.863   5.938  0.00  0.00    -0.330 N 
ATOM      6  C   UNL     1     -35.877  26.117   3.497  0.00  0.00    +0.113 C 
ATOM      7  C   UNL     1     -35.747  24.356   5.156  0.00  0.00    +0.276 C 
ATOM      8  C   UNL     1     -34.891  26.778   4.095  0.00  0.00    +0.200 C 
ATOM      9  C   UNL     1     -34.288  26.189   5.309  0.00  0.00    +0.220 C 
ATOM     10  H   UNL     1     -32.853  26.485   6.748  0.00  0.00    +0.145 HD
ATOM     11  H   UNL     1     -32.950  27.722   5.577  0.00  0.00    +0.145 HD
ENDROOT
BRANCH   3  14
ATOM     12  S   UNL     1     -38.909  23.869   1.251  0.00  0.00    -0.105 S 
ATOM     13  O   UNL     1     -38.635  24.826   3.708  0.00  0.00    -0.325 OA
ATOM     14  C   UNL     1     -37.391  24.225   3.333  0.00  0.00    +0.218 C 
ATOM     15  C   UNL     1     -37.262  24.319   1.820  0.00  0.00    +0.112 C 
ATOM     16  C   UNL     1     -39.655  24.307   2.843  0.00  0.00    +0.194 C 
BRANCH  16  17
ATOM     17  C   UNL     1     -40.736  25.359   2.676  0.00  0.00    +0.178 C 
BRANCH  17  18
ATOM     18  O   UNL     1     -40.357  26.524   3.392  0.00  0.00    -0.379 OA
ATOM     19  H   UNL     1     -39.391  26.552   3.476  0.00  0.00    +0.211 HD
ENDBRANCH  17  18
ENDBRANCH  16  17
ENDBRANCH   3  14
TORSDOF 3
ENDMDL
MODEL 5
REMARK VINA RESULT:      -5.0      3.535      5.683
REMARK  Name = 60877
REMARK  3 active torsions:
REMARK  status: ('A' for Active; 'I' for Inactive)
REMARK    1  A    between atoms: N_3  and  C_14
REMARK    2  A    between atoms: C_16  and  C_17
REMARK    3  A    between atoms: C_17  and  O_18
REMARK                            x       y       z     vdW  Elec       q    Type
REMARK                         _______ _______ _______ _____ _____    ______ ____
ROOT
ATOM      1  F   UNL     1     -33.628  26.436   3.085  0.00  0.00    -0.199 F 
ATOM      2  O   UNL     1     -36.015  22.582   5.933  0.00  0.00    -0.193 OA
ATOM      3  N   UNL     1     -35.375  23.379   3.864  0.00  0.00    -0.177 N 
ATOM      4  N   UNL     1     -34.926  24.576   5.897  0.00  0.00    -0.304 NA
ATOM      5  N   UNL     1     -33.808  26.619   5.848  0.00  0.00    -0.330 N 
ATOM      6  C   UNL     1     -34.760  24.371   3.135  0.00  0.00    +0.113 C 
ATOM      7  C   UNL     1     -35.468  23.465   5.268  0.00  0.00    +0.276 C 
ATOM      8  C   UNL     1     -34.241  25.434   3.738  0.00  0.00    +0.200 C 
ATOM      9  C   UNL     1     -34.340  25.523   5.211  0.00  0.00    +0.220 C 
ATOM     10  H   UNL     1     -33.865  26.694   6.828  0.00  0.00    +0.145 HD
ATOM     11  H   UNL     1     -33.369  27.327   5.324  0.00  0.00    +0.145 HD
ENDROOT
BRANCH   3  14
ATOM     12  S   UNL     1     -36.543  20.993   0.988  0.00  0.00    -0.105 S 
ATOM     13  O   UNL     1     -37.345  22.411   3.080  0.00  0.00    -0.325 OA
ATOM     14  C   UNL     1     -35.928  22.241   3.185  0.00  0.00    +0.218 C 
ATOM     15  C   UNL     1     -35.366  22.100   1.778  0.00  0.00    +0.112 C 
ATOM     16  C   UNL     1     -37.844  21.412   2.179  0.00  0.00    +0.194 C 
BRANCH  16  17
ATOM     17  C   UNL     1     -39.077  21.954   1.481  0.00  0.00    +0.178 C 
BRANCH  17  18
ATOM     18  O   UNL     1     -40.149  21.044   1.671  0.00  0.00    -0.379 OA
ATOM     19  H   UNL     1     -40.905  21.511   2.060  0.00  0.00    +0.211 HD
ENDBRANCH  17  18
ENDBRANCH  16  17
ENDBRANCH   3  14
TORSDOF 3
ENDMDL
MODEL 6
REMARK VINA RESULT:      -5.0      2.554      2.956
REMARK  Name = 60877
REMARK  3 active torsions:
REMARK  status: ('A' for Active; 'I' for Inactive)
REMARK    1  A    between atoms: N_3  and  C_14
REMARK    2  A    between atoms: C_16  and  C_17
REMARK    3  A    between atoms: C_17  and  O_18
REMARK                            x       y       z     vdW  Elec       q    Type
REMARK                         _______ _______ _______ _____ _____    ______ ____
ROOT
ATOM      1  F   UNL     1     -34.474  19.926   2.507  0.00  0.00    -0.199 F 
ATOM      2  O   UNL     1     -38.906  22.899   2.094  0.00  0.00    -0.193 OA
ATOM      3  N   UNL     1     -36.734  22.715   2.849  0.00  0.00    -0.177 N 
ATOM      4  N   UNL     1     -37.835  20.943   1.659  0.00  0.00    -0.304 NA
ATOM      5  N   UNL     1     -36.727  18.942   1.219  0.00  0.00    -0.330 N 
ATOM      6  C   UNL     1     -35.596  21.948   2.953  0.00  0.00    +0.113 C 
ATOM      7  C   UNL     1     -37.881  22.223   2.195  0.00  0.00    +0.276 C 
ATOM      8  C   UNL     1     -35.553  20.724   2.440  0.00  0.00    +0.200 C 
ATOM      9  C   UNL     1     -36.757  20.209   1.754  0.00  0.00    +0.220 C 
ATOM     10  H   UNL     1     -37.520  18.583   0.759  0.00  0.00    +0.145 HD
ATOM     11  H   UNL     1     -35.912  18.396   1.295  0.00  0.00    +0.145 HD
ENDROOT
BRANCH   3  14
ATOM     12  S   UNL     1     -35.843  26.469   3.513  0.00  0.00    -0.105 S 
ATOM     13  O   UNL     1     -35.929  24.046   4.585  0.00  0.00    -0.325 OA
ATOM     14  C   UNL     1     -36.752  24.034   3.415  0.00  0.00    +0.218 C 
ATOM     15  C   UNL     1     -36.201  25.068   2.443  0.00  0.00    +0.112 C 
ATOM     16  C   UNL     1     -35.744  25.413   4.982  0.00  0.00    +0.194 C 
BRANCH  16  17
ATOM     17  C   UNL     1     -34.397  25.545   5.668  0.00  0.00    +0.178 C 
BRANCH  17  18
ATOM     18  O   UNL     1     -33.375  25.229   4.737  0.00  0.00    -0.379 OA
ATOM     19  H   UNL     1     -33.596  25.611   3.873  0.00  0.00    +0.211 HD
ENDBRANCH  17  18
ENDBRANCH  16  17
ENDBRANCH   3  14
TORSDOF 3
ENDMDL
MODEL 7
REMARK VINA RESULT:      -5.0      3.597      5.780
REMARK  Name = 60877
REMARK  3 active torsions:
REMARK  status: ('A' for Active; 'I' for Inactive)
REMARK    1  A    between atoms: N_3  and  C_14
REMARK    2  A    between atoms: C_16  and  C_17
REMARK    3  A    between atoms: C_17  and  O_18
REMARK                            x       y       z     vdW  Elec       q    Type
REMARK                         _______ _______ _______ _____ _____    ______ ____
ROOT
ATOM      1  F   UNL     1     -35.793  25.773   5.840  0.00  0.00    -0.199 F 
ATOM      2  O   UNL     1     -37.809  22.187   2.414  0.00  0.00    -0.193 OA
ATOM      3  N   UNL     1     -37.816  24.351   3.215  0.00  0.00    -0.177 N 
ATOM      4  N   UNL     1     -36.357  22.659   4.096  0.00  0.00    -0.304 NA
ATOM      5  N   UNL     1     -34.873  23.155   5.822  0.00  0.00    -0.330 N 
ATOM      6  C   UNL     1     -37.295  25.270   4.096  0.00  0.00    +0.113 C 
ATOM      7  C   UNL     1     -37.352  23.020   3.199  0.00  0.00    +0.276 C 
ATOM      8  C   UNL     1     -36.343  24.924   4.955  0.00  0.00    +0.200 C 
ATOM      9  C   UNL     1     -35.858  23.527   4.937  0.00  0.00    +0.220 C 
ATOM     10  H   UNL     1     -34.537  22.229   5.823  0.00  0.00    +0.145 HD
ATOM     11  H   UNL     1     -34.502  23.814   6.451  0.00  0.00    +0.145 HD
ENDROOT
BRANCH   3  14
ATOM     12  S   UNL     1     -40.003  26.579   0.852  0.00  0.00    -0.105 S 
ATOM     13  O   UNL     1     -40.021  25.087   3.044  0.00  0.00    -0.325 OA
ATOM     14  C   UNL     1     -38.846  24.754   2.299  0.00  0.00    +0.218 C 
ATOM     15  C   UNL     1     -38.434  25.980   1.497  0.00  0.00    +0.112 C 
ATOM     16  C   UNL     1     -40.941  25.733   2.151  0.00  0.00    +0.194 C 
BRANCH  16  17
ATOM     17  C   UNL     1     -41.789  26.709   2.946  0.00  0.00    +0.178 C 
BRANCH  17  18
ATOM     18  O   UNL     1     -41.066  27.111   4.099  0.00  0.00    -0.379 OA
ATOM     19  H   UNL     1     -41.526  27.850   4.527  0.00  0.00    +0.211 HD
ENDBRANCH  17  18
ENDBRANCH  16  17
ENDBRANCH   3  14
TORSDOF 3
ENDMDL
MODEL 8
REMARK VINA RESULT:      -4.9      4.828      5.382
REMARK  Name = 60877
REMARK  3 active torsions:
REMARK  status: ('A' for Active; 'I' for Inactive)
REMARK    1  A    between atoms: N_3  and  C_14
REMARK    2  A    between atoms: C_16  and  C_17
REMARK    3  A    between atoms: C_17  and  O_18
REMARK                            x       y       z     vdW  Elec       q    Type
REMARK                         _______ _______ _______ _____ _____    ______ ____
ROOT
ATOM      1  F   UNL     1     -31.829  17.739   1.472  0.00  0.00    -0.199 F 
ATOM      2  O   UNL     1     -36.760  19.114  -0.096  0.00  0.00    -0.193 OA
ATOM      3  N   UNL     1     -34.922  19.576   1.221  0.00  0.00    -0.177 N 
ATOM      4  N   UNL     1     -35.006  17.677  -0.247  0.00  0.00    -0.304 NA
ATOM      5  N   UNL     1     -33.202  16.211  -0.394  0.00  0.00    -0.330 N 
ATOM      6  C   UNL     1     -33.654  19.221   1.621  0.00  0.00    +0.113 C 
ATOM      7  C   UNL     1     -35.624  18.806   0.273  0.00  0.00    +0.276 C 
ATOM      8  C   UNL     1     -33.063  18.140   1.123  0.00  0.00    +0.200 C 
ATOM      9  C   UNL     1     -33.802  17.333   0.129  0.00  0.00    +0.220 C 
ATOM     10  H   UNL     1     -33.679  15.662  -1.058  0.00  0.00    +0.145 HD
ATOM     11  H   UNL     1     -32.296  15.958  -0.106  0.00  0.00    +0.145 HD
ENDROOT
BRANCH   3  14
ATOM     12  S   UNL     1     -35.381  23.205   2.619  0.00  0.00    -0.105 S 
ATOM     13  O   UNL     1     -35.562  20.624   3.202  0.00  0.00    -0.325 OA
ATOM     14  C   UNL     1     -35.537  20.749   1.777  0.00  0.00    +0.218 C 
ATOM     15  C   UNL     1     -34.757  22.008   1.429  0.00  0.00    +0.112 C 
ATOM     16  C   UNL     1     -35.929  21.899   3.750  0.00  0.00    +0.194 C 
BRANCH  16  17
ATOM     17  C   UNL     1     -35.286  22.047   5.117  0.00  0.00    +0.178 C 
BRANCH  17  18
ATOM     18  O   UNL     1     -35.290  20.784   5.764  0.00  0.00    -0.379 OA
ATOM     19  H   UNL     1     -34.688  20.181   5.301  0.00  0.00    +0.211 HD
ENDBRANCH  17  18
ENDBRANCH  16  17
ENDBRANCH   3  14
TORSDOF 3
ENDMDL
MODEL 9
REMARK VINA RESULT:      -4.9      4.195      5.223
REMARK  Name = 60877
REMARK  3 active torsions:
REMARK  status: ('A' for Active; 'I' for Inactive)
REMARK    1  A    between atoms: N_3  and  C_14
REMARK    2  A    between atoms: C_16  and  C_17
REMARK    3  A    between atoms: C_17  and  O_18
REMARK                            x       y       z     vdW  Elec       q    Type
REMARK                         _______ _______ _______ _____ _____    ______ ____
ROOT
ATOM      1  F   UNL     1     -34.914  22.743   1.910  0.00  0.00    -0.199 F 
ATOM      2  O   UNL     1     -36.090  26.331   5.706  0.00  0.00    -0.193 OA
ATOM      3  N   UNL     1     -34.734  25.716   3.943  0.00  0.00    -0.177 N 
ATOM      4  N   UNL     1     -36.561  24.351   4.695  0.00  0.00    -0.304 NA
ATOM      5  N   UNL     1     -37.035  22.324   3.650  0.00  0.00    -0.330 N 
ATOM      6  C   UNL     1     -34.435  24.792   2.968  0.00  0.00    +0.113 C 
ATOM      7  C   UNL     1     -35.810  25.511   4.829  0.00  0.00    +0.276 C 
ATOM      8  C   UNL     1     -35.154  23.683   2.840  0.00  0.00    +0.200 C 
ATOM      9  C   UNL     1     -36.283  23.469   3.771  0.00  0.00    +0.220 C 
ATOM     10  H   UNL     1     -37.791  22.165   4.262  0.00  0.00    +0.145 HD
ATOM     11  H   UNL     1     -36.819  21.664   2.952  0.00  0.00    +0.145 HD
ENDROOT
BRANCH   3  14
ATOM     12  S   UNL     1     -32.927  29.064   3.018  0.00  0.00    -0.105 S 
ATOM     13  O   UNL     1     -32.566  26.567   3.832  0.00  0.00    -0.325 OA
ATOM     14  C   UNL     1     -33.938  26.906   4.059  0.00  0.00    +0.218 C 
ATOM     15  C   UNL     1     -34.340  27.951   3.028  0.00  0.00    +0.112 C 
ATOM     16  C   UNL     1     -31.827  27.789   3.688  0.00  0.00    +0.194 C 
BRANCH  16  17
ATOM     17  C   UNL     1     -30.646  27.540   2.769  0.00  0.00    +0.178 C 
BRANCH  17  18
ATOM     18  O   UNL     1     -30.537  26.146   2.529  0.00  0.00    -0.379 OA
ATOM     19  H   UNL     1     -30.580  25.668   3.372  0.00  0.00    +0.211 HD
ENDBRANCH  17  18
ENDBRANCH  16  17
ENDBRANCH   3  14
TORSDOF 3
ENDMDL
