MODEL 1
REMARK VINA RESULT:      -7.1      0.000      0.000
REMARK  Name = 5275227
REMARK  7 active torsions:
REMARK  status: ('A' for Active; 'I' for Inactive)
REMARK    1  A    between atoms: C_3  and  C_12
REMARK    2  A    between atoms: C_8  and  C_26
REMARK    3  A    between atoms: C_9  and  O_22
REMARK    4  A    between atoms: C_10  and  O_24
REMARK    5  A    between atoms: C_13  and  O_18
REMARK    6  A    between atoms: C_17  and  O_20
REMARK    7  A    between atoms: C_26  and  C_27
REMARK                            x       y       z     vdW  Elec       q    Type
REMARK                         _______ _______ _______ _____ _____    ______ ____
ROOT
ATOM      1  O   UNL     1     -36.138  21.907   2.487  0.00  0.00    -0.474 OA
ATOM      2  O   UNL     1     -40.022  22.461   1.286  0.00  0.00    -0.291 OA
ATOM      3  C   UNL     1     -36.708  23.225   2.428  0.00  0.00    +0.199 C 
ATOM      4  C   UNL     1     -38.212  23.183   2.686  0.00  0.00    +0.118 C 
ATOM      5  C   UNL     1     -36.735  21.028   1.620  0.00  0.00    +0.144 C 
ATOM      6  C   UNL     1     -38.047  21.173   1.158  0.00  0.00    +0.102 C 
ATOM      7  C   UNL     1     -38.864  22.300   1.654  0.00  0.00    +0.183 C 
ATOM      8  C   UNL     1     -35.976  19.927   1.221  0.00  0.00    +0.050 C 
ATOM      9  C   UNL     1     -38.590  20.239   0.273  0.00  0.00    +0.142 C 
ATOM     10  C   UNL     1     -36.518  18.993   0.337  0.00  0.00    +0.136 C 
ATOM     11  C   UNL     1     -37.819  19.151  -0.140  0.00  0.00    +0.073 C 
ENDROOT
BRANCH   3  12
ATOM     12  C   UNL     1     -36.002  24.097   3.444  0.00  0.00    +0.052 C 
ATOM     13  C   UNL     1     -35.799  23.649   4.750  0.00  0.00    +0.136 C 
ATOM     14  C   UNL     1     -35.552  25.362   3.064  0.00  0.00    +0.005 C 
ATOM     15  C   UNL     1     -35.146  24.465   5.675  0.00  0.00    +0.073 C 
ATOM     16  C   UNL     1     -34.900  26.178   3.988  0.00  0.00    +0.037 C 
ATOM     17  C   UNL     1     -34.697  25.730   5.293  0.00  0.00    +0.137 C 
BRANCH  13  18
ATOM     18  O   UNL     1     -36.232  22.417   5.139  0.00  0.00    -0.506 OA
ATOM     19  H   UNL     1     -36.642  22.306   5.974  0.00  0.00    +0.292 HD
ENDBRANCH  13  18
BRANCH  17  20
ATOM     20  O   UNL     1     -34.061  26.527   6.194  0.00  0.00    -0.505 OA
ATOM     21  H   UNL     1     -33.387  27.112   5.909  0.00  0.00    +0.292 HD
ENDBRANCH  17  20
ENDBRANCH   3  12
BRANCH   9  22
ATOM     22  O   UNL     1     -39.859  20.336  -0.212  0.00  0.00    -0.505 OA
ATOM     23  H   UNL     1     -40.404  21.056   0.043  0.00  0.00    +0.292 HD
ENDBRANCH   9  22
BRANCH  10  24
ATOM     24  O   UNL     1     -35.788  17.916  -0.072  0.00  0.00    -0.506 OA
ATOM     25  H   UNL     1     -34.854  17.977  -0.125  0.00  0.00    +0.292 HD
ENDBRANCH  10  24
BRANCH   8  26
ATOM     26  C   UNL     1     -34.580  19.747   1.725  0.00  0.00    +0.058 C 
BRANCH  26  27
ATOM     27  C   UNL     1     -33.547  20.360   0.814  0.00  0.00    -0.030 C 
ATOM     28  C   UNL     1     -32.361  19.844   0.439  0.00  0.00    -0.048 C 
ATOM     29  C   UNL     1     -31.374  20.512  -0.477  0.00  0.00    +0.026 C 
ATOM     30  C   UNL     1     -31.920  18.497   0.949  0.00  0.00    +0.026 C 
ENDBRANCH  26  27
ENDBRANCH   8  26
TORSDOF 7
ENDMDL
MODEL 2
REMARK VINA RESULT:      -6.8      1.820      6.010
REMARK  Name = 5275227
REMARK  7 active torsions:
REMARK  status: ('A' for Active; 'I' for Inactive)
REMARK    1  A    between atoms: C_3  and  C_12
REMARK    2  A    between atoms: C_8  and  C_26
REMARK    3  A    between atoms: C_9  and  O_22
REMARK    4  A    between atoms: C_10  and  O_24
REMARK    5  A    between atoms: C_13  and  O_18
REMARK    6  A    between atoms: C_17  and  O_20
REMARK    7  A    between atoms: C_26  and  C_27
REMARK                            x       y       z     vdW  Elec       q    Type
REMARK                         _______ _______ _______ _____ _____    ______ ____
ROOT
ATOM      1  O   UNL     1     -35.893  20.934   1.234  0.00  0.00    -0.474 OA
ATOM      2  O   UNL     1     -39.016  19.153  -0.742  0.00  0.00    -0.291 OA
ATOM      3  C   UNL     1     -35.828  19.550   0.854  0.00  0.00    +0.199 C 
ATOM      4  C   UNL     1     -36.644  19.291  -0.410  0.00  0.00    +0.118 C 
ATOM      5  C   UNL     1     -37.178  21.380   1.410  0.00  0.00    +0.144 C 
ATOM      6  C   UNL     1     -38.286  20.803   0.781  0.00  0.00    +0.102 C 
ATOM      7  C   UNL     1     -38.077  19.683  -0.160  0.00  0.00    +0.183 C 
ATOM      8  C   UNL     1     -37.350  22.486   2.242  0.00  0.00    +0.050 C 
ATOM      9  C   UNL     1     -39.568  21.307   1.009  0.00  0.00    +0.142 C 
ATOM     10  C   UNL     1     -38.630  22.993   2.470  0.00  0.00    +0.136 C 
ATOM     11  C   UNL     1     -39.737  22.402   1.859  0.00  0.00    +0.073 C 
ENDROOT
BRANCH   3  12
ATOM     12  C   UNL     1     -34.374  19.177   0.653  0.00  0.00    +0.052 C 
ATOM     13  C   UNL     1     -33.998  17.846   0.467  0.00  0.00    +0.136 C 
ATOM     14  C   UNL     1     -33.405  20.181   0.654  0.00  0.00    +0.005 C 
ATOM     15  C   UNL     1     -32.655  17.520   0.282  0.00  0.00    +0.073 C 
ATOM     16  C   UNL     1     -32.062  19.855   0.469  0.00  0.00    +0.037 C 
ATOM     17  C   UNL     1     -31.686  18.524   0.283  0.00  0.00    +0.137 C 
BRANCH  13  18
ATOM     18  O   UNL     1     -34.932  16.854   0.464  0.00  0.00    -0.506 OA
ATOM     19  H   UNL     1     -35.248  16.506   1.274  0.00  0.00    +0.292 HD
ENDBRANCH  13  18
BRANCH  17  20
ATOM     20  O   UNL     1     -30.376  18.206   0.104  0.00  0.00    -0.505 OA
ATOM     21  H   UNL     1     -29.790  18.201   0.837  0.00  0.00    +0.292 HD
ENDBRANCH  17  20
ENDBRANCH   3  12
BRANCH   9  22
ATOM     22  O   UNL     1     -40.681  20.779   0.428  0.00  0.00    -0.505 OA
ATOM     23  H   UNL     1     -40.773  19.849   0.351  0.00  0.00    +0.292 HD
ENDBRANCH   9  22
BRANCH  10  24
ATOM     24  O   UNL     1     -38.820  24.067   3.288  0.00  0.00    -0.506 OA
ATOM     25  H   UNL     1     -39.321  24.800   2.988  0.00  0.00    +0.292 HD
ENDBRANCH  10  24
BRANCH   8  26
ATOM     26  C   UNL     1     -36.172  23.128   2.902  0.00  0.00    +0.058 C 
BRANCH  26  27
ATOM     27  C   UNL     1     -35.745  22.412   4.158  0.00  0.00    -0.030 C 
ATOM     28  C   UNL     1     -35.569  22.929   5.389  0.00  0.00    -0.048 C 
ATOM     29  C   UNL     1     -35.140  22.154   6.603  0.00  0.00    +0.026 C 
ATOM     30  C   UNL     1     -35.794  24.397   5.638  0.00  0.00    +0.026 C 
ENDBRANCH  26  27
ENDBRANCH   8  26
TORSDOF 7
ENDMDL
MODEL 3
REMARK VINA RESULT:      -6.7      0.943      1.034
REMARK  Name = 5275227
REMARK  7 active torsions:
REMARK  status: ('A' for Active; 'I' for Inactive)
REMARK    1  A    between atoms: C_3  and  C_12
REMARK    2  A    between atoms: C_8  and  C_26
REMARK    3  A    between atoms: C_9  and  O_22
REMARK    4  A    between atoms: C_10  and  O_24
REMARK    5  A    between atoms: C_13  and  O_18
REMARK    6  A    between atoms: C_17  and  O_20
REMARK    7  A    between atoms: C_26  and  C_27
REMARK                            x       y       z     vdW  Elec       q    Type
REMARK                         _______ _______ _______ _____ _____    ______ ____
ROOT
ATOM      1  O   UNL     1     -36.269  22.661   2.818  0.00  0.00    -0.474 OA
ATOM      2  O   UNL     1     -39.980  23.902   1.587  0.00  0.00    -0.291 OA
ATOM      3  C   UNL     1     -36.570  24.059   2.689  0.00  0.00    +0.199 C 
ATOM      4  C   UNL     1     -38.050  24.327   2.947  0.00  0.00    +0.118 C 
ATOM      5  C   UNL     1     -37.034  21.872   1.999  0.00  0.00    +0.144 C 
ATOM      6  C   UNL     1     -38.297  22.247   1.529  0.00  0.00    +0.102 C 
ATOM      7  C   UNL     1     -38.873  23.536   1.964  0.00  0.00    +0.183 C 
ATOM      8  C   UNL     1     -36.510  20.624   1.660  0.00  0.00    +0.050 C 
ATOM      9  C   UNL     1     -39.021  21.393   0.694  0.00  0.00    +0.142 C 
ATOM     10  C   UNL     1     -37.232  19.769   0.826  0.00  0.00    +0.136 C 
ATOM     11  C   UNL     1     -38.482  20.155   0.340  0.00  0.00    +0.073 C 
ENDROOT
BRANCH   3  12
ATOM     12  C   UNL     1     -35.697  24.828   3.658  0.00  0.00    +0.052 C 
ATOM     13  C   UNL     1     -35.567  24.414   4.985  0.00  0.00    +0.136 C 
ATOM     14  C   UNL     1     -35.018  25.963   3.214  0.00  0.00    +0.005 C 
ATOM     15  C   UNL     1     -34.758  25.133   5.865  0.00  0.00    +0.073 C 
ATOM     16  C   UNL     1     -34.210  26.682   4.093  0.00  0.00    +0.037 C 
ATOM     17  C   UNL     1     -34.080  26.268   5.419  0.00  0.00    +0.137 C 
BRANCH  13  18
ATOM     18  O   UNL     1     -36.224  23.309   5.435  0.00  0.00    -0.506 OA
ATOM     19  H   UNL     1     -36.810  22.848   4.868  0.00  0.00    +0.292 HD
ENDBRANCH  13  18
BRANCH  17  20
ATOM     20  O   UNL     1     -33.292  26.971   6.277  0.00  0.00    -0.505 OA
ATOM     21  H   UNL     1     -32.556  26.556   6.684  0.00  0.00    +0.292 HD
ENDBRANCH  17  20
ENDBRANCH   3  12
BRANCH   9  22
ATOM     22  O   UNL     1     -40.251  21.712   0.204  0.00  0.00    -0.505 OA
ATOM     23  H   UNL     1     -40.766  22.373   0.624  0.00  0.00    +0.292 HD
ENDBRANCH   9  22
BRANCH  10  24
ATOM     24  O   UNL     1     -36.732  18.550   0.475  0.00  0.00    -0.506 OA
ATOM     25  H   UNL     1     -35.992  18.496  -0.098  0.00  0.00    +0.292 HD
ENDBRANCH  10  24
BRANCH   8  26
ATOM     26  C   UNL     1     -35.171  20.200   2.174  0.00  0.00    +0.058 C 
BRANCH  26  27
ATOM     27  C   UNL     1     -34.050  20.529   1.221  0.00  0.00    -0.030 C 
ATOM     28  C   UNL     1     -33.023  19.742   0.846  0.00  0.00    -0.048 C 
ATOM     29  C   UNL     1     -31.934  20.134  -0.113  0.00  0.00    +0.026 C 
ATOM     30  C   UNL     1     -32.890  18.347   1.399  0.00  0.00    +0.026 C 
ENDBRANCH  26  27
ENDBRANCH   8  26
TORSDOF 7
ENDMDL
MODEL 4
REMARK VINA RESULT:      -6.6      1.300      1.654
REMARK  Name = 5275227
REMARK  7 active torsions:
REMARK  status: ('A' for Active; 'I' for Inactive)
REMARK    1  A    between atoms: C_3  and  C_12
REMARK    2  A    between atoms: C_8  and  C_26
REMARK    3  A    between atoms: C_9  and  O_22
REMARK    4  A    between atoms: C_10  and  O_24
REMARK    5  A    between atoms: C_13  and  O_18
REMARK    6  A    between atoms: C_17  and  O_20
REMARK    7  A    between atoms: C_26  and  C_27
REMARK                            x       y       z     vdW  Elec       q    Type
REMARK                         _______ _______ _______ _____ _____    ______ ____
ROOT
ATOM      1  O   UNL     1     -35.262  20.761   2.033  0.00  0.00    -0.474 OA
ATOM      2  O   UNL     1     -39.094  20.619   0.576  0.00  0.00    -0.291 OA
ATOM      3  C   UNL     1     -36.063  21.951   1.957  0.00  0.00    +0.199 C 
ATOM      4  C   UNL     1     -37.546  21.622   2.110  0.00  0.00    +0.118 C 
ATOM      5  C   UNL     1     -35.626  19.813   1.112  0.00  0.00    +0.144 C 
ATOM      6  C   UNL     1     -36.909  19.725   0.563  0.00  0.00    +0.102 C 
ATOM      7  C   UNL     1     -37.953  20.665   1.020  0.00  0.00    +0.183 C 
ATOM      8  C   UNL     1     -34.650  18.884   0.748  0.00  0.00    +0.050 C 
ATOM      9  C   UNL     1     -37.209  18.734  -0.374  0.00  0.00    +0.142 C 
ATOM     10  C   UNL     1     -34.948  17.893  -0.188  0.00  0.00    +0.136 C 
ATOM     11  C   UNL     1     -36.222  17.820  -0.751  0.00  0.00    +0.073 C 
ENDROOT
BRANCH   3  12
ATOM     12  C   UNL     1     -35.601  22.908   3.036  0.00  0.00    +0.052 C 
ATOM     13  C   UNL     1     -35.405  22.467   4.345  0.00  0.00    +0.136 C 
ATOM     14  C   UNL     1     -35.371  24.245   2.709  0.00  0.00    +0.005 C 
ATOM     15  C   UNL     1     -34.978  23.362   5.326  0.00  0.00    +0.073 C 
ATOM     16  C   UNL     1     -34.945  25.140   3.689  0.00  0.00    +0.037 C 
ATOM     17  C   UNL     1     -34.748  24.699   4.999  0.00  0.00    +0.137 C 
BRANCH  13  18
ATOM     18  O   UNL     1     -35.625  21.166   4.681  0.00  0.00    -0.506 OA
ATOM     19  H   UNL     1     -36.132  20.957   5.441  0.00  0.00    +0.292 HD
ENDBRANCH  13  18
BRANCH  17  20
ATOM     20  O   UNL     1     -34.333  25.573   5.955  0.00  0.00    -0.505 OA
ATOM     21  H   UNL     1     -33.898  26.366   5.709  0.00  0.00    +0.292 HD
ENDBRANCH  17  20
ENDBRANCH   3  12
BRANCH   9  22
ATOM     22  O   UNL     1     -38.439  18.607  -0.944  0.00  0.00    -0.505 OA
ATOM     23  H   UNL     1     -39.026  17.938  -0.649  0.00  0.00    +0.292 HD
ENDBRANCH   9  22
BRANCH  10  24
ATOM     24  O   UNL     1     -34.004  16.983  -0.564  0.00  0.00    -0.506 OA
ATOM     25  H   UNL     1     -33.420  16.623   0.074  0.00  0.00    +0.292 HD
ENDBRANCH  10  24
BRANCH   8  26
ATOM     26  C   UNL     1     -33.280  18.952   1.344  0.00  0.00    +0.058 C 
BRANCH  26  27
ATOM     27  C   UNL     1     -32.328  19.787   0.526  0.00  0.00    -0.030 C 
ATOM     28  C   UNL     1     -31.082  19.470   0.124  0.00  0.00    -0.048 C 
ATOM     29  C   UNL     1     -30.183  20.353  -0.694  0.00  0.00    +0.026 C 
ATOM     30  C   UNL     1     -30.476  18.142   0.496  0.00  0.00    +0.026 C 
ENDBRANCH  26  27
ENDBRANCH   8  26
TORSDOF 7
ENDMDL
MODEL 5
REMARK VINA RESULT:      -6.4      3.994      7.767
REMARK  Name = 5275227
REMARK  7 active torsions:
REMARK  status: ('A' for Active; 'I' for Inactive)
REMARK    1  A    between atoms: C_3  and  C_12
REMARK    2  A    between atoms: C_8  and  C_26
REMARK    3  A    between atoms: C_9  and  O_22
REMARK    4  A    between atoms: C_10  and  O_24
REMARK    5  A    between atoms: C_13  and  O_18
REMARK    6  A    between atoms: C_17  and  O_20
REMARK    7  A    between atoms: C_26  and  C_27
REMARK                            x       y       z     vdW  Elec       q    Type
REMARK                         _______ _______ _______ _____ _____    ______ ____
ROOT
ATOM      1  O   UNL     1     -34.702  26.415   3.241  0.00  0.00    -0.474 OA
ATOM      2  O   UNL     1     -38.059  27.484   1.138  0.00  0.00    -0.291 OA
ATOM      3  C   UNL     1     -35.975  25.820   3.538  0.00  0.00    +0.199 C 
ATOM      4  C   UNL     1     -36.855  25.759   2.292  0.00  0.00    +0.118 C 
ATOM      5  C   UNL     1     -34.813  27.665   2.688  0.00  0.00    +0.144 C 
ATOM      6  C   UNL     1     -35.938  28.096   1.978  0.00  0.00    +0.102 C 
ATOM      7  C   UNL     1     -37.057  27.154   1.763  0.00  0.00    +0.183 C 
ATOM      8  C   UNL     1     -33.717  28.516   2.833  0.00  0.00    +0.050 C 
ATOM      9  C   UNL     1     -35.985  29.385   1.444  0.00  0.00    +0.142 C 
ATOM     10  C   UNL     1     -33.760  29.804   2.299  0.00  0.00    +0.136 C 
ATOM     11  C   UNL     1     -34.893  30.240   1.611  0.00  0.00    +0.073 C 
ENDROOT
BRANCH   3  12
ATOM     12  C   UNL     1     -35.735  24.437   4.107  0.00  0.00    +0.052 C 
ATOM     13  C   UNL     1     -35.050  24.270   5.311  0.00  0.00    +0.136 C 
ATOM     14  C   UNL     1     -36.208  23.322   3.414  0.00  0.00    +0.005 C 
ATOM     15  C   UNL     1     -34.839  22.989   5.822  0.00  0.00    +0.073 C 
ATOM     16  C   UNL     1     -35.997  22.042   3.924  0.00  0.00    +0.037 C 
ATOM     17  C   UNL     1     -35.312  21.875   5.128  0.00  0.00    +0.137 C 
BRANCH  13  18
ATOM     18  O   UNL     1     -34.581  25.347   6.000  0.00  0.00    -0.506 OA
ATOM     19  H   UNL     1     -34.288  25.247   6.884  0.00  0.00    +0.292 HD
ENDBRANCH  13  18
BRANCH  17  20
ATOM     20  O   UNL     1     -35.105  20.625   5.625  0.00  0.00    -0.505 OA
ATOM     21  H   UNL     1     -34.759  20.516   6.489  0.00  0.00    +0.292 HD
ENDBRANCH  17  20
ENDBRANCH   3  12
BRANCH   9  22
ATOM     22  O   UNL     1     -37.057  29.856   0.750  0.00  0.00    -0.505 OA
ATOM     23  H   UNL     1     -37.656  29.257   0.348  0.00  0.00    +0.292 HD
ENDBRANCH   9  22
BRANCH  10  24
ATOM     24  O   UNL     1     -32.703  30.654   2.440  0.00  0.00    -0.506 OA
ATOM     25  H   UNL     1     -32.675  31.450   1.948  0.00  0.00    +0.292 HD
ENDBRANCH  10  24
BRANCH   8  26
ATOM     26  C   UNL     1     -32.498  28.060   3.570  0.00  0.00    +0.058 C 
BRANCH  26  27
ATOM     27  C   UNL     1     -32.509  28.463   5.022  0.00  0.00    -0.030 C 
ATOM     28  C   UNL     1     -31.639  29.263   5.668  0.00  0.00    -0.048 C 
ATOM     29  C   UNL     1     -31.709  29.625   7.125  0.00  0.00    +0.026 C 
ATOM     30  C   UNL     1     -30.473  29.870   4.934  0.00  0.00    +0.026 C 
ENDBRANCH  26  27
ENDBRANCH   8  26
TORSDOF 7
ENDMDL
MODEL 6
REMARK VINA RESULT:      -6.4      3.650      7.543
REMARK  Name = 5275227
REMARK  7 active torsions:
REMARK  status: ('A' for Active; 'I' for Inactive)
REMARK    1  A    between atoms: C_3  and  C_12
REMARK    2  A    between atoms: C_8  and  C_26
REMARK    3  A    between atoms: C_9  and  O_22
REMARK    4  A    between atoms: C_10  and  O_24
REMARK    5  A    between atoms: C_13  and  O_18
REMARK    6  A    between atoms: C_17  and  O_20
REMARK    7  A    between atoms: C_26  and  C_27
REMARK                            x       y       z     vdW  Elec       q    Type
REMARK                         _______ _______ _______ _____ _____    ______ ____
ROOT
ATOM      1  O   UNL     1     -36.292  25.891   2.658  0.00  0.00    -0.474 OA
ATOM      2  O   UNL     1     -33.611  28.810   3.718  0.00  0.00    -0.291 OA
ATOM      3  C   UNL     1     -35.009  25.546   3.203  0.00  0.00    +0.199 C 
ATOM      4  C   UNL     1     -34.510  26.629   4.157  0.00  0.00    +0.118 C 
ATOM      5  C   UNL     1     -36.294  27.106   2.024  0.00  0.00    +0.144 C 
ATOM      6  C   UNL     1     -35.394  28.134   2.325  0.00  0.00    +0.102 C 
ATOM      7  C   UNL     1     -34.412  27.934   3.411  0.00  0.00    +0.183 C 
ATOM      8  C   UNL     1     -37.276  27.307   1.053  0.00  0.00    +0.050 C 
ATOM      9  C   UNL     1     -35.451  29.346   1.635  0.00  0.00    +0.142 C 
ATOM     10  C   UNL     1     -37.336  28.518   0.364  0.00  0.00    +0.136 C 
ATOM     11  C   UNL     1     -36.423  29.534   0.650  0.00  0.00    +0.073 C 
ENDROOT
BRANCH   3  12
ATOM     12  C   UNL     1     -35.131  24.211   3.908  0.00  0.00    +0.052 C 
ATOM     13  C   UNL     1     -35.378  23.043   3.185  0.00  0.00    +0.136 C 
ATOM     14  C   UNL     1     -34.993  24.156   5.295  0.00  0.00    +0.005 C 
ATOM     15  C   UNL     1     -35.487  21.821   3.849  0.00  0.00    +0.073 C 
ATOM     16  C   UNL     1     -35.102  22.935   5.959  0.00  0.00    +0.037 C 
ATOM     17  C   UNL     1     -35.349  21.767   5.237  0.00  0.00    +0.137 C 
BRANCH  13  18
ATOM     18  O   UNL     1     -35.516  23.079   1.830  0.00  0.00    -0.506 OA
ATOM     19  H   UNL     1     -36.369  23.030   1.444  0.00  0.00    +0.292 HD
ENDBRANCH  13  18
BRANCH  17  20
ATOM     20  O   UNL     1     -35.457  20.576   5.885  0.00  0.00    -0.505 OA
ATOM     21  H   UNL     1     -35.124  20.485   6.757  0.00  0.00    +0.292 HD
ENDBRANCH  17  20
ENDBRANCH   3  12
BRANCH   9  22
ATOM     22  O   UNL     1     -34.595  30.376   1.885  0.00  0.00    -0.505 OA
ATOM     23  H   UNL     1     -33.987  30.651   1.226  0.00  0.00    +0.292 HD
ENDBRANCH   9  22
BRANCH  10  24
ATOM     24  O   UNL     1     -38.282  28.729  -0.595  0.00  0.00    -0.506 OA
ATOM     25  H   UNL     1     -38.147  28.406  -1.464  0.00  0.00    +0.292 HD
ENDBRANCH  10  24
BRANCH   8  26
ATOM     26  C   UNL     1     -38.260  26.226   0.737  0.00  0.00    +0.058 C 
BRANCH  26  27
ATOM     27  C   UNL     1     -39.617  26.475   1.344  0.00  0.00    -0.030 C 
ATOM     28  C   UNL     1     -40.161  25.890   2.428  0.00  0.00    -0.048 C 
ATOM     29  C   UNL     1     -41.526  26.187   2.982  0.00  0.00    +0.026 C 
ATOM     30  C   UNL     1     -39.399  24.836   3.189  0.00  0.00    +0.026 C 
ENDBRANCH  26  27
ENDBRANCH   8  26
TORSDOF 7
ENDMDL
MODEL 7
REMARK VINA RESULT:      -6.3      1.991      5.857
REMARK  Name = 5275227
REMARK  7 active torsions:
REMARK  status: ('A' for Active; 'I' for Inactive)
REMARK    1  A    between atoms: C_3  and  C_12
REMARK    2  A    between atoms: C_8  and  C_26
REMARK    3  A    between atoms: C_9  and  O_22
REMARK    4  A    between atoms: C_10  and  O_24
REMARK    5  A    between atoms: C_13  and  O_18
REMARK    6  A    between atoms: C_17  and  O_20
REMARK    7  A    between atoms: C_26  and  C_27
REMARK                            x       y       z     vdW  Elec       q    Type
REMARK                         _______ _______ _______ _____ _____    ______ ____
ROOT
ATOM      1  O   UNL     1     -37.171  22.598   1.509  0.00  0.00    -0.474 OA
ATOM      2  O   UNL     1     -40.662  21.768  -0.479  0.00  0.00    -0.291 OA
ATOM      3  C   UNL     1     -37.486  21.255   1.109  0.00  0.00    +0.199 C 
ATOM      4  C   UNL     1     -38.343  21.247  -0.155  0.00  0.00    +0.118 C 
ATOM      5  C   UNL     1     -38.285  23.375   1.697  0.00  0.00    +0.144 C 
ATOM      6  C   UNL     1     -39.509  23.132   1.065  0.00  0.00    +0.102 C 
ATOM      7  C   UNL     1     -39.614  22.012   0.107  0.00  0.00    +0.183 C 
ATOM      8  C   UNL     1     -38.148  24.474   2.545  0.00  0.00    +0.050 C 
ATOM      9  C   UNL     1     -40.604  23.964   1.306  0.00  0.00    +0.142 C 
ATOM     10  C   UNL     1     -39.241  25.307   2.786  0.00  0.00    +0.136 C 
ATOM     11  C   UNL     1     -40.467  25.050   2.172  0.00  0.00    +0.073 C 
ENDROOT
BRANCH   3  12
ATOM     12  C   UNL     1     -36.190  20.501   0.897  0.00  0.00    +0.052 C 
ATOM     13  C   UNL     1     -35.363  20.185   1.975  0.00  0.00    +0.136 C 
ATOM     14  C   UNL     1     -35.825  20.122  -0.396  0.00  0.00    +0.005 C 
ATOM     15  C   UNL     1     -34.173  19.489   1.762  0.00  0.00    +0.073 C 
ATOM     16  C   UNL     1     -34.635  19.427  -0.609  0.00  0.00    +0.037 C 
ATOM     17  C   UNL     1     -33.808  19.111   0.470  0.00  0.00    +0.137 C 
BRANCH  13  18
ATOM     18  O   UNL     1     -35.705  20.548   3.243  0.00  0.00    -0.506 OA
ATOM     19  H   UNL     1     -36.351  20.059   3.713  0.00  0.00    +0.292 HD
ENDBRANCH  13  18
BRANCH  17  20
ATOM     20  O   UNL     1     -32.647  18.434   0.261  0.00  0.00    -0.505 OA
ATOM     21  H   UNL     1     -32.595  17.791  -0.419  0.00  0.00    +0.292 HD
ENDBRANCH  17  20
ENDBRANCH   3  12
BRANCH   9  22
ATOM     22  O   UNL     1     -41.818  23.769   0.721  0.00  0.00    -0.505 OA
ATOM     23  H   UNL     1     -42.599  23.810   1.238  0.00  0.00    +0.292 HD
ENDBRANCH   9  22
BRANCH  10  24
ATOM     24  O   UNL     1     -39.130  26.380   3.620  0.00  0.00    -0.506 OA
ATOM     25  H   UNL     1     -38.898  26.252   4.519  0.00  0.00    +0.292 HD
ENDBRANCH  10  24
BRANCH   8  26
ATOM     26  C   UNL     1     -36.839  24.759   3.210  0.00  0.00    +0.058 C 
BRANCH  26  27
ATOM     27  C   UNL     1     -36.540  23.810   4.342  0.00  0.00    -0.030 C 
ATOM     28  C   UNL     1     -35.376  23.642   4.999  0.00  0.00    -0.048 C 
ATOM     29  C   UNL     1     -35.146  22.673   6.124  0.00  0.00    +0.026 C 
ATOM     30  C   UNL     1     -34.163  24.450   4.619  0.00  0.00    +0.026 C 
ENDBRANCH  26  27
ENDBRANCH   8  26
TORSDOF 7
ENDMDL
MODEL 8
REMARK VINA RESULT:      -6.3      2.421      4.879
REMARK  Name = 5275227
REMARK  7 active torsions:
REMARK  status: ('A' for Active; 'I' for Inactive)
REMARK    1  A    between atoms: C_3  and  C_12
REMARK    2  A    between atoms: C_8  and  C_26
REMARK    3  A    between atoms: C_9  and  O_22
REMARK    4  A    between atoms: C_10  and  O_24
REMARK    5  A    between atoms: C_13  and  O_18
REMARK    6  A    between atoms: C_17  and  O_20
REMARK    7  A    between atoms: C_26  and  C_27
REMARK                            x       y       z     vdW  Elec       q    Type
REMARK                         _______ _______ _______ _____ _____    ______ ____
ROOT
ATOM      1  O   UNL     1     -37.781  23.547   2.389  0.00  0.00    -0.474 OA
ATOM      2  O   UNL     1     -36.347  19.861   1.300  0.00  0.00    -0.291 OA
ATOM      3  C   UNL     1     -36.849  22.844   3.227  0.00  0.00    +0.199 C 
ATOM      4  C   UNL     1     -35.929  21.953   2.396  0.00  0.00    +0.118 C 
ATOM      5  C   UNL     1     -38.529  22.709   1.604  0.00  0.00    +0.144 C 
ATOM      6  C   UNL     1     -38.106  21.434   1.216  0.00  0.00    +0.102 C 
ATOM      7  C   UNL     1     -36.766  20.966   1.625  0.00  0.00    +0.183 C 
ATOM      8  C   UNL     1     -39.760  23.196   1.162  0.00  0.00    +0.050 C 
ATOM      9  C   UNL     1     -38.924  20.632   0.416  0.00  0.00    +0.142 C 
ATOM     10  C   UNL     1     -40.578  22.397   0.362  0.00  0.00    +0.136 C 
ATOM     11  C   UNL     1     -40.163  21.117  -0.006  0.00  0.00    +0.073 C 
ENDROOT
BRANCH   3  12
ATOM     12  C   UNL     1     -36.055  23.862   4.019  0.00  0.00    +0.052 C 
ATOM     13  C   UNL     1     -36.688  24.953   4.617  0.00  0.00    +0.136 C 
ATOM     14  C   UNL     1     -34.675  23.701   4.148  0.00  0.00    +0.005 C 
ATOM     15  C   UNL     1     -35.942  25.881   5.344  0.00  0.00    +0.073 C 
ATOM     16  C   UNL     1     -33.929  24.629   4.874  0.00  0.00    +0.037 C 
ATOM     17  C   UNL     1     -34.562  25.719   5.472  0.00  0.00    +0.137 C 
BRANCH  13  18
ATOM     18  O   UNL     1     -38.034  25.125   4.500  0.00  0.00    -0.506 OA
ATOM     19  H   UNL     1     -38.562  24.451   4.119  0.00  0.00    +0.292 HD
ENDBRANCH  13  18
BRANCH  17  20
ATOM     20  O   UNL     1     -33.834  26.625   6.180  0.00  0.00    -0.505 OA
ATOM     21  H   UNL     1     -34.001  27.542   6.080  0.00  0.00    +0.292 HD
ENDBRANCH  17  20
ENDBRANCH   3  12
BRANCH   9  22
ATOM     22  O   UNL     1     -38.562  19.382   0.015  0.00  0.00    -0.505 OA
ATOM     23  H   UNL     1     -37.936  18.893   0.513  0.00  0.00    +0.292 HD
ENDBRANCH   9  22
BRANCH  10  24
ATOM     24  O   UNL     1     -41.788  22.852  -0.071  0.00  0.00    -0.506 OA
ATOM     25  H   UNL     1     -41.888  23.748  -0.324  0.00  0.00    +0.292 HD
ENDBRANCH  10  24
BRANCH   8  26
ATOM     26  C   UNL     1     -40.216  24.567   1.551  0.00  0.00    +0.058 C 
BRANCH  26  27
ATOM     27  C   UNL     1     -40.022  25.579   0.451  0.00  0.00    -0.030 C 
ATOM     28  C   UNL     1     -39.050  26.505   0.337  0.00  0.00    -0.048 C 
ATOM     29  C   UNL     1     -38.916  27.488  -0.791  0.00  0.00    +0.026 C 
ATOM     30  C   UNL     1     -37.985  26.625   1.395  0.00  0.00    +0.026 C 
ENDBRANCH  26  27
ENDBRANCH   8  26
TORSDOF 7
ENDMDL
MODEL 9
REMARK VINA RESULT:      -6.3      2.164      6.329
REMARK  Name = 5275227
REMARK  7 active torsions:
REMARK  status: ('A' for Active; 'I' for Inactive)
REMARK    1  A    between atoms: C_3  and  C_12
REMARK    2  A    between atoms: C_8  and  C_26
REMARK    3  A    between atoms: C_9  and  O_22
REMARK    4  A    between atoms: C_10  and  O_24
REMARK    5  A    between atoms: C_13  and  O_18
REMARK    6  A    between atoms: C_17  and  O_20
REMARK    7  A    between atoms: C_26  and  C_27
REMARK                            x       y       z     vdW  Elec       q    Type
REMARK                         _______ _______ _______ _____ _____    ______ ____
ROOT
ATOM      1  O   UNL     1     -37.401  22.116   1.156  0.00  0.00    -0.474 OA
ATOM      2  O   UNL     1     -41.306  22.414  -0.065  0.00  0.00    -0.291 OA
ATOM      3  C   UNL     1     -38.112  20.962   0.681  0.00  0.00    +0.199 C 
ATOM      4  C   UNL     1     -39.172  21.355  -0.345  0.00  0.00    +0.118 C 
ATOM      5  C   UNL     1     -38.228  23.073   1.685  0.00  0.00    +0.144 C 
ATOM      6  C   UNL     1     -39.573  23.212   1.326  0.00  0.00    +0.102 C 
ATOM      7  C   UNL     1     -40.137  22.322   0.290  0.00  0.00    +0.183 C 
ATOM      8  C   UNL     1     -37.661  23.955   2.604  0.00  0.00    +0.050 C 
ATOM      9  C   UNL     1     -40.359  24.209   1.908  0.00  0.00    +0.142 C 
ATOM     10  C   UNL     1     -38.444  24.952   3.187  0.00  0.00    +0.136 C 
ATOM     11  C   UNL     1     -39.791  25.076   2.843  0.00  0.00    +0.073 C 
ENDROOT
BRANCH   3  12
ATOM     12  C   UNL     1     -37.110  19.993   0.089  0.00  0.00    +0.052 C 
ATOM     13  C   UNL     1     -36.077  19.470   0.868  0.00  0.00    +0.136 C 
ATOM     14  C   UNL     1     -37.228  19.623  -1.251  0.00  0.00    +0.005 C 
ATOM     15  C   UNL     1     -35.163  18.577   0.307  0.00  0.00    +0.073 C 
ATOM     16  C   UNL     1     -36.315  18.731  -1.812  0.00  0.00    +0.037 C 
ATOM     17  C   UNL     1     -35.282  18.208  -1.033  0.00  0.00    +0.137 C 
BRANCH  13  18
ATOM     18  O   UNL     1     -35.947  19.821   2.178  0.00  0.00    -0.506 OA
ATOM     19  H   UNL     1     -36.315  19.279   2.848  0.00  0.00    +0.292 HD
ENDBRANCH  13  18
BRANCH  17  20
ATOM     20  O   UNL     1     -34.390  17.338  -1.581  0.00  0.00    -0.505 OA
ATOM     21  H   UNL     1     -33.835  16.825  -1.027  0.00  0.00    +0.292 HD
ENDBRANCH  17  20
ENDBRANCH   3  12
BRANCH   9  22
ATOM     22  O   UNL     1     -41.673  24.384   1.599  0.00  0.00    -0.505 OA
ATOM     23  H   UNL     1     -42.188  25.007   2.074  0.00  0.00    +0.292 HD
ENDBRANCH   9  22
BRANCH  10  24
ATOM     24  O   UNL     1     -37.910  25.818   4.095  0.00  0.00    -0.506 OA
ATOM     25  H   UNL     1     -37.835  26.728   3.886  0.00  0.00    +0.292 HD
ENDBRANCH  10  24
BRANCH   8  26
ATOM     26  C   UNL     1     -36.219  23.832   2.981  0.00  0.00    +0.058 C 
BRANCH  26  27
ATOM     27  C   UNL     1     -35.991  22.861   4.111  0.00  0.00    -0.030 C 
ATOM     28  C   UNL     1     -35.461  23.109   5.324  0.00  0.00    -0.048 C 
ATOM     29  C   UNL     1     -35.262  22.089   6.410  0.00  0.00    +0.026 C 
ATOM     30  C   UNL     1     -35.000  24.497   5.685  0.00  0.00    +0.026 C 
ENDBRANCH  26  27
ENDBRANCH   8  26
TORSDOF 7
ENDMDL
