MODEL 1
REMARK VINA RESULT:      -5.2      0.000      0.000
REMARK  Name = 5464827
REMARK  5 active torsions:
REMARK  status: ('A' for Active; 'I' for Inactive)
REMARK    1  A    between atoms: N_3  and  C_17
REMARK    2  A    between atoms: N_4  and  C_7
REMARK    3  A    between atoms: N_4  and  N_12
REMARK    4  A    between atoms: N_12  and  C_13
REMARK    5  A    between atoms: C_17  and  C_18
REMARK                            x       y       z     vdW  Elec       q    Type
REMARK                         _______ _______ _______ _____ _____    ______ ____
ROOT
ATOM      1  S   UNL     1     -36.174  19.296   0.047  0.00  0.00    -0.094 S 
ATOM      2  O   UNL     1     -33.738  16.327  -0.320  0.00  0.00    -0.274 OA
ATOM      3  N   UNL     1     -33.902  18.361   0.819  0.00  0.00    -0.253 N 
ATOM      4  C   UNL     1     -35.660  17.721  -0.694  0.00  0.00    +0.127 C 
ATOM      5  C   UNL     1     -34.331  17.371  -0.058  0.00  0.00    +0.237 C 
ATOM      6  C   UNL     1     -34.732  19.437   1.003  0.00  0.00    +0.218 C 
ATOM      7  C   UNL     1     -36.698  16.641  -0.440  0.00  0.00    +0.021 C 
ENDROOT
BRANCH   6   8
ATOM      8  N   UNL     1     -34.530  20.452   1.769  0.00  0.00    -0.098 NA
BRANCH   8   9
ATOM      9  N   UNL     1     -35.417  20.435   2.840  0.00  0.00    -0.098 NA
BRANCH   9  13
ATOM     10  S   UNL     1     -36.430  22.730   1.988  0.00  0.00    -0.092 S 
ATOM     11  O   UNL     1     -36.121  24.222   5.521  0.00  0.00    -0.274 OA
ATOM     12  N   UNL     1     -35.665  22.225   4.393  0.00  0.00    -0.255 N 
ATOM     13  C   UNL     1     -35.761  21.635   3.159  0.00  0.00    +0.218 C 
ATOM     14  C   UNL     1     -36.614  24.067   3.186  0.00  0.00    +0.146 C 
ATOM     15  C   UNL     1     -36.112  23.535   4.504  0.00  0.00    +0.238 C 
ATOM     16  C   UNL     1     -35.119  21.508   5.538  0.00  0.00    +0.117 C 
ENDBRANCH   9  13
ENDBRANCH   8   9
ENDBRANCH   6   8
BRANCH   3  17
ATOM     17  C   UNL     1     -32.631  18.234   1.519  0.00  0.00    +0.118 C 
BRANCH  17  18
ATOM     18  C   UNL     1     -31.505  18.628   0.606  0.00  0.00    -0.024 C 
ATOM     19  C   UNL     1     -30.461  17.588   0.319  0.00  0.00    +0.028 C 
ATOM     20  C   UNL     1     -31.453  19.846   0.043  0.00  0.00    -0.007 C 
ENDBRANCH  17  18
ENDBRANCH   3  17
TORSDOF 5
ENDMDL
MODEL 2
REMARK VINA RESULT:      -5.1      5.507      7.240
REMARK  Name = 5464827
REMARK  5 active torsions:
REMARK  status: ('A' for Active; 'I' for Inactive)
REMARK    1  A    between atoms: N_3  and  C_17
REMARK    2  A    between atoms: N_4  and  C_7
REMARK    3  A    between atoms: N_4  and  N_12
REMARK    4  A    between atoms: N_12  and  C_13
REMARK    5  A    between atoms: C_17  and  C_18
REMARK                            x       y       z     vdW  Elec       q    Type
REMARK                         _______ _______ _______ _____ _____    ______ ____
ROOT
ATOM      1  S   UNL     1     -36.326  26.432   2.495  0.00  0.00    -0.094 S 
ATOM      2  O   UNL     1     -33.316  24.990   4.432  0.00  0.00    -0.274 OA
ATOM      3  N   UNL     1     -35.651  24.893   4.447  0.00  0.00    -0.253 N 
ATOM      4  C   UNL     1     -34.549  26.305   2.841  0.00  0.00    +0.127 C 
ATOM      5  C   UNL     1     -34.412  25.327   3.989  0.00  0.00    +0.237 C 
ATOM      6  C   UNL     1     -36.760  25.359   3.790  0.00  0.00    +0.218 C 
ATOM      7  C   UNL     1     -33.793  25.827   1.613  0.00  0.00    +0.021 C 
ENDROOT
BRANCH   6   8
ATOM      8  N   UNL     1     -37.991  25.079   4.046  0.00  0.00    -0.098 NA
BRANCH   8   9
ATOM      9  N   UNL     1     -38.420  24.017   3.258  0.00  0.00    -0.098 NA
BRANCH   9  13
ATOM     10  S   UNL     1     -40.290  25.856   2.882  0.00  0.00    -0.092 S 
ATOM     11  O   UNL     1     -41.995  23.639   0.240  0.00  0.00    -0.274 OA
ATOM     12  N   UNL     1     -40.149  23.587   1.675  0.00  0.00    -0.255 N 
ATOM     13  C   UNL     1     -39.491  24.337   2.616  0.00  0.00    +0.218 C 
ATOM     14  C   UNL     1     -41.583  25.509   1.673  0.00  0.00    +0.146 C 
ATOM     15  C   UNL     1     -41.284  24.146   1.103  0.00  0.00    +0.238 C 
ATOM     16  C   UNL     1     -39.676  22.264   1.291  0.00  0.00    +0.117 C 
ENDBRANCH   9  13
ENDBRANCH   8   9
ENDBRANCH   6   8
BRANCH   3  17
ATOM     17  C   UNL     1     -35.746  23.965   5.567  0.00  0.00    +0.118 C 
BRANCH  17  18
ATOM     18  C   UNL     1     -35.408  22.576   5.105  0.00  0.00    -0.024 C 
ATOM     19  C   UNL     1     -34.861  21.628   6.134  0.00  0.00    +0.028 C 
ATOM     20  C   UNL     1     -35.617  22.188   3.837  0.00  0.00    -0.007 C 
ENDBRANCH  17  18
ENDBRANCH   3  17
TORSDOF 5
ENDMDL
MODEL 3
REMARK VINA RESULT:      -5.1      3.163      4.501
REMARK  Name = 5464827
REMARK  5 active torsions:
REMARK  status: ('A' for Active; 'I' for Inactive)
REMARK    1  A    between atoms: N_3  and  C_17
REMARK    2  A    between atoms: N_4  and  C_7
REMARK    3  A    between atoms: N_4  and  N_12
REMARK    4  A    between atoms: N_12  and  C_13
REMARK    5  A    between atoms: C_17  and  C_18
REMARK                            x       y       z     vdW  Elec       q    Type
REMARK                         _______ _______ _______ _____ _____    ______ ____
ROOT
ATOM      1  S   UNL     1     -38.827  23.143   1.703  0.00  0.00    -0.094 S 
ATOM      2  O   UNL     1     -37.657  19.860   0.048  0.00  0.00    -0.274 OA
ATOM      3  N   UNL     1     -37.145  21.202   1.891  0.00  0.00    -0.253 N 
ATOM      4  C   UNL     1     -38.879  21.905   0.377  0.00  0.00    +0.127 C 
ATOM      5  C   UNL     1     -37.837  20.864   0.734  0.00  0.00    +0.237 C 
ATOM      6  C   UNL     1     -37.524  22.353   2.534  0.00  0.00    +0.218 C 
ATOM      7  C   UNL     1     -40.263  21.288   0.269  0.00  0.00    +0.021 C 
ENDROOT
BRANCH   6   8
ATOM      8  N   UNL     1     -37.024  22.839   3.616  0.00  0.00    -0.098 NA
BRANCH   8   9
ATOM      9  N   UNL     1     -37.510  24.123   3.840  0.00  0.00    -0.098 NA
BRANCH   9  13
ATOM     10  S   UNL     1     -35.495  24.586   5.498  0.00  0.00    -0.092 S 
ATOM     11  O   UNL     1     -34.648  27.837   3.622  0.00  0.00    -0.274 OA
ATOM     12  N   UNL     1     -36.204  26.093   3.535  0.00  0.00    -0.255 N 
ATOM     13  C   UNL     1     -36.547  24.919   4.156  0.00  0.00    +0.218 C 
ATOM     14  C   UNL     1     -34.518  26.081   5.241  0.00  0.00    +0.146 C 
ATOM     15  C   UNL     1     -35.113  26.783   4.047  0.00  0.00    +0.238 C 
ATOM     16  C   UNL     1     -36.951  26.593   2.389  0.00  0.00    +0.117 C 
ENDBRANCH   9  13
ENDBRANCH   8   9
ENDBRANCH   6   8
BRANCH   3  17
ATOM     17  C   UNL     1     -36.079  20.347   2.396  0.00  0.00    +0.118 C 
BRANCH  17  18
ATOM     18  C   UNL     1     -34.827  20.569   1.595  0.00  0.00    -0.024 C 
ATOM     19  C   UNL     1     -33.965  19.368   1.328  0.00  0.00    +0.028 C 
ATOM     20  C   UNL     1     -34.511  21.780   1.110  0.00  0.00    -0.007 C 
ENDBRANCH  17  18
ENDBRANCH   3  17
TORSDOF 5
ENDMDL
MODEL 4
REMARK VINA RESULT:      -5.0      3.345      5.498
REMARK  Name = 5464827
REMARK  5 active torsions:
REMARK  status: ('A' for Active; 'I' for Inactive)
REMARK    1  A    between atoms: N_3  and  C_17
REMARK    2  A    between atoms: N_4  and  C_7
REMARK    3  A    between atoms: N_4  and  N_12
REMARK    4  A    between atoms: N_12  and  C_13
REMARK    5  A    between atoms: C_17  and  C_18
REMARK                            x       y       z     vdW  Elec       q    Type
REMARK                         _______ _______ _______ _____ _____    ______ ____
ROOT
ATOM      1  S   UNL     1     -34.451  22.998   0.574  0.00  0.00    -0.094 S 
ATOM      2  O   UNL     1     -35.399  20.250   3.112  0.00  0.00    -0.274 OA
ATOM      3  N   UNL     1     -35.593  22.563   2.842  0.00  0.00    -0.253 N 
ATOM      4  C   UNL     1     -34.438  21.282   1.164  0.00  0.00    +0.127 C 
ATOM      5  C   UNL     1     -35.193  21.282   2.478  0.00  0.00    +0.237 C 
ATOM      6  C   UNL     1     -35.297  23.582   1.973  0.00  0.00    +0.218 C 
ATOM      7  C   UNL     1     -35.091  20.358   0.151  0.00  0.00    +0.021 C 
ENDROOT
BRANCH   6   8
ATOM      8  N   UNL     1     -35.581  24.831   2.113  0.00  0.00    -0.098 NA
BRANCH   8   9
ATOM      9  N   UNL     1     -36.534  25.219   1.178  0.00  0.00    -0.098 NA
BRANCH   9  13
ATOM     10  S   UNL     1     -38.354  25.874   2.989  0.00  0.00    -0.092 S 
ATOM     11  O   UNL     1     -40.812  23.316   1.500  0.00  0.00    -0.274 OA
ATOM     12  N   UNL     1     -38.636  24.097   1.148  0.00  0.00    -0.255 N 
ATOM     13  C   UNL     1     -37.722  25.000   1.628  0.00  0.00    +0.218 C 
ATOM     14  C   UNL     1     -39.939  25.015   2.940  0.00  0.00    +0.146 C 
ATOM     15  C   UNL     1     -39.867  24.044   1.789  0.00  0.00    +0.238 C 
ATOM     16  C   UNL     1     -38.330  23.234   0.015  0.00  0.00    +0.117 C 
ENDBRANCH   9  13
ENDBRANCH   8   9
ENDBRANCH   6   8
BRANCH   3  17
ATOM     17  C   UNL     1     -36.313  22.791   4.088  0.00  0.00    +0.118 C 
BRANCH  17  18
ATOM     18  C   UNL     1     -35.335  22.973   5.214  0.00  0.00    -0.024 C 
ATOM     19  C   UNL     1     -34.810  24.360   5.446  0.00  0.00    +0.028 C 
ATOM     20  C   UNL     1     -34.973  21.946   6.000  0.00  0.00    -0.007 C 
ENDBRANCH  17  18
ENDBRANCH   3  17
TORSDOF 5
ENDMDL
MODEL 5
REMARK VINA RESULT:      -4.9      4.003      7.559
REMARK  Name = 5464827
REMARK  5 active torsions:
REMARK  status: ('A' for Active; 'I' for Inactive)
REMARK    1  A    between atoms: N_3  and  C_17
REMARK    2  A    between atoms: N_4  and  C_7
REMARK    3  A    between atoms: N_4  and  N_12
REMARK    4  A    between atoms: N_12  and  C_13
REMARK    5  A    between atoms: C_17  and  C_18
REMARK                            x       y       z     vdW  Elec       q    Type
REMARK                         _______ _______ _______ _____ _____    ______ ____
ROOT
ATOM      1  S   UNL     1     -37.130  25.726   1.538  0.00  0.00    -0.094 S 
ATOM      2  O   UNL     1     -34.728  27.880   3.654  0.00  0.00    -0.274 OA
ATOM      3  N   UNL     1     -36.253  26.131   3.926  0.00  0.00    -0.253 N 
ATOM      4  C   UNL     1     -35.946  27.087   1.739  0.00  0.00    +0.127 C 
ATOM      5  C   UNL     1     -35.558  27.094   3.203  0.00  0.00    +0.237 C 
ATOM      6  C   UNL     1     -37.113  25.323   3.227  0.00  0.00    +0.218 C 
ATOM      7  C   UNL     1     -34.734  26.884   0.846  0.00  0.00    +0.021 C 
ENDROOT
BRANCH   6   8
ATOM      8  N   UNL     1     -37.841  24.371   3.698  0.00  0.00    -0.098 NA
BRANCH   8   9
ATOM      9  N   UNL     1     -37.208  23.145   3.524  0.00  0.00    -0.098 NA
BRANCH   9  13
ATOM     10  S   UNL     1     -39.491  22.713   2.250  0.00  0.00    -0.092 S 
ATOM     11  O   UNL     1     -37.843  19.934   0.160  0.00  0.00    -0.274 OA
ATOM     12  N   UNL     1     -37.287  21.442   1.860  0.00  0.00    -0.255 N 
ATOM     13  C   UNL     1     -37.815  22.449   2.626  0.00  0.00    +0.218 C 
ATOM     14  C   UNL     1     -39.522  21.423   0.989  0.00  0.00    +0.146 C 
ATOM     15  C   UNL     1     -38.134  20.837   0.940  0.00  0.00    +0.238 C 
ATOM     16  C   UNL     1     -35.898  21.026   2.003  0.00  0.00    +0.117 C 
ENDBRANCH   9  13
ENDBRANCH   8   9
ENDBRANCH   6   8
BRANCH   3  17
ATOM     17  C   UNL     1     -36.047  25.986   5.361  0.00  0.00    +0.118 C 
BRANCH  17  18
ATOM     18  C   UNL     1     -34.695  25.386   5.623  0.00  0.00    -0.024 C 
ATOM     19  C   UNL     1     -33.687  26.250   6.324  0.00  0.00    +0.028 C 
ATOM     20  C   UNL     1     -34.412  24.120   5.276  0.00  0.00    -0.007 C 
ENDBRANCH  17  18
ENDBRANCH   3  17
TORSDOF 5
ENDMDL
MODEL 6
REMARK VINA RESULT:      -4.9      5.542      7.680
REMARK  Name = 5464827
REMARK  5 active torsions:
REMARK  status: ('A' for Active; 'I' for Inactive)
REMARK    1  A    between atoms: N_3  and  C_17
REMARK    2  A    between atoms: N_4  and  C_7
REMARK    3  A    between atoms: N_4  and  N_12
REMARK    4  A    between atoms: N_12  and  C_13
REMARK    5  A    between atoms: C_17  and  C_18
REMARK                            x       y       z     vdW  Elec       q    Type
REMARK                         _______ _______ _______ _____ _____    ______ ____
ROOT
ATOM      1  S   UNL     1     -35.764  26.310   1.868  0.00  0.00    -0.094 S 
ATOM      2  O   UNL     1     -38.379  24.090   3.634  0.00  0.00    -0.274 OA
ATOM      3  N   UNL     1     -36.221  24.914   3.984  0.00  0.00    -0.253 N 
ATOM      4  C   UNL     1     -37.356  25.441   1.929  0.00  0.00    +0.127 C 
ATOM      5  C   UNL     1     -37.399  24.735   3.269  0.00  0.00    +0.237 C 
ATOM      6  C   UNL     1     -35.256  25.706   3.415  0.00  0.00    +0.218 C 
ATOM      7  C   UNL     1     -38.510  26.418   1.780  0.00  0.00    +0.021 C 
ENDROOT
BRANCH   6   8
ATOM      8  N   UNL     1     -34.105  26.005   3.908  0.00  0.00    -0.098 NA
BRANCH   8   9
ATOM      9  N   UNL     1     -34.144  27.260   4.504  0.00  0.00    -0.098 NA
BRANCH   9  13
ATOM     10  S   UNL     1     -32.200  28.434   3.139  0.00  0.00    -0.092 S 
ATOM     11  O   UNL     1     -30.056  28.676   6.325  0.00  0.00    -0.274 OA
ATOM     12  N   UNL     1     -32.148  27.876   5.651  0.00  0.00    -0.255 N 
ATOM     13  C   UNL     1     -32.962  27.772   4.552  0.00  0.00    +0.218 C 
ATOM     14  C   UNL     1     -30.702  28.897   4.032  0.00  0.00    +0.146 C 
ATOM     15  C   UNL     1     -30.911  28.480   5.466  0.00  0.00    +0.238 C 
ATOM     16  C   UNL     1     -32.563  27.376   6.955  0.00  0.00    +0.117 C 
ENDBRANCH   9  13
ENDBRANCH   8   9
ENDBRANCH   6   8
BRANCH   3  17
ATOM     17  C   UNL     1     -36.043  24.296   5.291  0.00  0.00    +0.118 C 
BRANCH  17  18
ATOM     18  C   UNL     1     -35.560  22.883   5.124  0.00  0.00    -0.024 C 
ATOM     19  C   UNL     1     -35.189  22.135   6.372  0.00  0.00    +0.028 C 
ATOM     20  C   UNL     1     -35.495  22.303   3.915  0.00  0.00    -0.007 C 
ENDBRANCH  17  18
ENDBRANCH   3  17
TORSDOF 5
ENDMDL
MODEL 7
REMARK VINA RESULT:      -4.9      5.882      9.901
REMARK  Name = 5464827
REMARK  5 active torsions:
REMARK  status: ('A' for Active; 'I' for Inactive)
REMARK    1  A    between atoms: N_3  and  C_17
REMARK    2  A    between atoms: N_4  and  C_7
REMARK    3  A    between atoms: N_4  and  N_12
REMARK    4  A    between atoms: N_12  and  C_13
REMARK    5  A    between atoms: C_17  and  C_18
REMARK                            x       y       z     vdW  Elec       q    Type
REMARK                         _______ _______ _______ _____ _____    ______ ____
ROOT
ATOM      1  S   UNL     1     -34.662  29.712   2.664  0.00  0.00    -0.094 S 
ATOM      2  O   UNL     1     -31.614  31.345   4.377  0.00  0.00    -0.274 OA
ATOM      3  N   UNL     1     -32.564  29.231   4.079  0.00  0.00    -0.253 N 
ATOM      4  C   UNL     1     -33.680  31.155   3.161  0.00  0.00    +0.127 C 
ATOM      5  C   UNL     1     -32.498  30.612   3.938  0.00  0.00    +0.237 C 
ATOM      6  C   UNL     1     -33.618  28.590   3.480  0.00  0.00    +0.218 C 
ATOM      7  C   UNL     1     -33.227  31.944   1.945  0.00  0.00    +0.021 C 
ENDROOT
BRANCH   6   8
ATOM      8  N   UNL     1     -33.862  27.325   3.481  0.00  0.00    -0.098 NA
BRANCH   8   9
ATOM      9  N   UNL     1     -35.119  27.074   4.020  0.00  0.00    -0.098 NA
BRANCH   9  13
ATOM     10  S   UNL     1     -34.172  24.663   4.578  0.00  0.00    -0.092 S 
ATOM     11  O   UNL     1     -37.489  23.061   3.465  0.00  0.00    -0.274 OA
ATOM     12  N   UNL     1     -36.512  25.179   3.638  0.00  0.00    -0.255 N 
ATOM     13  C   UNL     1     -35.359  25.808   4.031  0.00  0.00    +0.218 C 
ATOM     14  C   UNL     1     -35.250  23.246   4.286  0.00  0.00    +0.146 C 
ATOM     15  C   UNL     1     -36.547  23.796   3.751  0.00  0.00    +0.238 C 
ATOM     16  C   UNL     1     -37.651  25.930   3.126  0.00  0.00    +0.117 C 
ENDBRANCH   9  13
ENDBRANCH   8   9
ENDBRANCH   6   8
BRANCH   3  17
ATOM     17  C   UNL     1     -31.537  28.509   4.818  0.00  0.00    +0.118 C 
BRANCH  17  18
ATOM     18  C   UNL     1     -31.926  28.411   6.266  0.00  0.00    -0.024 C 
ATOM     19  C   UNL     1     -31.579  29.577   7.147  0.00  0.00    +0.028 C 
ATOM     20  C   UNL     1     -32.584  27.343   6.744  0.00  0.00    -0.007 C 
ENDBRANCH  17  18
ENDBRANCH   3  17
TORSDOF 5
ENDMDL
MODEL 8
REMARK VINA RESULT:      -4.9      1.780      6.631
REMARK  Name = 5464827
REMARK  5 active torsions:
REMARK  status: ('A' for Active; 'I' for Inactive)
REMARK    1  A    between atoms: N_3  and  C_17
REMARK    2  A    between atoms: N_4  and  C_7
REMARK    3  A    between atoms: N_4  and  N_12
REMARK    4  A    between atoms: N_12  and  C_13
REMARK    5  A    between atoms: C_17  and  C_18
REMARK                            x       y       z     vdW  Elec       q    Type
REMARK                         _______ _______ _______ _____ _____    ______ ____
ROOT
ATOM      1  S   UNL     1     -37.718  20.949   1.512  0.00  0.00    -0.094 S 
ATOM      2  O   UNL     1     -37.838  24.191   3.601  0.00  0.00    -0.274 OA
ATOM      3  N   UNL     1     -36.292  22.586   2.899  0.00  0.00    -0.253 N 
ATOM      4  C   UNL     1     -38.606  22.325   2.293  0.00  0.00    +0.127 C 
ATOM      5  C   UNL     1     -37.557  23.153   3.007  0.00  0.00    +0.237 C 
ATOM      6  C   UNL     1     -36.181  21.438   2.156  0.00  0.00    +0.218 C 
ATOM      7  C   UNL     1     -39.348  23.148   1.254  0.00  0.00    +0.021 C 
ENDROOT
BRANCH   6   8
ATOM      8  N   UNL     1     -35.110  20.762   1.924  0.00  0.00    -0.098 NA
BRANCH   8   9
ATOM      9  N   UNL     1     -35.083  20.335   0.601  0.00  0.00    -0.098 NA
BRANCH   9  13
ATOM     10  S   UNL     1     -32.789  19.061   0.968  0.00  0.00    -0.092 S 
ATOM     11  O   UNL     1     -34.356  15.790  -0.318  0.00  0.00    -0.274 OA
ATOM     12  N   UNL     1     -34.955  18.022   0.044  0.00  0.00    -0.255 N 
ATOM     13  C   UNL     1     -34.456  19.214   0.503  0.00  0.00    +0.218 C 
ATOM     14  C   UNL     1     -32.721  17.308   0.546  0.00  0.00    +0.146 C 
ATOM     15  C   UNL     1     -34.091  16.934   0.041  0.00  0.00    +0.238 C 
ATOM     16  C   UNL     1     -36.331  17.902  -0.419  0.00  0.00    +0.117 C 
ENDBRANCH   9  13
ENDBRANCH   8   9
ENDBRANCH   6   8
BRANCH   3  17
ATOM     17  C   UNL     1     -35.140  23.210   3.536  0.00  0.00    +0.118 C 
BRANCH  17  18
ATOM     18  C   UNL     1     -35.220  23.023   5.025  0.00  0.00    -0.024 C 
ATOM     19  C   UNL     1     -35.172  21.613   5.541  0.00  0.00    +0.028 C 
ATOM     20  C   UNL     1     -35.297  24.072   5.860  0.00  0.00    -0.007 C 
ENDBRANCH  17  18
ENDBRANCH   3  17
TORSDOF 5
ENDMDL
MODEL 9
REMARK VINA RESULT:      -4.9      6.089      8.176
REMARK  Name = 5464827
REMARK  5 active torsions:
REMARK  status: ('A' for Active; 'I' for Inactive)
REMARK    1  A    between atoms: N_3  and  C_17
REMARK    2  A    between atoms: N_4  and  C_7
REMARK    3  A    between atoms: N_4  and  N_12
REMARK    4  A    between atoms: N_12  and  C_13
REMARK    5  A    between atoms: C_17  and  C_18
REMARK                            x       y       z     vdW  Elec       q    Type
REMARK                         _______ _______ _______ _____ _____    ______ ____
ROOT
ATOM      1  S   UNL     1     -34.387  25.162   5.484  0.00  0.00    -0.094 S 
ATOM      2  O   UNL     1     -37.198  23.120   3.805  0.00  0.00    -0.274 OA
ATOM      3  N   UNL     1     -35.766  24.904   3.324  0.00  0.00    -0.253 N 
ATOM      4  C   UNL     1     -35.679  23.887   5.503  0.00  0.00    +0.127 C 
ATOM      5  C   UNL     1     -36.310  23.907   4.126  0.00  0.00    +0.237 C 
ATOM      6  C   UNL     1     -34.752  25.656   3.860  0.00  0.00    +0.218 C 
ATOM      7  C   UNL     1     -35.088  22.525   5.821  0.00  0.00    +0.021 C 
ENDROOT
BRANCH   6   8
ATOM      8  N   UNL     1     -34.111  26.616   3.290  0.00  0.00    -0.098 NA
BRANCH   8   9
ATOM      9  N   UNL     1     -32.890  26.826   3.922  0.00  0.00    -0.098 NA
BRANCH   9  13
ATOM     10  S   UNL     1     -32.808  29.157   2.664  0.00  0.00    -0.092 S 
ATOM     11  O   UNL     1     -31.712  30.912   5.908  0.00  0.00    -0.274 OA
ATOM     12  N   UNL     1     -32.245  28.766   5.145  0.00  0.00    -0.255 N 
ATOM     13  C   UNL     1     -32.648  28.087   4.024  0.00  0.00    +0.218 C 
ATOM     14  C   UNL     1     -32.324  30.611   3.616  0.00  0.00    +0.146 C 
ATOM     15  C   UNL     1     -32.055  30.136   5.021  0.00  0.00    +0.238 C 
ATOM     16  C   UNL     1     -32.027  28.080   6.412  0.00  0.00    +0.117 C 
ENDBRANCH   9  13
ENDBRANCH   8   9
ENDBRANCH   6   8
BRANCH   3  17
ATOM     17  C   UNL     1     -36.251  25.113   1.966  0.00  0.00    +0.118 C 
BRANCH  17  18
ATOM     18  C   UNL     1     -37.265  26.222   1.954  0.00  0.00    -0.024 C 
ATOM     19  C   UNL     1     -36.854  27.516   1.313  0.00  0.00    +0.028 C 
ATOM     20  C   UNL     1     -38.496  26.051   2.462  0.00  0.00    -0.007 C 
ENDBRANCH  17  18
ENDBRANCH   3  17
TORSDOF 5
ENDMDL
