MODEL 1
REMARK VINA RESULT:      -6.0      0.000      0.000
REMARK  Name = 53487799
REMARK  7 active torsions:
REMARK  status: ('A' for Active; 'I' for Inactive)
REMARK    1  A    between atoms: C_3  and  C_14
REMARK    2  A    between atoms: C_11  and  O_12
REMARK    3  A    between atoms: C_14  and  C_15
REMARK    4  A    between atoms: C_15  and  CA_16
REMARK    5  A    between atoms: CA_16  and  N_17
REMARK    6  A    between atoms: CA_16  and  C_22
REMARK    7  A    between atoms: C_22  and  O_23
REMARK                            x       y       z     vdW  Elec       q    Type
REMARK                         _______ _______ _______ _____ _____    ______ ____
ROOT
ATOM      1  O   UNL     1     -38.158  23.898   2.602  0.00  0.00    -0.421 OA
ATOM      2  O   UNL     1     -38.860  26.016   3.104  0.00  0.00    -0.244 OA
ATOM      3  C   UNL     1     -36.049  24.264   4.450  0.00  0.00    -0.013 C 
ATOM      4  C   UNL     1     -36.179  22.999   3.716  0.00  0.00    +0.031 C 
ATOM      5  C   UNL     1     -37.234  22.857   2.811  0.00  0.00    +0.151 C 
ATOM      6  C   UNL     1     -36.944  25.239   4.229  0.00  0.00    +0.078 C 
ATOM      7  C   UNL     1     -35.302  21.917   3.868  0.00  0.00    +0.006 C 
ATOM      8  C   UNL     1     -37.430  21.688   2.073  0.00  0.00    +0.074 C 
ATOM      9  C   UNL     1     -38.061  25.103   3.279  0.00  0.00    +0.346 C 
ATOM     10  C   UNL     1     -35.487  20.738   3.134  0.00  0.00    +0.037 C 
ATOM     11  C   UNL     1     -36.548  20.624   2.239  0.00  0.00    +0.137 C 
ENDROOT
BRANCH  11  12
ATOM     12  O   UNL     1     -36.722  19.476   1.530  0.00  0.00    -0.505 OA
ATOM     13  H   UNL     1     -37.470  18.935   1.689  0.00  0.00    +0.292 HD
ENDBRANCH  11  12
BRANCH   3  14
ATOM     14  C   UNL     1     -34.926  24.450   5.428  0.00  0.00    +0.025 C 
BRANCH  14  15
ATOM     15  C   UNL     1     -34.697  25.912   5.812  0.00  0.00    -0.006 C 
BRANCH  15  16
ATOM     16  CA  UNL     1     -33.576  26.630   5.044  0.00  0.00    +0.036 C 
BRANCH  16  17
ATOM     17  N   UNL     1     -34.114  27.526   4.020  0.00  0.00    +0.389 N 
ATOM     18  H1  UNL     1     -34.528  28.344   4.467  0.00  0.00    -0.088 HD
ATOM     19  H2  UNL     1     -34.827  27.035   3.480  0.00  0.00    -0.088 HD
ATOM     20  H3  UNL     1     -33.361  27.823   3.398  0.00  0.00    -0.088 HD
ENDBRANCH  16  17
BRANCH  16  22
ATOM     21  OXT UNL     1     -32.465  28.653   5.846  0.00  0.00    -0.253 OA
ATOM     22  C   UNL     1     -32.758  27.475   6.006  0.00  0.00    +0.293 C 
BRANCH  22  23
ATOM     23  O   UNL     1     -32.380  26.768   7.104  0.00  0.00    -0.482 OA
ATOM     24  H   UNL     1     -31.473  26.588   7.256  0.00  0.00    +0.295 HD
ENDBRANCH  22  23
ENDBRANCH  16  22
ENDBRANCH  15  16
ENDBRANCH  14  15
ENDBRANCH   3  14
TORSDOF 7
ENDMDL
MODEL 2
REMARK VINA RESULT:      -5.9      4.444      6.169
REMARK  Name = 53487799
REMARK  7 active torsions:
REMARK  status: ('A' for Active; 'I' for Inactive)
REMARK    1  A    between atoms: C_3  and  C_14
REMARK    2  A    between atoms: C_11  and  O_12
REMARK    3  A    between atoms: C_14  and  C_15
REMARK    4  A    between atoms: C_15  and  CA_16
REMARK    5  A    between atoms: CA_16  and  N_17
REMARK    6  A    between atoms: CA_16  and  C_22
REMARK    7  A    between atoms: C_22  and  O_23
REMARK                            x       y       z     vdW  Elec       q    Type
REMARK                         _______ _______ _______ _____ _____    ______ ____
ROOT
ATOM      1  O   UNL     1     -31.767  21.596  -0.453  0.00  0.00    -0.421 OA
ATOM      2  O   UNL     1     -32.535  23.701  -0.909  0.00  0.00    -0.244 OA
ATOM      3  C   UNL     1     -34.215  21.095   0.872  0.00  0.00    -0.013 C 
ATOM      4  C   UNL     1     -33.185  20.050   0.798  0.00  0.00    +0.031 C 
ATOM      5  C   UNL     1     -31.990  20.336   0.136  0.00  0.00    +0.151 C 
ATOM      6  C   UNL     1     -33.974  22.286   0.302  0.00  0.00    +0.078 C 
ATOM      7  C   UNL     1     -33.330  18.774   1.358  0.00  0.00    +0.006 C 
ATOM      8  C   UNL     1     -30.960  19.401   0.020  0.00  0.00    +0.074 C 
ATOM      9  C   UNL     1     -32.719  22.601  -0.399  0.00  0.00    +0.346 C 
ATOM     10  C   UNL     1     -32.306  17.826   1.249  0.00  0.00    +0.037 C 
ATOM     11  C   UNL     1     -31.124  18.138   0.582  0.00  0.00    +0.137 C 
ENDROOT
BRANCH  11  12
ATOM     12  O   UNL     1     -30.133  17.212   0.480  0.00  0.00    -0.505 OA
ATOM     13  H   UNL     1     -29.247  17.486   0.339  0.00  0.00    +0.292 HD
ENDBRANCH  11  12
BRANCH   3  14
ATOM     14  C   UNL     1     -35.511  20.821   1.578  0.00  0.00    +0.025 C 
BRANCH  14  15
ATOM     15  C   UNL     1     -35.382  20.841   3.101  0.00  0.00    -0.006 C 
BRANCH  15  16
ATOM     16  CA  UNL     1     -35.735  22.176   3.777  0.00  0.00    +0.036 C 
BRANCH  16  17
ATOM     17  N   UNL     1     -37.115  22.573   3.497  0.00  0.00    +0.389 N 
ATOM     18  H1  UNL     1     -37.481  22.011   2.729  0.00  0.00    -0.088 HD
ATOM     19  H2  UNL     1     -37.138  23.559   3.239  0.00  0.00    -0.088 HD
ATOM     20  H3  UNL     1     -37.686  22.426   4.329  0.00  0.00    -0.088 HD
ENDBRANCH  16  17
BRANCH  16  22
ATOM     21  OXT UNL     1     -35.816  22.921   6.103  0.00  0.00    -0.253 OA
ATOM     22  C   UNL     1     -35.597  22.037   5.284  0.00  0.00    +0.293 C 
BRANCH  22  23
ATOM     23  O   UNL     1     -35.203  20.786   5.643  0.00  0.00    -0.482 OA
ATOM     24  H   UNL     1     -35.529  20.041   5.178  0.00  0.00    +0.295 HD
ENDBRANCH  22  23
ENDBRANCH  16  22
ENDBRANCH  15  16
ENDBRANCH  14  15
ENDBRANCH   3  14
TORSDOF 7
ENDMDL
MODEL 3
REMARK VINA RESULT:      -5.9      1.627      3.122
REMARK  Name = 53487799
REMARK  7 active torsions:
REMARK  status: ('A' for Active; 'I' for Inactive)
REMARK    1  A    between atoms: C_3  and  C_14
REMARK    2  A    between atoms: C_11  and  O_12
REMARK    3  A    between atoms: C_14  and  C_15
REMARK    4  A    between atoms: C_15  and  CA_16
REMARK    5  A    between atoms: CA_16  and  N_17
REMARK    6  A    between atoms: CA_16  and  C_22
REMARK    7  A    between atoms: C_22  and  O_23
REMARK                            x       y       z     vdW  Elec       q    Type
REMARK                         _______ _______ _______ _____ _____    ______ ____
ROOT
ATOM      1  O   UNL     1     -36.413  22.098   3.811  0.00  0.00    -0.421 OA
ATOM      2  O   UNL     1     -35.009  21.089   5.307  0.00  0.00    -0.244 OA
ATOM      3  C   UNL     1     -35.820  24.563   5.066  0.00  0.00    -0.013 C 
ATOM      4  C   UNL     1     -36.746  24.515   3.927  0.00  0.00    +0.031 C 
ATOM      5  C   UNL     1     -37.014  23.280   3.334  0.00  0.00    +0.151 C 
ATOM      6  C   UNL     1     -35.264  23.421   5.499  0.00  0.00    +0.078 C 
ATOM      7  C   UNL     1     -37.383  25.644   3.394  0.00  0.00    +0.006 C 
ATOM      8  C   UNL     1     -37.880  23.146   2.248  0.00  0.00    +0.074 C 
ATOM      9  C   UNL     1     -35.537  22.112   4.884  0.00  0.00    +0.346 C 
ATOM     10  C   UNL     1     -38.255  25.525   2.305  0.00  0.00    +0.037 C 
ATOM     11  C   UNL     1     -38.503  24.279   1.733  0.00  0.00    +0.137 C 
ENDROOT
BRANCH  11  12
ATOM     12  O   UNL     1     -39.351  24.171   0.674  0.00  0.00    -0.505 OA
ATOM     13  H   UNL     1     -39.318  23.414   0.123  0.00  0.00    +0.292 HD
ENDBRANCH  11  12
BRANCH   3  14
ATOM     14  C   UNL     1     -35.513  25.875   5.727  0.00  0.00    +0.025 C 
BRANCH  14  15
ATOM     15  C   UNL     1     -34.024  26.069   6.016  0.00  0.00    -0.006 C 
BRANCH  15  16
ATOM     16  CA  UNL     1     -33.272  26.976   5.029  0.00  0.00    +0.036 C 
BRANCH  16  17
ATOM     17  N   UNL     1     -34.195  27.776   4.222  0.00  0.00    +0.389 N 
ATOM     18  H1  UNL     1     -34.466  28.610   4.742  0.00  0.00    -0.088 HD
ATOM     19  H2  UNL     1     -35.025  27.222   4.009  0.00  0.00    -0.088 HD
ATOM     20  H3  UNL     1     -33.737  28.050   3.353  0.00  0.00    -0.088 HD
ENDBRANCH  16  17
BRANCH  16  22
ATOM     21  OXT UNL     1     -32.317  29.150   5.609  0.00  0.00    -0.253 OA
ATOM     22  C   UNL     1     -32.385  27.942   5.797  0.00  0.00    +0.293 C 
BRANCH  22  23
ATOM     23  O   UNL     1     -31.656  27.307   6.754  0.00  0.00    -0.482 OA
ATOM     24  H   UNL     1     -31.658  27.628   7.634  0.00  0.00    +0.295 HD
ENDBRANCH  22  23
ENDBRANCH  16  22
ENDBRANCH  15  16
ENDBRANCH  14  15
ENDBRANCH   3  14
TORSDOF 7
ENDMDL
MODEL 4
REMARK VINA RESULT:      -5.8      2.879      6.499
REMARK  Name = 53487799
REMARK  7 active torsions:
REMARK  status: ('A' for Active; 'I' for Inactive)
REMARK    1  A    between atoms: C_3  and  C_14
REMARK    2  A    between atoms: C_11  and  O_12
REMARK    3  A    between atoms: C_14  and  C_15
REMARK    4  A    between atoms: C_15  and  CA_16
REMARK    5  A    between atoms: CA_16  and  N_17
REMARK    6  A    between atoms: CA_16  and  C_22
REMARK    7  A    between atoms: C_22  and  O_23
REMARK                            x       y       z     vdW  Elec       q    Type
REMARK                         _______ _______ _______ _____ _____    ______ ____
ROOT
ATOM      1  O   UNL     1     -35.063  23.886   5.964  0.00  0.00    -0.421 OA
ATOM      2  O   UNL     1     -35.956  21.929   6.740  0.00  0.00    -0.244 OA
ATOM      3  C   UNL     1     -35.319  22.849   3.345  0.00  0.00    -0.013 C 
ATOM      4  C   UNL     1     -34.759  24.190   3.559  0.00  0.00    +0.031 C 
ATOM      5  C   UNL     1     -34.649  24.667   4.867  0.00  0.00    +0.151 C 
ATOM      6  C   UNL     1     -35.703  22.128   4.408  0.00  0.00    +0.078 C 
ATOM      7  C   UNL     1     -34.326  25.028   2.523  0.00  0.00    +0.006 C 
ATOM      8  C   UNL     1     -34.130  25.929   5.159  0.00  0.00    +0.074 C 
ATOM      9  C   UNL     1     -35.593  22.617   5.792  0.00  0.00    +0.346 C 
ATOM     10  C   UNL     1     -33.803  26.297   2.801  0.00  0.00    +0.037 C 
ATOM     11  C   UNL     1     -33.706  26.747   4.115  0.00  0.00    +0.137 C 
ENDROOT
BRANCH  11  12
ATOM     12  O   UNL     1     -33.196  27.981   4.378  0.00  0.00    -0.505 OA
ATOM     13  H   UNL     1     -33.689  28.748   4.159  0.00  0.00    +0.292 HD
ENDBRANCH  11  12
BRANCH   3  14
ATOM     14  C   UNL     1     -35.449  22.307   1.951  0.00  0.00    +0.025 C 
BRANCH  14  15
ATOM     15  C   UNL     1     -36.785  22.652   1.294  0.00  0.00    -0.006 C 
BRANCH  15  16
ATOM     16  CA  UNL     1     -37.839  21.533   1.310  0.00  0.00    +0.036 C 
BRANCH  16  17
ATOM     17  N   UNL     1     -37.340  20.334   1.985  0.00  0.00    +0.389 N 
ATOM     18  H1  UNL     1     -38.070  19.622   1.999  0.00  0.00    -0.088 HD
ATOM     19  H2  UNL     1     -37.076  20.570   2.942  0.00  0.00    -0.088 HD
ATOM     20  H3  UNL     1     -36.526  19.977   1.486  0.00  0.00    -0.088 HD
ENDBRANCH  16  17
BRANCH  16  22
ATOM     21  OXT UNL     1     -39.222  23.112   2.562  0.00  0.00    -0.253 OA
ATOM     22  C   UNL     1     -39.071  22.002   2.065  0.00  0.00    +0.293 C 
BRANCH  22  23
ATOM     23  O   UNL     1     -40.025  21.036   2.128  0.00  0.00    -0.482 OA
ATOM     24  H   UNL     1     -40.377  20.778   2.957  0.00  0.00    +0.295 HD
ENDBRANCH  22  23
ENDBRANCH  16  22
ENDBRANCH  15  16
ENDBRANCH  14  15
ENDBRANCH   3  14
TORSDOF 7
ENDMDL
MODEL 5
REMARK VINA RESULT:      -5.8      2.285      4.976
REMARK  Name = 53487799
REMARK  7 active torsions:
REMARK  status: ('A' for Active; 'I' for Inactive)
REMARK    1  A    between atoms: C_3  and  C_14
REMARK    2  A    between atoms: C_11  and  O_12
REMARK    3  A    between atoms: C_14  and  C_15
REMARK    4  A    between atoms: C_15  and  CA_16
REMARK    5  A    between atoms: CA_16  and  N_17
REMARK    6  A    between atoms: CA_16  and  C_22
REMARK    7  A    between atoms: C_22  and  O_23
REMARK                            x       y       z     vdW  Elec       q    Type
REMARK                         _______ _______ _______ _____ _____    ______ ____
ROOT
ATOM      1  O   UNL     1     -33.938  25.217   5.628  0.00  0.00    -0.421 OA
ATOM      2  O   UNL     1     -33.271  27.404   5.578  0.00  0.00    -0.244 OA
ATOM      3  C   UNL     1     -35.145  25.630   3.104  0.00  0.00    -0.013 C 
ATOM      4  C   UNL     1     -35.218  24.315   3.754  0.00  0.00    +0.031 C 
ATOM      5  C   UNL     1     -34.610  24.151   5.000  0.00  0.00    +0.151 C 
ATOM      6  C   UNL     1     -34.499  26.627   3.726  0.00  0.00    +0.078 C 
ATOM      7  C   UNL     1     -35.867  23.205   3.196  0.00  0.00    +0.006 C 
ATOM      8  C   UNL     1     -34.633  22.935   5.687  0.00  0.00    +0.074 C 
ATOM      9  C   UNL     1     -33.853  26.469   5.040  0.00  0.00    +0.346 C 
ATOM     10  C   UNL     1     -35.897  21.980   3.872  0.00  0.00    +0.037 C 
ATOM     11  C   UNL     1     -35.282  21.845   5.115  0.00  0.00    +0.137 C 
ENDROOT
BRANCH  11  12
ATOM     12  O   UNL     1     -35.315  20.651   5.767  0.00  0.00    -0.505 OA
ATOM     13  H   UNL     1     -35.939  19.998   5.516  0.00  0.00    +0.292 HD
ENDBRANCH  11  12
BRANCH   3  14
ATOM     14  C   UNL     1     -35.789  25.840   1.764  0.00  0.00    +0.025 C 
BRANCH  14  15
ATOM     15  C   UNL     1     -37.074  26.664   1.837  0.00  0.00    -0.006 C 
BRANCH  15  16
ATOM     16  CA  UNL     1     -38.376  25.880   1.603  0.00  0.00    +0.036 C 
BRANCH  16  17
ATOM     17  N   UNL     1     -38.130  24.630   0.884  0.00  0.00    +0.389 N 
ATOM     18  H1  UNL     1     -38.235  24.787  -0.118  0.00  0.00    -0.088 HD
ATOM     19  H2  UNL     1     -38.800  23.925   1.191  0.00  0.00    -0.088 HD
ATOM     20  H3  UNL     1     -37.183  24.306   1.081  0.00  0.00    -0.088 HD
ENDBRANCH  16  17
BRANCH  16  22
ATOM     21  OXT UNL     1     -38.981  24.414   3.462  0.00  0.00    -0.253 OA
ATOM     22  C   UNL     1     -39.003  25.521   2.940  0.00  0.00    +0.293 C 
BRANCH  22  23
ATOM     23  O   UNL     1     -39.603  26.594   3.522  0.00  0.00    -0.482 OA
ATOM     24  H   UNL     1     -39.082  27.298   3.856  0.00  0.00    +0.295 HD
ENDBRANCH  22  23
ENDBRANCH  16  22
ENDBRANCH  15  16
ENDBRANCH  14  15
ENDBRANCH   3  14
TORSDOF 7
ENDMDL
MODEL 6
REMARK VINA RESULT:      -5.8      3.959      6.353
REMARK  Name = 53487799
REMARK  7 active torsions:
REMARK  status: ('A' for Active; 'I' for Inactive)
REMARK    1  A    between atoms: C_3  and  C_14
REMARK    2  A    between atoms: C_11  and  O_12
REMARK    3  A    between atoms: C_14  and  C_15
REMARK    4  A    between atoms: C_15  and  CA_16
REMARK    5  A    between atoms: CA_16  and  N_17
REMARK    6  A    between atoms: CA_16  and  C_22
REMARK    7  A    between atoms: C_22  and  O_23
REMARK                            x       y       z     vdW  Elec       q    Type
REMARK                         _______ _______ _______ _____ _____    ______ ____
ROOT
ATOM      1  O   UNL     1     -35.741  17.320  -0.459  0.00  0.00    -0.421 OA
ATOM      2  O   UNL     1     -37.906  17.995  -0.752  0.00  0.00    -0.244 OA
ATOM      3  C   UNL     1     -35.293  19.716   0.976  0.00  0.00    -0.013 C 
ATOM      4  C   UNL     1     -34.201  18.752   0.785  0.00  0.00    +0.031 C 
ATOM      5  C   UNL     1     -34.462  17.581   0.070  0.00  0.00    +0.151 C 
ATOM      6  C   UNL     1     -36.500  19.442   0.459  0.00  0.00    +0.078 C 
ATOM      7  C   UNL     1     -32.903  18.937   1.279  0.00  0.00    +0.006 C 
ATOM      8  C   UNL     1     -33.483  16.612  -0.157  0.00  0.00    +0.074 C 
ATOM      9  C   UNL     1     -36.790  18.211  -0.295  0.00  0.00    +0.346 C 
ATOM     10  C   UNL     1     -31.911  17.974   1.059  0.00  0.00    +0.037 C 
ATOM     11  C   UNL     1     -32.200  16.814   0.344  0.00  0.00    +0.137 C 
ENDROOT
BRANCH  11  12
ATOM     12  O   UNL     1     -31.230  15.883   0.134  0.00  0.00    -0.505 OA
ATOM     13  H   UNL     1     -30.381  15.996   0.513  0.00  0.00    +0.292 HD
ENDBRANCH  11  12
BRANCH   3  14
ATOM     14  C   UNL     1     -35.045  20.985   1.737  0.00  0.00    +0.025 C 
BRANCH  14  15
ATOM     15  C   UNL     1     -35.417  20.883   3.216  0.00  0.00    -0.006 C 
BRANCH  15  16
ATOM     16  CA  UNL     1     -35.589  22.223   3.950  0.00  0.00    +0.036 C 
BRANCH  16  17
ATOM     17  N   UNL     1     -36.955  22.732   3.827  0.00  0.00    +0.389 N 
ATOM     18  H1  UNL     1     -37.594  22.118   4.332  0.00  0.00    -0.088 HD
ATOM     19  H2  UNL     1     -37.218  22.761   2.842  0.00  0.00    -0.088 HD
ATOM     20  H3  UNL     1     -37.004  23.672   4.220  0.00  0.00    -0.088 HD
ENDBRANCH  16  17
BRANCH  16  22
ATOM     21  OXT UNL     1     -35.136  22.935   6.243  0.00  0.00    -0.253 OA
ATOM     22  C   UNL     1     -35.304  22.034   5.431  0.00  0.00    +0.293 C 
BRANCH  22  23
ATOM     23  O   UNL     1     -35.263  20.719   5.774  0.00  0.00    -0.482 OA
ATOM     24  H   UNL     1     -34.665  20.426   6.433  0.00  0.00    +0.295 HD
ENDBRANCH  22  23
ENDBRANCH  16  22
ENDBRANCH  15  16
ENDBRANCH  14  15
ENDBRANCH   3  14
TORSDOF 7
ENDMDL
MODEL 7
REMARK VINA RESULT:      -5.7      3.100      6.666
REMARK  Name = 53487799
REMARK  7 active torsions:
REMARK  status: ('A' for Active; 'I' for Inactive)
REMARK    1  A    between atoms: C_3  and  C_14
REMARK    2  A    between atoms: C_11  and  O_12
REMARK    3  A    between atoms: C_14  and  C_15
REMARK    4  A    between atoms: C_15  and  CA_16
REMARK    5  A    between atoms: CA_16  and  N_17
REMARK    6  A    between atoms: CA_16  and  C_22
REMARK    7  A    between atoms: C_22  and  O_23
REMARK                            x       y       z     vdW  Elec       q    Type
REMARK                         _______ _______ _______ _____ _____    ______ ____
ROOT
ATOM      1  O   UNL     1     -35.176  24.022   5.849  0.00  0.00    -0.421 OA
ATOM      2  O   UNL     1     -36.014  22.042   6.627  0.00  0.00    -0.244 OA
ATOM      3  C   UNL     1     -35.139  22.877   3.263  0.00  0.00    -0.013 C 
ATOM      4  C   UNL     1     -34.683  24.258   3.469  0.00  0.00    +0.031 C 
ATOM      5  C   UNL     1     -34.716  24.787   4.760  0.00  0.00    +0.151 C 
ATOM      6  C   UNL     1     -35.571  22.171   4.320  0.00  0.00    +0.078 C 
ATOM      7  C   UNL     1     -34.212  25.083   2.439  0.00  0.00    +0.006 C 
ATOM      8  C   UNL     1     -34.301  26.090   5.043  0.00  0.00    +0.074 C 
ATOM      9  C   UNL     1     -35.612  22.717   5.686  0.00  0.00    +0.346 C 
ATOM     10  C   UNL     1     -33.793  26.392   2.707  0.00  0.00    +0.037 C 
ATOM     11  C   UNL     1     -33.837  26.894   4.006  0.00  0.00    +0.137 C 
ENDROOT
BRANCH  11  12
ATOM     12  O   UNL     1     -33.428  28.167   4.260  0.00  0.00    -0.505 OA
ATOM     13  H   UNL     1     -33.762  28.877   3.748  0.00  0.00    +0.292 HD
ENDBRANCH  11  12
BRANCH   3  14
ATOM     14  C   UNL     1     -35.115  22.277   1.888  0.00  0.00    +0.025 C 
BRANCH  14  15
ATOM     15  C   UNL     1     -35.463  20.788   1.873  0.00  0.00    -0.006 C 
BRANCH  15  16
ATOM     16  CA  UNL     1     -36.541  20.371   0.861  0.00  0.00    +0.036 C 
BRANCH  16  17
ATOM     17  N   UNL     1     -36.855  18.946   0.965  0.00  0.00    +0.389 N 
ATOM     18  H1  UNL     1     -37.864  18.824   1.051  0.00  0.00    -0.088 HD
ATOM     19  H2  UNL     1     -36.394  18.557   1.789  0.00  0.00    -0.088 HD
ATOM     20  H3  UNL     1     -36.523  18.462   0.131  0.00  0.00    -0.088 HD
ENDBRANCH  16  17
BRANCH  16  22
ATOM     21  OXT UNL     1     -38.371  21.910   0.354  0.00  0.00    -0.253 OA
ATOM     22  C   UNL     1     -37.823  21.141   1.133  0.00  0.00    +0.293 C 
BRANCH  22  23
ATOM     23  O   UNL     1     -38.321  20.872   2.370  0.00  0.00    -0.482 OA
ATOM     24  H   UNL     1     -38.222  20.016   2.739  0.00  0.00    +0.295 HD
ENDBRANCH  22  23
ENDBRANCH  16  22
ENDBRANCH  15  16
ENDBRANCH  14  15
ENDBRANCH   3  14
TORSDOF 7
ENDMDL
MODEL 8
REMARK VINA RESULT:      -5.6      2.456      6.620
REMARK  Name = 53487799
REMARK  7 active torsions:
REMARK  status: ('A' for Active; 'I' for Inactive)
REMARK    1  A    between atoms: C_3  and  C_14
REMARK    2  A    between atoms: C_11  and  O_12
REMARK    3  A    between atoms: C_14  and  C_15
REMARK    4  A    between atoms: C_15  and  CA_16
REMARK    5  A    between atoms: CA_16  and  N_17
REMARK    6  A    between atoms: CA_16  and  C_22
REMARK    7  A    between atoms: C_22  and  O_23
REMARK                            x       y       z     vdW  Elec       q    Type
REMARK                         _______ _______ _______ _____ _____    ______ ____
ROOT
ATOM      1  O   UNL     1     -33.420  27.791   2.922  0.00  0.00    -0.421 OA
ATOM      2  O   UNL     1     -34.612  27.383   1.014  0.00  0.00    -0.244 OA
ATOM      3  C   UNL     1     -35.085  25.926   4.244  0.00  0.00    -0.013 C 
ATOM      4  C   UNL     1     -34.014  26.613   4.978  0.00  0.00    +0.031 C 
ATOM      5  C   UNL     1     -33.213  27.527   4.290  0.00  0.00    +0.151 C 
ATOM      6  C   UNL     1     -35.260  26.199   2.942  0.00  0.00    +0.078 C 
ATOM      7  C   UNL     1     -33.744  26.405   6.337  0.00  0.00    +0.006 C 
ATOM      8  C   UNL     1     -32.174  28.222   4.910  0.00  0.00    +0.074 C 
ATOM      9  C   UNL     1     -34.423  27.160   2.204  0.00  0.00    +0.346 C 
ATOM     10  C   UNL     1     -32.704  27.095   6.972  0.00  0.00    +0.037 C 
ATOM     11  C   UNL     1     -31.921  28.001   6.261  0.00  0.00    +0.137 C 
ENDROOT
BRANCH  11  12
ATOM     12  O   UNL     1     -30.913  28.668   6.885  0.00  0.00    -0.505 OA
ATOM     13  H   UNL     1     -30.952  28.819   7.809  0.00  0.00    +0.292 HD
ENDBRANCH  11  12
BRANCH   3  14
ATOM     14  C   UNL     1     -35.965  24.939   4.954  0.00  0.00    +0.025 C 
BRANCH  14  15
ATOM     15  C   UNL     1     -36.303  23.714   4.105  0.00  0.00    -0.006 C 
BRANCH  15  16
ATOM     16  CA  UNL     1     -35.519  22.436   4.444  0.00  0.00    +0.036 C 
BRANCH  16  17
ATOM     17  N   UNL     1     -35.879  21.918   5.764  0.00  0.00    +0.389 N 
ATOM     18  H1  UNL     1     -35.126  21.327   6.116  0.00  0.00    -0.088 HD
ATOM     19  H2  UNL     1     -36.736  21.369   5.690  0.00  0.00    -0.088 HD
ATOM     20  H3  UNL     1     -36.029  22.697   6.405  0.00  0.00    -0.088 HD
ENDBRANCH  16  17
BRANCH  16  22
ATOM     21  OXT UNL     1     -35.140  20.381   3.177  0.00  0.00    -0.253 OA
ATOM     22  C   UNL     1     -35.840  21.354   3.426  0.00  0.00    +0.293 C 
BRANCH  22  23
ATOM     23  O   UNL     1     -37.029  21.580   2.807  0.00  0.00    -0.482 OA
ATOM     24  H   UNL     1     -37.759  21.019   2.976  0.00  0.00    +0.295 HD
ENDBRANCH  22  23
ENDBRANCH  16  22
ENDBRANCH  15  16
ENDBRANCH  14  15
ENDBRANCH   3  14
TORSDOF 7
ENDMDL
MODEL 9
REMARK VINA RESULT:      -5.6      2.275      3.160
REMARK  Name = 53487799
REMARK  7 active torsions:
REMARK  status: ('A' for Active; 'I' for Inactive)
REMARK    1  A    between atoms: C_3  and  C_14
REMARK    2  A    between atoms: C_11  and  O_12
REMARK    3  A    between atoms: C_14  and  C_15
REMARK    4  A    between atoms: C_15  and  CA_16
REMARK    5  A    between atoms: CA_16  and  N_17
REMARK    6  A    between atoms: CA_16  and  C_22
REMARK    7  A    between atoms: C_22  and  O_23
REMARK                            x       y       z     vdW  Elec       q    Type
REMARK                         _______ _______ _______ _____ _____    ______ ____
ROOT
ATOM      1  O   UNL     1     -35.117  20.757   4.212  0.00  0.00    -0.421 OA
ATOM      2  O   UNL     1     -34.811  21.435   6.374  0.00  0.00    -0.244 OA
ATOM      3  C   UNL     1     -36.207  23.310   3.669  0.00  0.00    -0.013 C 
ATOM      4  C   UNL     1     -36.109  22.304   2.603  0.00  0.00    +0.031 C 
ATOM      5  C   UNL     1     -35.566  21.055   2.911  0.00  0.00    +0.151 C 
ATOM      6  C   UNL     1     -35.773  22.997   4.899  0.00  0.00    +0.078 C 
ATOM      7  C   UNL     1     -36.532  22.522   1.285  0.00  0.00    +0.006 C 
ATOM      8  C   UNL     1     -35.436  20.043   1.958  0.00  0.00    +0.074 C 
ATOM      9  C   UNL     1     -35.198  21.685   5.238  0.00  0.00    +0.346 C 
ATOM     10  C   UNL     1     -36.408  21.517   0.319  0.00  0.00    +0.037 C 
ATOM     11  C   UNL     1     -35.861  20.280   0.654  0.00  0.00    +0.137 C 
ENDROOT
BRANCH  11  12
ATOM     12  O   UNL     1     -35.744  19.308  -0.290  0.00  0.00    -0.505 OA
ATOM     13  H   UNL     1     -34.897  18.980  -0.523  0.00  0.00    +0.292 HD
ENDBRANCH  11  12
BRANCH   3  14
ATOM     14  C   UNL     1     -36.787  24.662   3.372  0.00  0.00    +0.025 C 
BRANCH  14  15
ATOM     15  C   UNL     1     -35.729  25.707   3.020  0.00  0.00    -0.006 C 
BRANCH  15  16
ATOM     16  CA  UNL     1     -35.338  26.662   4.159  0.00  0.00    +0.036 C 
BRANCH  16  17
ATOM     17  N   UNL     1     -36.313  26.625   5.250  0.00  0.00    +0.389 N 
ATOM     18  H1  UNL     1     -36.887  25.787   5.165  0.00  0.00    -0.088 HD
ATOM     19  H2  UNL     1     -36.909  27.452   5.200  0.00  0.00    -0.088 HD
ATOM     20  H3  UNL     1     -35.823  26.614   6.144  0.00  0.00    -0.088 HD
ENDBRANCH  16  17
BRANCH  16  22
ATOM     21  OXT UNL     1     -33.112  25.654   4.127  0.00  0.00    -0.253 OA
ATOM     22  C   UNL     1     -33.995  26.247   4.735  0.00  0.00    +0.293 C 
BRANCH  22  23
ATOM     23  O   UNL     1     -33.864  26.622   6.035  0.00  0.00    -0.482 OA
ATOM     24  H   UNL     1     -33.091  27.071   6.318  0.00  0.00    +0.295 HD
ENDBRANCH  22  23
ENDBRANCH  16  22
ENDBRANCH  15  16
ENDBRANCH  14  15
ENDBRANCH   3  14
TORSDOF 7
ENDMDL
