MODEL 1
REMARK VINA RESULT:      -7.2      0.000      0.000
REMARK  Name = 56840806
REMARK  9 active torsions:
REMARK  status: ('A' for Active; 'I' for Inactive)
REMARK    1  A    between atoms: C_8  and  O_24
REMARK    2  A    between atoms: C_13  and  O_26
REMARK    3  A    between atoms: C_15  and  O_28
REMARK    4  A    between atoms: C_16  and  O_32
REMARK    5  A    between atoms: C_19  and  O_30
REMARK    6  A    between atoms: O_32  and  C_34
REMARK    7  A    between atoms: C_34  and  C_35
REMARK    8  A    between atoms: C_35  and  O_37
REMARK    9  A    between atoms: C_35  and  C_39
REMARK                            x       y       z     vdW  Elec       q    Type
REMARK                         _______ _______ _______ _____ _____    ______ ____
ROOT
ATOM      1  O   UNL     1     -36.508  23.401   4.369  0.00  0.00    -0.332 OA
ATOM      2  O   UNL     1     -33.580  25.417   1.050  0.00  0.00    -0.450 OA
ATOM      3  O   UNL     1     -32.200  27.156   1.339  0.00  0.00    -0.246 OA
ATOM      4  C   UNL     1     -34.962  24.439   2.882  0.00  0.00    +0.073 C 
ATOM      5  C   UNL     1     -36.322  25.184   2.808  0.00  0.00    +0.062 C 
ATOM      6  C   UNL     1     -37.241  24.864   1.540  0.00  0.00    +0.036 C 
ATOM      7  C   UNL     1     -33.970  25.172   3.856  0.00  0.00    +0.060 C 
ATOM      8  C   UNL     1     -36.831  24.801   4.221  0.00  0.00    +0.209 C 
ATOM      9  C   UNL     1     -34.249  24.230   1.551  0.00  0.00    +0.172 C 
ATOM     10  C   UNL     1     -36.329  24.812   0.252  0.00  0.00    +0.024 C 
ATOM     11  C   UNL     1     -35.378  23.108   3.531  0.00  0.00    +0.148 C 
ATOM     12  C   UNL     1     -34.555  25.279   5.305  0.00  0.00    +0.036 C 
ATOM     13  C   UNL     1     -36.066  25.594   5.310  0.00  0.00    +0.161 C 
ATOM     14  C   UNL     1     -35.189  23.792   0.423  0.00  0.00    +0.048 C 
ATOM     15  C   UNL     1     -38.228  26.061   1.264  0.00  0.00    +0.142 C 
ATOM     16  C   UNL     1     -33.502  26.491   3.239  0.00  0.00    +0.266 C 
ATOM     17  C   UNL     1     -38.064  23.556   1.698  0.00  0.00    +0.003 C 
ATOM     18  C   UNL     1     -37.120  24.694  -1.048  0.00  0.00    -0.046 C 
ATOM     19  C   UNL     1     -39.083  25.861  -0.002  0.00  0.00    +0.159 C 
ATOM     20  C   UNL     1     -33.787  26.189   6.266  0.00  0.00    +0.003 C 
ATOM     21  C   UNL     1     -33.016  26.370   1.817  0.00  0.00    +0.358 C 
ATOM     22  C   UNL     1     -38.365  25.197  -1.137  0.00  0.00    -0.004 C 
ATOM     23  C   UNL     1     -36.466  24.086  -2.256  0.00  0.00    +0.026 C 
ENDROOT
BRANCH   8  24
ATOM     24  O   UNL     1     -38.220  25.019   4.397  0.00  0.00    -0.362 OA
ATOM     25  H   UNL     1     -38.386  25.970   4.492  0.00  0.00    +0.213 HD
ENDBRANCH   8  24
BRANCH  13  26
ATOM     26  O   UNL     1     -36.281  26.992   5.130  0.00  0.00    -0.380 OA
ATOM     27  H   UNL     1     -37.105  27.132   4.638  0.00  0.00    +0.211 HD
ENDBRANCH  13  26
BRANCH  15  28
ATOM     28  O   UNL     1     -39.145  26.282   2.331  0.00  0.00    -0.382 OA
ATOM     29  H   UNL     1     -39.355  27.228   2.385  0.00  0.00    +0.210 HD
ENDBRANCH  15  28
BRANCH  19  30
ATOM     30  O   UNL     1     -39.541  27.137  -0.454  0.00  0.00    -0.378 OA
ATOM     31  H   UNL     1     -39.626  27.126  -1.420  0.00  0.00    +0.211 HD
ENDBRANCH  19  30
BRANCH  16  32
ATOM     32  O   UNL     1     -32.378  26.998   3.954  0.00  0.00    -0.439 OA
BRANCH  32  34
ATOM     33  O   UNL     1     -33.374  29.071   4.090  0.00  0.00    -0.248 OA
ATOM     34  C   UNL     1     -32.401  28.339   4.226  0.00  0.00    +0.342 C 
BRANCH  34  35
ATOM     35  C   UNL     1     -31.036  28.807   4.725  0.00  0.00    +0.177 C 
ATOM     36  C   UNL     1     -30.119  29.091   3.537  0.00  0.00    +0.041 C 
BRANCH  35  37
ATOM     37  O   UNL     1     -30.470  27.711   5.442  0.00  0.00    -0.376 OA
ATOM     38  H   UNL     1     -31.113  27.381   6.088  0.00  0.00    +0.211 HD
ENDBRANCH  35  37
BRANCH  35  39
ATOM     39  C   UNL     1     -31.198  30.011   5.670  0.00  0.00    +0.038 C 
ATOM     40  C   UNL     1     -31.602  29.641   7.092  0.00  0.00    +0.003 C 
ENDBRANCH  35  39
ENDBRANCH  34  35
ENDBRANCH  32  34
ENDBRANCH  16  32
TORSDOF 9
ENDMDL
MODEL 2
REMARK VINA RESULT:      -6.6      3.095      8.493
REMARK  Name = 56840806
REMARK  9 active torsions:
REMARK  status: ('A' for Active; 'I' for Inactive)
REMARK    1  A    between atoms: C_8  and  O_24
REMARK    2  A    between atoms: C_13  and  O_26
REMARK    3  A    between atoms: C_15  and  O_28
REMARK    4  A    between atoms: C_16  and  O_32
REMARK    5  A    between atoms: C_19  and  O_30
REMARK    6  A    between atoms: O_32  and  C_34
REMARK    7  A    between atoms: C_34  and  C_35
REMARK    8  A    between atoms: C_35  and  O_37
REMARK    9  A    between atoms: C_35  and  C_39
REMARK                            x       y       z     vdW  Elec       q    Type
REMARK                         _______ _______ _______ _____ _____    ______ ____
ROOT
ATOM      1  O   UNL     1     -34.946  24.129  -0.400  0.00  0.00    -0.332 OA
ATOM      2  O   UNL     1     -37.963  21.399   2.265  0.00  0.00    -0.450 OA
ATOM      3  O   UNL     1     -40.149  21.062   1.918  0.00  0.00    -0.246 OA
ATOM      4  C   UNL     1     -36.525  22.765   0.752  0.00  0.00    +0.073 C 
ATOM      5  C   UNL     1     -36.563  24.200   1.341  0.00  0.00    +0.062 C 
ATOM      6  C   UNL     1     -35.816  24.418   2.738  0.00  0.00    +0.036 C 
ATOM      7  C   UNL     1     -37.662  22.561  -0.313  0.00  0.00    +0.060 C 
ATOM      8  C   UNL     1     -36.037  24.941   0.085  0.00  0.00    +0.209 C 
ATOM      9  C   UNL     1     -36.619  21.631   1.767  0.00  0.00    +0.172 C 
ATOM     10  C   UNL     1     -36.143  23.197   3.684  0.00  0.00    +0.024 C 
ATOM     11  C   UNL     1     -35.173  22.772   0.018  0.00  0.00    +0.148 C 
ATOM     12  C   UNL     1     -37.539  23.584  -1.493  0.00  0.00    +0.036 C 
ATOM     13  C   UNL     1     -37.129  24.993  -1.014  0.00  0.00    +0.161 C 
ATOM     14  C   UNL     1     -35.762  21.863   3.016  0.00  0.00    +0.048 C 
ATOM     15  C   UNL     1     -36.420  25.662   3.493  0.00  0.00    +0.142 C 
ATOM     16  C   UNL     1     -39.027  22.515   0.376  0.00  0.00    +0.266 C 
ATOM     17  C   UNL     1     -34.283  24.615   2.584  0.00  0.00    +0.003 C 
ATOM     18  C   UNL     1     -35.632  23.380   5.110  0.00  0.00    -0.046 C 
ATOM     19  C   UNL     1     -35.809  25.877   4.891  0.00  0.00    +0.159 C 
ATOM     20  C   UNL     1     -38.731  23.640  -2.451  0.00  0.00    +0.003 C 
ATOM     21  C   UNL     1     -39.094  21.580   1.556  0.00  0.00    +0.358 C 
ATOM     22  C   UNL     1     -35.508  24.612   5.637  0.00  0.00    -0.004 C 
ATOM     23  C   UNL     1     -35.350  22.170   5.954  0.00  0.00    +0.026 C 
ENDROOT
BRANCH   8  24
ATOM     24  O   UNL     1     -35.604  26.263   0.350  0.00  0.00    -0.362 OA
ATOM     25  H   UNL     1     -35.826  26.497   1.265  0.00  0.00    +0.213 HD
ENDBRANCH   8  24
BRANCH  13  26
ATOM     26  O   UNL     1     -38.267  25.702  -0.530  0.00  0.00    -0.380 OA
ATOM     27  H   UNL     1     -38.374  25.534   0.419  0.00  0.00    +0.211 HD
ENDBRANCH  13  26
BRANCH  15  28
ATOM     28  O   UNL     1     -36.234  26.885   2.787  0.00  0.00    -0.382 OA
ATOM     29  H   UNL     1     -35.618  27.451   3.278  0.00  0.00    +0.210 HD
ENDBRANCH  15  28
BRANCH  19  30
ATOM     30  O   UNL     1     -36.718  26.649   5.678  0.00  0.00    -0.378 OA
ATOM     31  H   UNL     1     -37.545  26.774   5.186  0.00  0.00    +0.211 HD
ENDBRANCH  19  30
BRANCH  16  32
ATOM     32  O   UNL     1     -40.016  22.020  -0.524  0.00  0.00    -0.439 OA
BRANCH  32  34
ATOM     33  O   UNL     1     -41.553  23.570   0.211  0.00  0.00    -0.248 OA
ATOM     34  C   UNL     1     -41.278  22.519  -0.356  0.00  0.00    +0.342 C 
BRANCH  34  35
ATOM     35  C   UNL     1     -42.312  21.579  -0.972  0.00  0.00    +0.177 C 
ATOM     36  C   UNL     1     -43.673  22.271  -1.027  0.00  0.00    +0.041 C 
BRANCH  35  37
ATOM     37  O   UNL     1     -42.436  20.474  -0.079  0.00  0.00    -0.376 OA
ATOM     38  H   UNL     1     -42.365  19.645  -0.578  0.00  0.00    +0.211 HD
ENDBRANCH  35  37
BRANCH  35  39
ATOM     39  C   UNL     1     -41.828  21.079  -2.345  0.00  0.00    +0.038 C 
ATOM     40  C   UNL     1     -42.034  22.072  -3.482  0.00  0.00    +0.003 C 
ENDBRANCH  35  39
ENDBRANCH  34  35
ENDBRANCH  32  34
ENDBRANCH  16  32
TORSDOF 9
ENDMDL
MODEL 3
REMARK VINA RESULT:      -6.4      5.905      8.538
REMARK  Name = 56840806
REMARK  9 active torsions:
REMARK  status: ('A' for Active; 'I' for Inactive)
REMARK    1  A    between atoms: C_8  and  O_24
REMARK    2  A    between atoms: C_13  and  O_26
REMARK    3  A    between atoms: C_15  and  O_28
REMARK    4  A    between atoms: C_16  and  O_32
REMARK    5  A    between atoms: C_19  and  O_30
REMARK    6  A    between atoms: O_32  and  C_34
REMARK    7  A    between atoms: C_34  and  C_35
REMARK    8  A    between atoms: C_35  and  O_37
REMARK    9  A    between atoms: C_35  and  C_39
REMARK                            x       y       z     vdW  Elec       q    Type
REMARK                         _______ _______ _______ _____ _____    ______ ____
ROOT
ATOM      1  O   UNL     1     -35.063  18.545  -2.691  0.00  0.00    -0.332 OA
ATOM      2  O   UNL     1     -38.674  20.516  -0.097  0.00  0.00    -0.450 OA
ATOM      3  O   UNL     1     -38.524  21.487   1.915  0.00  0.00    -0.246 OA
ATOM      4  C   UNL     1     -36.707  19.624  -1.344  0.00  0.00    +0.073 C 
ATOM      5  C   UNL     1     -36.606  18.131  -0.930  0.00  0.00    +0.062 C 
ATOM      6  C   UNL     1     -37.761  17.164  -1.467  0.00  0.00    +0.036 C 
ATOM      7  C   UNL     1     -35.846  20.531  -0.392  0.00  0.00    +0.060 C 
ATOM      8  C   UNL     1     -35.149  17.895  -1.404  0.00  0.00    +0.209 C 
ATOM      9  C   UNL     1     -38.116  20.201  -1.400  0.00  0.00    +0.172 C 
ATOM     10  C   UNL     1     -39.149  17.903  -1.324  0.00  0.00    +0.024 C 
ATOM     11  C   UNL     1     -36.035  19.603  -2.727  0.00  0.00    +0.148 C 
ATOM     12  C   UNL     1     -34.336  20.115  -0.404  0.00  0.00    +0.036 C 
ATOM     13  C   UNL     1     -34.146  18.584  -0.444  0.00  0.00    +0.161 C 
ATOM     14  C   UNL     1     -39.131  19.258  -2.054  0.00  0.00    +0.048 C 
ATOM     15  C   UNL     1     -37.897  15.904  -0.531  0.00  0.00    +0.142 C 
ATOM     16  C   UNL     1     -36.494  20.608   0.992  0.00  0.00    +0.266 C 
ATOM     17  C   UNL     1     -37.527  16.687  -2.926  0.00  0.00    +0.003 C 
ATOM     18  C   UNL     1     -40.347  17.010  -1.635  0.00  0.00    -0.046 C 
ATOM     19  C   UNL     1     -39.056  14.972  -0.936  0.00  0.00    +0.159 C 
ATOM     20  C   UNL     1     -33.459  20.764   0.668  0.00  0.00    +0.003 C 
ATOM     21  C   UNL     1     -37.965  20.935   0.969  0.00  0.00    +0.358 C 
ATOM     22  C   UNL     1     -40.279  15.682  -1.431  0.00  0.00    -0.004 C 
ATOM     23  C   UNL     1     -41.634  17.636  -2.091  0.00  0.00    +0.026 C 
ENDROOT
BRANCH   8  24
ATOM     24  O   UNL     1     -34.805  16.525  -1.506  0.00  0.00    -0.362 OA
ATOM     25  H   UNL     1     -35.066  16.192  -2.379  0.00  0.00    +0.213 HD
ENDBRANCH   8  24
BRANCH  13  26
ATOM     26  O   UNL     1     -34.277  18.035   0.866  0.00  0.00    -0.380 OA
ATOM     27  H   UNL     1     -34.854  18.605   1.399  0.00  0.00    +0.211 HD
ENDBRANCH  13  26
BRANCH  15  28
ATOM     28  O   UNL     1     -36.726  15.095  -0.513  0.00  0.00    -0.382 OA
ATOM     29  H   UNL     1     -36.510  14.859   0.403  0.00  0.00    +0.210 HD
ENDBRANCH  15  28
BRANCH  19  30
ATOM     30  O   UNL     1     -39.430  14.184   0.196  0.00  0.00    -0.378 OA
ATOM     31  H   UNL     1     -40.016  13.466  -0.090  0.00  0.00    +0.211 HD
ENDBRANCH  19  30
BRANCH  16  32
ATOM     32  O   UNL     1     -35.909  21.663   1.751  0.00  0.00    -0.439 OA
BRANCH  32  34
ATOM     33  O   UNL     1     -35.254  20.256   3.452  0.00  0.00    -0.248 OA
ATOM     34  C   UNL     1     -35.595  21.361   3.047  0.00  0.00    +0.342 C 
BRANCH  34  35
ATOM     35  C   UNL     1     -35.727  22.598   3.933  0.00  0.00    +0.177 C 
ATOM     36  C   UNL     1     -35.287  22.265   5.358  0.00  0.00    +0.041 C 
BRANCH  35  37
ATOM     37  O   UNL     1     -37.118  22.910   3.984  0.00  0.00    -0.376 OA
ATOM     38  H   UNL     1     -37.568  22.510   3.224  0.00  0.00    +0.211 HD
ENDBRANCH  35  37
BRANCH  35  39
ATOM     39  C   UNL     1     -34.957  23.780   3.319  0.00  0.00    +0.038 C 
ATOM     40  C   UNL     1     -34.151  24.592   4.325  0.00  0.00    +0.003 C 
ENDBRANCH  35  39
ENDBRANCH  34  35
ENDBRANCH  32  34
ENDBRANCH  16  32
TORSDOF 9
ENDMDL
MODEL 4
REMARK VINA RESULT:      -6.3      2.072      4.329
REMARK  Name = 56840806
REMARK  9 active torsions:
REMARK  status: ('A' for Active; 'I' for Inactive)
REMARK    1  A    between atoms: C_8  and  O_24
REMARK    2  A    between atoms: C_13  and  O_26
REMARK    3  A    between atoms: C_15  and  O_28
REMARK    4  A    between atoms: C_16  and  O_32
REMARK    5  A    between atoms: C_19  and  O_30
REMARK    6  A    between atoms: O_32  and  C_34
REMARK    7  A    between atoms: C_34  and  C_35
REMARK    8  A    between atoms: C_35  and  O_37
REMARK    9  A    between atoms: C_35  and  C_39
REMARK                            x       y       z     vdW  Elec       q    Type
REMARK                         _______ _______ _______ _____ _____    ______ ____
ROOT
ATOM      1  O   UNL     1     -38.113  25.922   1.998  0.00  0.00    -0.332 OA
ATOM      2  O   UNL     1     -34.341  25.784   5.067  0.00  0.00    -0.450 OA
ATOM      3  O   UNL     1     -32.481  27.026   4.984  0.00  0.00    -0.246 OA
ATOM      4  C   UNL     1     -36.234  26.033   3.461  0.00  0.00    +0.073 C 
ATOM      5  C   UNL     1     -35.935  25.024   2.320  0.00  0.00    +0.062 C 
ATOM      6  C   UNL     1     -36.061  23.473   2.689  0.00  0.00    +0.036 C 
ATOM      7  C   UNL     1     -35.619  27.443   3.143  0.00  0.00    +0.060 C 
ATOM      8  C   UNL     1     -36.902  25.626   1.269  0.00  0.00    +0.209 C 
ATOM      9  C   UNL     1     -35.768  25.616   4.851  0.00  0.00    +0.172 C 
ATOM     10  C   UNL     1     -35.410  23.234   4.108  0.00  0.00    +0.024 C 
ATOM     11  C   UNL     1     -37.765  26.146   3.375  0.00  0.00    +0.148 C 
ATOM     12  C   UNL     1     -36.179  28.030   1.803  0.00  0.00    +0.036 C 
ATOM     13  C   UNL     1     -36.336  26.955   0.707  0.00  0.00    +0.161 C 
ATOM     14  C   UNL     1     -36.052  24.145   5.170  0.00  0.00    +0.048 C 
ATOM     15  C   UNL     1     -35.182  22.606   1.711  0.00  0.00    +0.142 C 
ATOM     16  C   UNL     1     -34.093  27.388   3.247  0.00  0.00    +0.266 C 
ATOM     17  C   UNL     1     -37.524  22.955   2.648  0.00  0.00    +0.003 C 
ATOM     18  C   UNL     1     -35.308  21.760   4.489  0.00  0.00    -0.046 C 
ATOM     19  C   UNL     1     -35.182  21.106   2.066  0.00  0.00    +0.159 C 
ATOM     20  C   UNL     1     -35.465  29.275   1.273  0.00  0.00    +0.003 C 
ATOM     21  C   UNL     1     -33.582  26.748   4.512  0.00  0.00    +0.358 C 
ATOM     22  C   UNL     1     -35.188  20.817   3.537  0.00  0.00    -0.004 C 
ATOM     23  C   UNL     1     -35.257  21.375   5.939  0.00  0.00    +0.026 C 
ENDROOT
BRANCH   8  24
ATOM     24  O   UNL     1     -37.167  24.756   0.183  0.00  0.00    -0.362 OA
ATOM     25  H   UNL     1     -36.477  24.862  -0.490  0.00  0.00    +0.213 HD
ENDBRANCH   8  24
BRANCH  13  26
ATOM     26  O   UNL     1     -35.085  26.715   0.067  0.00  0.00    -0.380 OA
ATOM     27  H   UNL     1     -34.759  25.835   0.313  0.00  0.00    +0.211 HD
ENDBRANCH  13  26
BRANCH  15  28
ATOM     28  O   UNL     1     -35.608  22.692   0.355  0.00  0.00    -0.382 OA
ATOM     29  H   UNL     1     -35.404  21.861  -0.101  0.00  0.00    +0.210 HD
ENDBRANCH  15  28
BRANCH  19  30
ATOM     30  O   UNL     1     -34.019  20.498   1.500  0.00  0.00    -0.378 OA
ATOM     31  H   UNL     1     -34.286  19.867   0.815  0.00  0.00    +0.211 HD
ENDBRANCH  19  30
BRANCH  16  32
ATOM     32  O   UNL     1     -33.554  28.707   3.276  0.00  0.00    -0.439 OA
BRANCH  32  34
ATOM     33  O   UNL     1     -32.039  28.344   1.580  0.00  0.00    -0.248 OA
ATOM     34  C   UNL     1     -32.356  28.876   2.637  0.00  0.00    +0.342 C 
BRANCH  34  35
ATOM     35  C   UNL     1     -31.456  29.823   3.427  0.00  0.00    +0.177 C 
ATOM     36  C   UNL     1     -30.694  30.735   2.468  0.00  0.00    +0.041 C 
BRANCH  35  37
ATOM     37  O   UNL     1     -30.491  29.006   4.087  0.00  0.00    -0.376 OA
ATOM     38  H   UNL     1     -30.354  29.331   4.990  0.00  0.00    +0.211 HD
ENDBRANCH  35  37
BRANCH  35  39
ATOM     39  C   UNL     1     -32.280  30.593   4.474  0.00  0.00    +0.038 C 
ATOM     40  C   UNL     1     -31.812  30.391   5.911  0.00  0.00    +0.003 C 
ENDBRANCH  35  39
ENDBRANCH  34  35
ENDBRANCH  32  34
ENDBRANCH  16  32
TORSDOF 9
ENDMDL
MODEL 5
REMARK VINA RESULT:      -6.3      1.973      4.364
REMARK  Name = 56840806
REMARK  9 active torsions:
REMARK  status: ('A' for Active; 'I' for Inactive)
REMARK    1  A    between atoms: C_8  and  O_24
REMARK    2  A    between atoms: C_13  and  O_26
REMARK    3  A    between atoms: C_15  and  O_28
REMARK    4  A    between atoms: C_16  and  O_32
REMARK    5  A    between atoms: C_19  and  O_30
REMARK    6  A    between atoms: O_32  and  C_34
REMARK    7  A    between atoms: C_34  and  C_35
REMARK    8  A    between atoms: C_35  and  O_37
REMARK    9  A    between atoms: C_35  and  C_39
REMARK                            x       y       z     vdW  Elec       q    Type
REMARK                         _______ _______ _______ _____ _____    ______ ____
ROOT
ATOM      1  O   UNL     1     -36.198  27.128   0.391  0.00  0.00    -0.332 OA
ATOM      2  O   UNL     1     -34.877  25.106   4.614  0.00  0.00    -0.450 OA
ATOM      3  O   UNL     1     -33.306  25.835   6.032  0.00  0.00    -0.246 OA
ATOM      4  C   UNL     1     -35.502  26.307   2.518  0.00  0.00    +0.073 C 
ATOM      5  C   UNL     1     -34.603  25.691   1.413  0.00  0.00    +0.062 C 
ATOM      6  C   UNL     1     -34.920  24.180   0.996  0.00  0.00    +0.036 C 
ATOM      7  C   UNL     1     -34.813  27.558   3.174  0.00  0.00    +0.060 C 
ATOM      8  C   UNL     1     -34.788  26.815   0.362  0.00  0.00    +0.209 C 
ATOM      9  C   UNL     1     -35.920  25.357   3.635  0.00  0.00    +0.172 C 
ATOM     10  C   UNL     1     -35.204  23.341   2.303  0.00  0.00    +0.024 C 
ATOM     11  C   UNL     1     -36.705  26.796   1.695  0.00  0.00    +0.148 C 
ATOM     12  C   UNL     1     -34.501  28.668   2.114  0.00  0.00    +0.036 C 
ATOM     13  C   UNL     1     -34.001  28.084   0.776  0.00  0.00    +0.161 C 
ATOM     14  C   UNL     1     -36.339  23.973   3.130  0.00  0.00    +0.048 C 
ATOM     15  C   UNL     1     -33.640  23.504   0.375  0.00  0.00    +0.142 C 
ATOM     16  C   UNL     1     -33.625  27.116   4.031  0.00  0.00    +0.266 C 
ATOM     17  C   UNL     1     -36.095  24.061  -0.013  0.00  0.00    +0.003 C 
ATOM     18  C   UNL     1     -35.342  21.843   2.045  0.00  0.00    -0.046 C 
ATOM     19  C   UNL     1     -33.847  22.016   0.034  0.00  0.00    +0.159 C 
ATOM     20  C   UNL     1     -33.610  29.815   2.596  0.00  0.00    +0.003 C 
ATOM     21  C   UNL     1     -33.936  25.994   4.988  0.00  0.00    +0.358 C 
ATOM     22  C   UNL     1     -34.697  21.267   1.015  0.00  0.00    -0.004 C 
ATOM     23  C   UNL     1     -36.134  21.000   3.003  0.00  0.00    +0.026 C 
ENDROOT
BRANCH   8  24
ATOM     24  O   UNL     1     -34.382  26.439  -0.942  0.00  0.00    -0.362 OA
ATOM     25  H   UNL     1     -35.116  26.579  -1.560  0.00  0.00    +0.213 HD
ENDBRANCH   8  24
BRANCH  13  26
ATOM     26  O   UNL     1     -32.609  27.782   0.857  0.00  0.00    -0.380 OA
ATOM     27  H   UNL     1     -32.371  27.598   1.779  0.00  0.00    +0.211 HD
ENDBRANCH  13  26
BRANCH  15  28
ATOM     28  O   UNL     1     -33.209  24.130  -0.829  0.00  0.00    -0.382 OA
ATOM     29  H   UNL     1     -33.112  23.461  -1.524  0.00  0.00    +0.210 HD
ENDBRANCH  15  28
BRANCH  19  30
ATOM     30  O   UNL     1     -32.571  21.375  -0.025  0.00  0.00    -0.378 OA
ATOM     31  H   UNL     1     -32.018  21.689   0.707  0.00  0.00    +0.211 HD
ENDBRANCH  19  30
BRANCH  16  32
ATOM     32  O   UNL     1     -33.199  28.187   4.869  0.00  0.00    -0.439 OA
BRANCH  32  34
ATOM     33  O   UNL     1     -31.003  27.869   4.253  0.00  0.00    -0.248 OA
ATOM     34  C   UNL     1     -31.846  28.329   5.013  0.00  0.00    +0.342 C 
BRANCH  34  35
ATOM     35  C   UNL     1     -31.523  29.144   6.264  0.00  0.00    +0.177 C 
ATOM     36  C   UNL     1     -30.024  29.080   6.551  0.00  0.00    +0.041 C 
BRANCH  35  37
ATOM     37  O   UNL     1     -32.188  28.499   7.349  0.00  0.00    -0.376 OA
ATOM     38  H   UNL     1     -32.506  27.630   7.062  0.00  0.00    +0.211 HD
ENDBRANCH  35  37
BRANCH  35  39
ATOM     39  C   UNL     1     -32.053  30.581   6.116  0.00  0.00    +0.038 C 
ATOM     40  C   UNL     1     -31.328  31.412   5.066  0.00  0.00    +0.003 C 
ENDBRANCH  35  39
ENDBRANCH  34  35
ENDBRANCH  32  34
ENDBRANCH  16  32
TORSDOF 9
ENDMDL
MODEL 6
REMARK VINA RESULT:      -6.2      3.930      7.046
REMARK  Name = 56840806
REMARK  9 active torsions:
REMARK  status: ('A' for Active; 'I' for Inactive)
REMARK    1  A    between atoms: C_8  and  O_24
REMARK    2  A    between atoms: C_13  and  O_26
REMARK    3  A    between atoms: C_15  and  O_28
REMARK    4  A    between atoms: C_16  and  O_32
REMARK    5  A    between atoms: C_19  and  O_30
REMARK    6  A    between atoms: O_32  and  C_34
REMARK    7  A    between atoms: C_34  and  C_35
REMARK    8  A    between atoms: C_35  and  O_37
REMARK    9  A    between atoms: C_35  and  C_39
REMARK                            x       y       z     vdW  Elec       q    Type
REMARK                         _______ _______ _______ _____ _____    ______ ____
ROOT
ATOM      1  O   UNL     1     -37.282  20.743   0.570  0.00  0.00    -0.332 OA
ATOM      2  O   UNL     1     -33.690  24.003   0.203  0.00  0.00    -0.450 OA
ATOM      3  O   UNL     1     -31.563  23.615  -0.375  0.00  0.00    -0.246 OA
ATOM      4  C   UNL     1     -35.444  22.230   0.263  0.00  0.00    +0.073 C 
ATOM      5  C   UNL     1     -35.430  21.693   1.719  0.00  0.00    +0.062 C 
ATOM      6  C   UNL     1     -35.971  22.685   2.850  0.00  0.00    +0.036 C 
ATOM      7  C   UNL     1     -34.469  21.405  -0.652  0.00  0.00    +0.060 C 
ATOM      8  C   UNL     1     -36.196  20.373   1.448  0.00  0.00    +0.209 C 
ATOM      9  C   UNL     1     -35.108  23.708   0.101  0.00  0.00    +0.172 C 
ATOM     10  C   UNL     1     -35.410  24.133   2.567  0.00  0.00    +0.024 C 
ATOM     11  C   UNL     1     -36.887  21.915  -0.164  0.00  0.00    +0.148 C 
ATOM     12  C   UNL     1     -34.849  19.886  -0.682  0.00  0.00    +0.036 C 
ATOM     13  C   UNL     1     -35.292  19.361   0.700  0.00  0.00    +0.161 C 
ATOM     14  C   UNL     1     -35.781  24.601   1.148  0.00  0.00    +0.048 C 
ATOM     15  C   UNL     1     -35.360  22.302   4.251  0.00  0.00    +0.142 C 
ATOM     16  C   UNL     1     -33.016  21.711  -0.285  0.00  0.00    +0.266 C 
ATOM     17  C   UNL     1     -37.521  22.694   2.960  0.00  0.00    +0.003 C 
ATOM     18  C   UNL     1     -35.712  25.130   3.682  0.00  0.00    -0.046 C 
ATOM     19  C   UNL     1     -35.767  23.275   5.375  0.00  0.00    +0.159 C 
ATOM     20  C   UNL     1     -33.824  18.957  -1.336  0.00  0.00    +0.003 C 
ATOM     21  C   UNL     1     -32.698  23.181  -0.188  0.00  0.00    +0.358 C 
ATOM     22  C   UNL     1     -35.851  24.710   4.953  0.00  0.00    -0.004 C 
ATOM     23  C   UNL     1     -35.767  26.597   3.365  0.00  0.00    +0.026 C 
ENDROOT
BRANCH   8  24
ATOM     24  O   UNL     1     -36.687  19.755   2.623  0.00  0.00    -0.362 OA
ATOM     25  H   UNL     1     -37.518  19.296   2.423  0.00  0.00    +0.213 HD
ENDBRANCH   8  24
BRANCH  13  26
ATOM     26  O   UNL     1     -34.152  19.051   1.500  0.00  0.00    -0.380 OA
ATOM     27  H   UNL     1     -34.041  18.088   1.545  0.00  0.00    +0.211 HD
ENDBRANCH  13  26
BRANCH  15  28
ATOM     28  O   UNL     1     -35.746  21.004   4.691  0.00  0.00    -0.382 OA
ATOM     29  H   UNL     1     -35.893  21.018   5.650  0.00  0.00    +0.210 HD
ENDBRANCH  15  28
BRANCH  19  30
ATOM     30  O   UNL     1     -34.812  23.180   6.434  0.00  0.00    -0.378 OA
ATOM     31  H   UNL     1     -35.159  22.602   7.131  0.00  0.00    +0.211 HD
ENDBRANCH  19  30
BRANCH  16  32
ATOM     32  O   UNL     1     -32.139  21.225  -1.298  0.00  0.00    -0.439 OA
BRANCH  32  34
ATOM     33  O   UNL     1     -30.929  19.835   0.083  0.00  0.00    -0.248 OA
ATOM     34  C   UNL     1     -30.995  20.619  -0.857  0.00  0.00    +0.342 C 
BRANCH  34  35
ATOM     35  C   UNL     1     -29.798  21.054  -1.699  0.00  0.00    +0.177 C 
ATOM     36  C   UNL     1     -28.782  19.917  -1.782  0.00  0.00    +0.041 C 
BRANCH  35  37
ATOM     37  O   UNL     1     -29.176  22.125  -0.992  0.00  0.00    -0.376 OA
ATOM     38  H   UNL     1     -29.050  21.871  -0.065  0.00  0.00    +0.211 HD
ENDBRANCH  35  37
BRANCH  35  39
ATOM     39  C   UNL     1     -30.268  21.552  -3.077  0.00  0.00    +0.038 C 
ATOM     40  C   UNL     1     -29.815  22.966  -3.420  0.00  0.00    +0.003 C 
ENDBRANCH  35  39
ENDBRANCH  34  35
ENDBRANCH  32  34
ENDBRANCH  16  32
TORSDOF 9
ENDMDL
MODEL 7
REMARK VINA RESULT:      -6.2      2.635      6.712
REMARK  Name = 56840806
REMARK  9 active torsions:
REMARK  status: ('A' for Active; 'I' for Inactive)
REMARK    1  A    between atoms: C_8  and  O_24
REMARK    2  A    between atoms: C_13  and  O_26
REMARK    3  A    between atoms: C_15  and  O_28
REMARK    4  A    between atoms: C_16  and  O_32
REMARK    5  A    between atoms: C_19  and  O_30
REMARK    6  A    between atoms: O_32  and  C_34
REMARK    7  A    between atoms: C_34  and  C_35
REMARK    8  A    between atoms: C_35  and  O_37
REMARK    9  A    between atoms: C_35  and  C_39
REMARK                            x       y       z     vdW  Elec       q    Type
REMARK                         _______ _______ _______ _____ _____    ______ ____
ROOT
ATOM      1  O   UNL     1     -37.725  26.290   2.286  0.00  0.00    -0.332 OA
ATOM      2  O   UNL     1     -33.735  24.483   0.171  0.00  0.00    -0.450 OA
ATOM      3  O   UNL     1     -33.121  22.333   0.052  0.00  0.00    -0.246 OA
ATOM      4  C   UNL     1     -35.865  25.248   1.220  0.00  0.00    +0.073 C 
ATOM      5  C   UNL     1     -35.504  25.550   2.700  0.00  0.00    +0.062 C 
ATOM      6  C   UNL     1     -34.571  26.821   2.960  0.00  0.00    +0.036 C 
ATOM      7  C   UNL     1     -36.342  23.761   1.048  0.00  0.00    +0.060 C 
ATOM      8  C   UNL     1     -36.951  25.553   3.257  0.00  0.00    +0.209 C 
ATOM      9  C   UNL     1     -34.760  25.511   0.204  0.00  0.00    +0.172 C 
ATOM     10  C   UNL     1     -33.423  26.840   1.877  0.00  0.00    +0.024 C 
ATOM     11  C   UNL     1     -37.078  26.170   1.008  0.00  0.00    +0.148 C 
ATOM     12  C   UNL     1     -37.594  23.448   1.937  0.00  0.00    +0.036 C 
ATOM     13  C   UNL     1     -37.511  24.109   3.328  0.00  0.00    +0.161 C 
ATOM     14  C   UNL     1     -34.007  26.822   0.453  0.00  0.00    +0.048 C 
ATOM     15  C   UNL     1     -33.807  26.667   4.329  0.00  0.00    +0.142 C 
ATOM     16  C   UNL     1     -35.160  22.805   1.220  0.00  0.00    +0.266 C 
ATOM     17  C   UNL     1     -35.357  28.161   2.968  0.00  0.00    +0.003 C 
ATOM     18  C   UNL     1     -32.363  27.907   2.133  0.00  0.00    -0.046 C 
ATOM     19  C   UNL     1     -32.817  27.816   4.602  0.00  0.00    +0.159 C 
ATOM     20  C   UNL     1     -37.985  21.972   2.037  0.00  0.00    +0.003 C 
ATOM     21  C   UNL     1     -33.943  23.174   0.412  0.00  0.00    +0.358 C 
ATOM     22  C   UNL     1     -32.098  28.317   3.387  0.00  0.00    -0.004 C 
ATOM     23  C   UNL     1     -31.555  28.436   0.982  0.00  0.00    +0.026 C 
ENDROOT
BRANCH   8  24
ATOM     24  O   UNL     1     -37.059  26.142   4.540  0.00  0.00    -0.362 OA
ATOM     25  H   UNL     1     -36.552  26.968   4.559  0.00  0.00    +0.213 HD
ENDBRANCH   8  24
BRANCH  13  26
ATOM     26  O   UNL     1     -36.705  23.323   4.203  0.00  0.00    -0.380 OA
ATOM     27  H   UNL     1     -36.795  22.385   3.971  0.00  0.00    +0.211 HD
ENDBRANCH  13  26
BRANCH  15  28
ATOM     28  O   UNL     1     -34.681  26.621   5.452  0.00  0.00    -0.382 OA
ATOM     29  H   UNL     1     -34.762  25.705   5.761  0.00  0.00    +0.210 HD
ENDBRANCH  15  28
BRANCH  19  30
ATOM     30  O   UNL     1     -31.838  27.367   5.542  0.00  0.00    -0.378 OA
ATOM     31  H   UNL     1     -32.280  26.925   6.283  0.00  0.00    +0.211 HD
ENDBRANCH  19  30
BRANCH  16  32
ATOM     32  O   UNL     1     -35.509  21.502   0.758  0.00  0.00    -0.439 OA
BRANCH  32  34
ATOM     33  O   UNL     1     -34.935  20.490   2.745  0.00  0.00    -0.248 OA
ATOM     34  C   UNL     1     -35.073  20.459   1.528  0.00  0.00    +0.342 C 
BRANCH  34  35
ATOM     35  C   UNL     1     -34.774  19.240   0.659  0.00  0.00    +0.177 C 
ATOM     36  C   UNL     1     -34.659  19.661  -0.804  0.00  0.00    +0.041 C 
BRANCH  35  37
ATOM     37  O   UNL     1     -35.910  18.383   0.763  0.00  0.00    -0.376 OA
ATOM     38  H   UNL     1     -36.615  18.837   1.250  0.00  0.00    +0.211 HD
ENDBRANCH  35  37
BRANCH  35  39
ATOM     39  C   UNL     1     -33.527  18.505   1.182  0.00  0.00    +0.038 C 
ATOM     40  C   UNL     1     -32.207  19.172   0.814  0.00  0.00    +0.003 C 
ENDBRANCH  35  39
ENDBRANCH  34  35
ENDBRANCH  32  34
ENDBRANCH  16  32
TORSDOF 9
ENDMDL
MODEL 8
REMARK VINA RESULT:      -6.1      4.205      7.660
REMARK  Name = 56840806
REMARK  9 active torsions:
REMARK  status: ('A' for Active; 'I' for Inactive)
REMARK    1  A    between atoms: C_8  and  O_24
REMARK    2  A    between atoms: C_13  and  O_26
REMARK    3  A    between atoms: C_15  and  O_28
REMARK    4  A    between atoms: C_16  and  O_32
REMARK    5  A    between atoms: C_19  and  O_30
REMARK    6  A    between atoms: O_32  and  C_34
REMARK    7  A    between atoms: C_34  and  C_35
REMARK    8  A    between atoms: C_35  and  O_37
REMARK    9  A    between atoms: C_35  and  C_39
REMARK                            x       y       z     vdW  Elec       q    Type
REMARK                         _______ _______ _______ _____ _____    ______ ____
ROOT
ATOM      1  O   UNL     1     -37.995  22.692   0.669  0.00  0.00    -0.332 OA
ATOM      2  O   UNL     1     -33.181  22.578  -0.015  0.00  0.00    -0.450 OA
ATOM      3  O   UNL     1     -31.854  20.775  -0.013  0.00  0.00    -0.246 OA
ATOM      4  C   UNL     1     -35.657  22.465   0.267  0.00  0.00    +0.073 C 
ATOM      5  C   UNL     1     -35.900  22.622   1.792  0.00  0.00    +0.062 C 
ATOM      6  C   UNL     1     -35.596  24.061   2.417  0.00  0.00    +0.036 C 
ATOM      7  C   UNL     1     -35.510  20.951  -0.128  0.00  0.00    +0.060 C 
ATOM      8  C   UNL     1     -37.355  22.085   1.813  0.00  0.00    +0.209 C 
ATOM      9  C   UNL     1     -34.455  23.218  -0.292  0.00  0.00    +0.172 C 
ATOM     10  C   UNL     1     -34.250  24.609   1.800  0.00  0.00    +0.024 C 
ATOM     11  C   UNL     1     -36.984  22.985  -0.310  0.00  0.00    +0.148 C 
ATOM     12  C   UNL     1     -36.784  20.126   0.257  0.00  0.00    +0.036 C 
ATOM     13  C   UNL     1     -37.372  20.548   1.621  0.00  0.00    +0.161 C 
ATOM     14  C   UNL     1     -34.320  24.640   0.262  0.00  0.00    +0.048 C 
ATOM     15  C   UNL     1     -35.290  23.934   3.957  0.00  0.00    +0.142 C 
ATOM     16  C   UNL     1     -34.185  20.395   0.398  0.00  0.00    +0.266 C 
ATOM     17  C   UNL     1     -36.759  25.071   2.215  0.00  0.00    +0.003 C 
ATOM     18  C   UNL     1     -33.761  25.897   2.456  0.00  0.00    -0.046 C 
ATOM     19  C   UNL     1     -34.896  25.274   4.609  0.00  0.00    +0.159 C 
ATOM     20  C   UNL     1     -36.650  18.605   0.148  0.00  0.00    +0.003 C 
ATOM     21  C   UNL     1     -32.985  21.249   0.079  0.00  0.00    +0.358 C 
ATOM     22  C   UNL     1     -34.058  26.163   3.741  0.00  0.00    -0.004 C 
ATOM     23  C   UNL     1     -32.873  26.829   1.681  0.00  0.00    +0.026 C 
ENDROOT
BRANCH   8  24
ATOM     24  O   UNL     1     -38.052  22.397   3.006  0.00  0.00    -0.362 OA
ATOM     25  H   UNL     1     -38.489  21.599   3.341  0.00  0.00    +0.213 HD
ENDBRANCH   8  24
BRANCH  13  26
ATOM     26  O   UNL     1     -36.656  19.921   2.683  0.00  0.00    -0.380 OA
ATOM     27  H   UNL     1     -36.365  19.039   2.401  0.00  0.00    +0.211 HD
ENDBRANCH  13  26
BRANCH  15  28
ATOM     28  O   UNL     1     -36.396  23.439   4.705  0.00  0.00    -0.382 OA
ATOM     29  H   UNL     1     -37.214  23.847   4.380  0.00  0.00    +0.210 HD
ENDBRANCH  15  28
BRANCH  19  30
ATOM     30  O   UNL     1     -34.165  25.007   5.807  0.00  0.00    -0.378 OA
ATOM     31  H   UNL     1     -34.489  25.580   6.518  0.00  0.00    +0.211 HD
ENDBRANCH  19  30
BRANCH  16  32
ATOM     32  O   UNL     1     -33.899  19.140  -0.216  0.00  0.00    -0.439 OA
BRANCH  32  34
ATOM     33  O   UNL     1     -33.114  18.329   1.792  0.00  0.00    -0.248 OA
ATOM     34  C   UNL     1     -33.315  18.202   0.589  0.00  0.00    +0.342 C 
BRANCH  34  35
ATOM     35  C   UNL     1     -32.939  16.962  -0.218  0.00  0.00    +0.177 C 
ATOM     36  C   UNL     1     -34.111  15.982  -0.239  0.00  0.00    +0.041 C 
BRANCH  35  37
ATOM     37  O   UNL     1     -31.873  16.328   0.488  0.00  0.00    -0.376 OA
ATOM     38  H   UNL     1     -31.550  16.920   1.185  0.00  0.00    +0.211 HD
ENDBRANCH  35  37
BRANCH  35  39
ATOM     39  C   UNL     1     -32.457  17.365  -1.622  0.00  0.00    +0.038 C 
ATOM     40  C   UNL     1     -30.980  17.732  -1.696  0.00  0.00    +0.003 C 
ENDBRANCH  35  39
ENDBRANCH  34  35
ENDBRANCH  32  34
ENDBRANCH  16  32
TORSDOF 9
ENDMDL
MODEL 9
REMARK VINA RESULT:      -6.0      3.303      6.607
REMARK  Name = 56840806
REMARK  9 active torsions:
REMARK  status: ('A' for Active; 'I' for Inactive)
REMARK    1  A    between atoms: C_8  and  O_24
REMARK    2  A    between atoms: C_13  and  O_26
REMARK    3  A    between atoms: C_15  and  O_28
REMARK    4  A    between atoms: C_16  and  O_32
REMARK    5  A    between atoms: C_19  and  O_30
REMARK    6  A    between atoms: O_32  and  C_34
REMARK    7  A    between atoms: C_34  and  C_35
REMARK    8  A    between atoms: C_35  and  O_37
REMARK    9  A    between atoms: C_35  and  C_39
REMARK                            x       y       z     vdW  Elec       q    Type
REMARK                         _______ _______ _______ _____ _____    ______ ____
ROOT
ATOM      1  O   UNL     1     -37.210  22.710   0.095  0.00  0.00    -0.332 OA
ATOM      2  O   UNL     1     -33.412  25.416   1.475  0.00  0.00    -0.450 OA
ATOM      3  O   UNL     1     -31.314  25.302   0.701  0.00  0.00    -0.246 OA
ATOM      4  C   UNL     1     -35.279  24.011   0.601  0.00  0.00    +0.073 C 
ATOM      5  C   UNL     1     -35.300  22.752   1.509  0.00  0.00    +0.062 C 
ATOM      6  C   UNL     1     -35.775  22.971   3.020  0.00  0.00    +0.036 C 
ATOM      7  C   UNL     1     -34.360  23.787  -0.654  0.00  0.00    +0.060 C 
ATOM      8  C   UNL     1     -36.152  21.854   0.576  0.00  0.00    +0.209 C 
ATOM      9  C   UNL     1     -34.846  25.307   1.278  0.00  0.00    +0.172 C 
ATOM     10  C   UNL     1     -35.119  24.297   3.571  0.00  0.00    +0.024 C 
ATOM     11  C   UNL     1     -36.740  24.068   0.124  0.00  0.00    +0.148 C 
ATOM     12  C   UNL     1     -34.840  22.566  -1.511  0.00  0.00    +0.036 C 
ATOM     13  C   UNL     1     -35.316  21.384  -0.641  0.00  0.00    +0.161 C 
ATOM     14  C   UNL     1     -35.459  25.498   2.669  0.00  0.00    +0.048 C 
ATOM     15  C   UNL     1     -35.190  21.838   3.946  0.00  0.00    +0.142 C 
ATOM     16  C   UNL     1     -32.890  23.755  -0.232  0.00  0.00    +0.266 C 
ATOM     17  C   UNL     1     -37.320  23.002   3.174  0.00  0.00    +0.003 C 
ATOM     18  C   UNL     1     -35.354  24.516   5.063  0.00  0.00    -0.046 C 
ATOM     19  C   UNL     1     -35.532  22.038   5.435  0.00  0.00    +0.159 C 
ATOM     20  C   UNL     1     -33.878  22.107  -2.609  0.00  0.00    +0.003 C 
ATOM     21  C   UNL     1     -32.476  24.900   0.656  0.00  0.00    +0.358 C 
ATOM     22  C   UNL     1     -35.521  23.466   5.888  0.00  0.00    -0.004 C 
ATOM     23  C   UNL     1     -35.313  25.910   5.620  0.00  0.00    +0.026 C 
ENDROOT
BRANCH   8  24
ATOM     24  O   UNL     1     -36.682  20.712   1.225  0.00  0.00    -0.362 OA
ATOM     25  H   UNL     1     -36.244  20.596   2.082  0.00  0.00    +0.213 HD
ENDBRANCH   8  24
BRANCH  13  26
ATOM     26  O   UNL     1     -34.199  20.619  -0.193  0.00  0.00    -0.380 OA
ATOM     27  H   UNL     1     -34.499  19.736   0.077  0.00  0.00    +0.211 HD
ENDBRANCH  13  26
BRANCH  15  28
ATOM     28  O   UNL     1     -35.661  20.540   3.601  0.00  0.00    -0.382 OA
ATOM     29  H   UNL     1     -36.438  20.620   3.027  0.00  0.00    +0.210 HD
ENDBRANCH  15  28
BRANCH  19  30
ATOM     30  O   UNL     1     -34.585  21.316   6.226  0.00  0.00    -0.378 OA
ATOM     31  H   UNL     1     -33.979  21.940   6.654  0.00  0.00    +0.211 HD
ENDBRANCH  19  30
BRANCH  16  32
ATOM     32  O   UNL     1     -32.047  23.871  -1.376  0.00  0.00    -0.439 OA
BRANCH  32  34
ATOM     33  O   UNL     1     -30.805  22.006  -0.844  0.00  0.00    -0.248 OA
ATOM     34  C   UNL     1     -30.908  23.115  -1.357  0.00  0.00    +0.342 C 
BRANCH  34  35
ATOM     35  C   UNL     1     -29.768  23.844  -2.064  0.00  0.00    +0.177 C 
ATOM     36  C   UNL     1     -28.751  22.832  -2.588  0.00  0.00    +0.041 C 
BRANCH  35  37
ATOM     37  O   UNL     1     -29.110  24.626  -1.069  0.00  0.00    -0.376 OA
ATOM     38  H   UNL     1     -28.340  24.143  -0.734  0.00  0.00    +0.211 HD
ENDBRANCH  35  37
BRANCH  35  39
ATOM     39  C   UNL     1     -30.325  24.769  -3.160  0.00  0.00    +0.038 C 
ATOM     40  C   UNL     1     -30.464  24.109  -4.526  0.00  0.00    +0.003 C 
ENDBRANCH  35  39
ENDBRANCH  34  35
ENDBRANCH  32  34
ENDBRANCH  16  32
TORSDOF 9
ENDMDL
