MODEL 1
REMARK VINA RESULT:      -6.7      0.000      0.000
REMARK  Name = 54021277
REMARK  5 active torsions:
REMARK  status: ('A' for Active; 'I' for Inactive)
REMARK    1  A    between atoms: C_2  and  N_16
REMARK    2  A    between atoms: C_3  and  O_20
REMARK    3  A    between atoms: C_4  and  N_9
REMARK    4  A    between atoms: C_5  and  C_22
REMARK    5  A    between atoms: C_22  and  O_23
REMARK                            x       y       z     vdW  Elec       q    Type
REMARK                         _______ _______ _______ _____ _____    ______ ____
ROOT
ATOM      1  O   UNL     1     -35.197  22.832   3.995  0.00  0.00    -0.337 OA
ATOM      2  C   UNL     1     -36.611  24.626   4.662  0.00  0.00    +0.012 C 
ATOM      3  C   UNL     1     -35.369  24.624   5.538  0.00  0.00    +0.124 C 
ATOM      4  C   UNL     1     -36.179  23.753   3.489  0.00  0.00    +0.182 C 
ATOM      5  C   UNL     1     -34.834  23.209   5.340  0.00  0.00    +0.171 C 
ENDROOT
BRANCH   4   9
ATOM      6  F   UNL     1     -40.697  23.701   1.946  0.00  0.00    -0.198 F 
ATOM      7  O   UNL     1     -36.089  20.993   2.764  0.00  0.00    -0.252 OA
ATOM      8  O   UNL     1     -40.467  21.070   1.306  0.00  0.00    -0.267 OA
ATOM      9  N   UNL     1     -37.266  23.009   2.918  0.00  0.00    -0.218 N 
ATOM     10  N   UNL     1     -38.268  21.031   2.039  0.00  0.00    -0.234 N 
ATOM     11  C   UNL     1     -37.127  21.637   2.589  0.00  0.00    +0.315 C 
ATOM     12  C   UNL     1     -38.473  23.661   2.688  0.00  0.00    +0.105 C 
ATOM     13  C   UNL     1     -39.537  23.058   2.163  0.00  0.00    +0.208 C 
ATOM     14  C   UNL     1     -39.493  21.636   1.790  0.00  0.00    +0.282 C 
ATOM     15  H   UNL     1     -38.192  20.079   1.804  0.00  0.00    +0.159 HD
ENDBRANCH   4   9
BRANCH   2  16
ATOM     16  N   UNL     1     -37.049  25.951   4.257  0.00  0.00    +0.386 N 
ATOM     17  H   UNL     1     -36.645  26.648   4.883  0.00  0.00    -0.089 HD
ATOM     18  H   UNL     1     -38.067  26.002   4.304  0.00  0.00    -0.089 HD
ATOM     19  H   UNL     1     -36.742  26.133   3.302  0.00  0.00    -0.089 HD
ENDBRANCH   2  16
BRANCH   3  20
ATOM     20  O   UNL     1     -34.394  25.553   5.063  0.00  0.00    -0.384 OA
ATOM     21  H   UNL     1     -34.771  26.074   4.337  0.00  0.00    +0.210 HD
ENDBRANCH   3  20
BRANCH   5  22
ATOM     22  C   UNL     1     -35.447  22.195   6.297  0.00  0.00    +0.169 C 
BRANCH  22  23
ATOM     23  O   UNL     1     -35.352  20.907   5.714  0.00  0.00    -0.379 OA
ATOM     24  H   UNL     1     -34.993  20.984   4.817  0.00  0.00    +0.211 HD
ENDBRANCH  22  23
ENDBRANCH   5  22
TORSDOF 5
ENDMDL
MODEL 2
REMARK VINA RESULT:      -6.6      1.733      2.262
REMARK  Name = 54021277
REMARK  5 active torsions:
REMARK  status: ('A' for Active; 'I' for Inactive)
REMARK    1  A    between atoms: C_2  and  N_16
REMARK    2  A    between atoms: C_3  and  O_20
REMARK    3  A    between atoms: C_4  and  N_9
REMARK    4  A    between atoms: C_5  and  C_22
REMARK    5  A    between atoms: C_22  and  O_23
REMARK                            x       y       z     vdW  Elec       q    Type
REMARK                         _______ _______ _______ _____ _____    ______ ____
ROOT
ATOM      1  O   UNL     1     -35.344  23.425   3.657  0.00  0.00    -0.337 OA
ATOM      2  C   UNL     1     -36.224  25.191   4.988  0.00  0.00    +0.012 C 
ATOM      3  C   UNL     1     -34.967  24.650   5.651  0.00  0.00    +0.124 C 
ATOM      4  C   UNL     1     -36.097  24.647   3.569  0.00  0.00    +0.182 C 
ATOM      5  C   UNL     1     -34.814  23.284   4.992  0.00  0.00    +0.171 C 
ENDROOT
BRANCH   4   9
ATOM      6  F   UNL     1     -39.361  21.405   2.289  0.00  0.00    -0.198 F 
ATOM      7  O   UNL     1     -37.870  26.599   2.474  0.00  0.00    -0.252 OA
ATOM      8  O   UNL     1     -40.947  23.371   1.285  0.00  0.00    -0.267 OA
ATOM      9  N   UNL     1     -37.369  24.368   2.964  0.00  0.00    -0.218 N 
ATOM     10  N   UNL     1     -39.400  24.993   1.882  0.00  0.00    -0.234 N 
ATOM     11  C   UNL     1     -38.183  25.406   2.446  0.00  0.00    +0.315 C 
ATOM     12  C   UNL     1     -37.798  23.046   2.892  0.00  0.00    +0.105 C 
ATOM     13  C   UNL     1     -38.959  22.686   2.351  0.00  0.00    +0.208 C 
ATOM     14  C   UNL     1     -39.874  23.690   1.786  0.00  0.00    +0.282 C 
ATOM     15  H   UNL     1     -39.980  25.699   1.517  0.00  0.00    +0.159 HD
ENDBRANCH   4   9
BRANCH   2  16
ATOM     16  N   UNL     1     -36.344  26.638   5.036  0.00  0.00    +0.386 N 
ATOM     17  H   UNL     1     -35.544  27.029   5.533  0.00  0.00    -0.089 HD
ATOM     18  H   UNL     1     -37.204  26.892   5.523  0.00  0.00    -0.089 HD
ATOM     19  H   UNL     1     -36.369  27.009   4.086  0.00  0.00    -0.089 HD
ENDBRANCH   2  16
BRANCH   3  20
ATOM     20  O   UNL     1     -33.826  25.445   5.330  0.00  0.00    -0.384 OA
ATOM     21  H   UNL     1     -34.103  26.212   4.805  0.00  0.00    +0.210 HD
ENDBRANCH   3  20
BRANCH   5  22
ATOM     22  C   UNL     1     -35.597  22.184   5.699  0.00  0.00    +0.169 C 
BRANCH  22  23
ATOM     23  O   UNL     1     -34.859  20.977   5.614  0.00  0.00    -0.379 OA
ATOM     24  H   UNL     1     -35.397  20.299   5.176  0.00  0.00    +0.211 HD
ENDBRANCH  22  23
ENDBRANCH   5  22
TORSDOF 5
ENDMDL
MODEL 3
REMARK VINA RESULT:      -6.5      3.379      6.012
REMARK  Name = 54021277
REMARK  5 active torsions:
REMARK  status: ('A' for Active; 'I' for Inactive)
REMARK    1  A    between atoms: C_2  and  N_16
REMARK    2  A    between atoms: C_3  and  O_20
REMARK    3  A    between atoms: C_4  and  N_9
REMARK    4  A    between atoms: C_5  and  C_22
REMARK    5  A    between atoms: C_22  and  O_23
REMARK                            x       y       z     vdW  Elec       q    Type
REMARK                         _______ _______ _______ _____ _____    ______ ____
ROOT
ATOM      1  O   UNL     1     -36.240  24.167   5.469  0.00  0.00    -0.337 OA
ATOM      2  C   UNL     1     -35.351  23.762   3.300  0.00  0.00    +0.012 C 
ATOM      3  C   UNL     1     -36.073  22.513   3.779  0.00  0.00    +0.124 C 
ATOM      4  C   UNL     1     -35.897  24.831   4.240  0.00  0.00    +0.182 C 
ATOM      5  C   UNL     1     -36.147  22.739   5.285  0.00  0.00    +0.171 C 
ENDROOT
BRANCH   4   9
ATOM      6  F   UNL     1     -32.683  26.687   7.245  0.00  0.00    -0.198 F 
ATOM      7  O   UNL     1     -35.276  27.016   2.511  0.00  0.00    -0.252 OA
ATOM      8  O   UNL     1     -32.195  28.713   5.499  0.00  0.00    -0.267 OA
ATOM      9  N   UNL     1     -34.943  25.867   4.520  0.00  0.00    -0.218 N 
ATOM     10  N   UNL     1     -33.743  27.861   3.998  0.00  0.00    -0.234 N 
ATOM     11  C   UNL     1     -34.700  26.915   3.597  0.00  0.00    +0.315 C 
ATOM     12  C   UNL     1     -34.249  25.827   5.725  0.00  0.00    +0.105 C 
ATOM     13  C   UNL     1     -33.346  26.739   6.076  0.00  0.00    +0.208 C 
ATOM     14  C   UNL     1     -33.025  27.866   5.187  0.00  0.00    +0.282 C 
ATOM     15  H   UNL     1     -33.561  28.597   3.371  0.00  0.00    +0.159 HD
ENDBRANCH   4   9
BRANCH   2  16
ATOM     16  N   UNL     1     -35.569  24.071   1.896  0.00  0.00    +0.386 N 
ATOM     17  H   UNL     1     -34.714  23.887   1.372  0.00  0.00    -0.089 HD
ATOM     18  H   UNL     1     -35.821  25.055   1.801  0.00  0.00    -0.089 HD
ATOM     19  H   UNL     1     -36.323  23.489   1.534  0.00  0.00    -0.089 HD
ENDBRANCH   2  16
BRANCH   3  20
ATOM     20  O   UNL     1     -37.402  22.449   3.260  0.00  0.00    -0.384 OA
ATOM     21  H   UNL     1     -37.503  23.101   2.549  0.00  0.00    +0.210 HD
ENDBRANCH   3  20
BRANCH   5  22
ATOM     22  C   UNL     1     -34.911  22.246   6.028  0.00  0.00    +0.169 C 
BRANCH  22  23
ATOM     23  O   UNL     1     -34.831  20.837   5.888  0.00  0.00    -0.379 OA
ATOM     24  H   UNL     1     -34.678  20.434   6.757  0.00  0.00    +0.211 HD
ENDBRANCH  22  23
ENDBRANCH   5  22
TORSDOF 5
ENDMDL
MODEL 4
REMARK VINA RESULT:      -6.2      3.060      4.158
REMARK  Name = 54021277
REMARK  5 active torsions:
REMARK  status: ('A' for Active; 'I' for Inactive)
REMARK    1  A    between atoms: C_2  and  N_16
REMARK    2  A    between atoms: C_3  and  O_20
REMARK    3  A    between atoms: C_4  and  N_9
REMARK    4  A    between atoms: C_5  and  C_22
REMARK    5  A    between atoms: C_22  and  O_23
REMARK                            x       y       z     vdW  Elec       q    Type
REMARK                         _______ _______ _______ _____ _____    ______ ____
ROOT
ATOM      1  O   UNL     1     -34.913  26.088   1.725  0.00  0.00    -0.337 OA
ATOM      2  C   UNL     1     -35.240  26.242   4.076  0.00  0.00    +0.012 C 
ATOM      3  C   UNL     1     -34.452  27.454   3.606  0.00  0.00    +0.124 C 
ATOM      4  C   UNL     1     -35.825  25.712   2.772  0.00  0.00    +0.182 C 
ATOM      5  C   UNL     1     -33.920  26.991   2.255  0.00  0.00    +0.171 C 
ENDROOT
BRANCH   4   9
ATOM      6  F   UNL     1     -34.162  21.456   1.387  0.00  0.00    -0.198 F 
ATOM      7  O   UNL     1     -37.937  24.273   4.043  0.00  0.00    -0.252 OA
ATOM      8  O   UNL     1     -36.231  20.219   2.644  0.00  0.00    -0.267 OA
ATOM      9  N   UNL     1     -35.977  24.285   2.768  0.00  0.00    -0.218 N 
ATOM     10  N   UNL     1     -37.088  22.256   3.346  0.00  0.00    -0.234 N 
ATOM     11  C   UNL     1     -37.062  23.657   3.430  0.00  0.00    +0.315 C 
ATOM     12  C   UNL     1     -35.031  23.515   2.098  0.00  0.00    +0.105 C 
ATOM     13  C   UNL     1     -35.084  22.187   2.038  0.00  0.00    +0.208 C 
ATOM     14  C   UNL     1     -36.172  21.443   2.692  0.00  0.00    +0.282 C 
ATOM     15  H   UNL     1     -37.834  21.801   3.799  0.00  0.00    +0.159 HD
ENDBRANCH   4   9
BRANCH   2  16
ATOM     16  N   UNL     1     -36.253  26.544   5.075  0.00  0.00    +0.386 N 
ATOM     17  H   UNL     1     -36.556  25.680   5.522  0.00  0.00    -0.089 HD
ATOM     18  H   UNL     1     -37.051  26.992   4.624  0.00  0.00    -0.089 HD
ATOM     19  H   UNL     1     -35.861  27.172   5.776  0.00  0.00    -0.089 HD
ENDBRANCH   2  16
BRANCH   3  20
ATOM     20  O   UNL     1     -35.304  28.582   3.401  0.00  0.00    -0.384 OA
ATOM     21  H   UNL     1     -35.434  29.046   4.243  0.00  0.00    +0.210 HD
ENDBRANCH   3  20
BRANCH   5  22
ATOM     22  C   UNL     1     -32.600  26.237   2.355  0.00  0.00    +0.169 C 
BRANCH  22  23
ATOM     23  O   UNL     1     -31.828  26.811   3.396  0.00  0.00    -0.379 OA
ATOM     24  H   UNL     1     -31.806  27.775   3.289  0.00  0.00    +0.211 HD
ENDBRANCH  22  23
ENDBRANCH   5  22
TORSDOF 5
ENDMDL
MODEL 5
REMARK VINA RESULT:      -6.2      1.503      2.123
REMARK  Name = 54021277
REMARK  5 active torsions:
REMARK  status: ('A' for Active; 'I' for Inactive)
REMARK    1  A    between atoms: C_2  and  N_16
REMARK    2  A    between atoms: C_3  and  O_20
REMARK    3  A    between atoms: C_4  and  N_9
REMARK    4  A    between atoms: C_5  and  C_22
REMARK    5  A    between atoms: C_22  and  O_23
REMARK                            x       y       z     vdW  Elec       q    Type
REMARK                         _______ _______ _______ _____ _____    ______ ____
ROOT
ATOM      1  O   UNL     1     -35.419  23.369   4.562  0.00  0.00    -0.337 OA
ATOM      2  C   UNL     1     -35.394  24.776   2.643  0.00  0.00    +0.012 C 
ATOM      3  C   UNL     1     -34.569  25.425   3.743  0.00  0.00    +0.124 C 
ATOM      4  C   UNL     1     -35.496  23.334   3.126  0.00  0.00    +0.182 C 
ATOM      5  C   UNL     1     -35.064  24.701   4.991  0.00  0.00    +0.171 C 
ENDROOT
BRANCH   4   9
ATOM      6  F   UNL     1     -40.199  23.716   2.392  0.00  0.00    -0.198 F 
ATOM      7  O   UNL     1     -35.779  20.600   2.352  0.00  0.00    -0.252 OA
ATOM      8  O   UNL     1     -40.318  21.096   1.678  0.00  0.00    -0.267 OA
ATOM      9  N   UNL     1     -36.727  22.703   2.741  0.00  0.00    -0.218 N 
ATOM     10  N   UNL     1     -38.038  20.847   2.018  0.00  0.00    -0.234 N 
ATOM     11  C   UNL     1     -36.770  21.335   2.371  0.00  0.00    +0.315 C 
ATOM     12  C   UNL     1     -37.892  23.462   2.735  0.00  0.00    +0.105 C 
ATOM     13  C   UNL     1     -39.080  22.969   2.393  0.00  0.00    +0.208 C 
ATOM     14  C   UNL     1     -39.229  21.561   1.995  0.00  0.00    +0.282 C 
ATOM     15  H   UNL     1     -38.089  19.899   1.758  0.00  0.00    +0.159 HD
ENDBRANCH   4   9
BRANCH   2  16
ATOM     16  N   UNL     1     -34.811  24.894   1.317  0.00  0.00    +0.386 N 
ATOM     17  H   UNL     1     -35.487  25.324   0.686  0.00  0.00    -0.089 HD
ATOM     18  H   UNL     1     -34.565  23.966   0.970  0.00  0.00    -0.089 HD
ATOM     19  H   UNL     1     -33.973  25.473   1.364  0.00  0.00    -0.089 HD
ENDBRANCH   2  16
BRANCH   3  20
ATOM     20  O   UNL     1     -33.176  25.155   3.578  0.00  0.00    -0.384 OA
ATOM     21  H   UNL     1     -33.060  24.254   3.239  0.00  0.00    +0.210 HD
ENDBRANCH   3  20
BRANCH   5  22
ATOM     22  C   UNL     1     -36.298  25.344   5.609  0.00  0.00    +0.169 C 
BRANCH  22  23
ATOM     23  O   UNL     1     -36.319  26.717   5.256  0.00  0.00    -0.379 OA
ATOM     24  H   UNL     1     -35.535  26.926   4.724  0.00  0.00    +0.211 HD
ENDBRANCH  22  23
ENDBRANCH   5  22
TORSDOF 5
ENDMDL
MODEL 6
REMARK VINA RESULT:      -6.1      2.584      5.303
REMARK  Name = 54021277
REMARK  5 active torsions:
REMARK  status: ('A' for Active; 'I' for Inactive)
REMARK    1  A    between atoms: C_2  and  N_16
REMARK    2  A    between atoms: C_3  and  O_20
REMARK    3  A    between atoms: C_4  and  N_9
REMARK    4  A    between atoms: C_5  and  C_22
REMARK    5  A    between atoms: C_22  and  O_23
REMARK                            x       y       z     vdW  Elec       q    Type
REMARK                         _______ _______ _______ _____ _____    ______ ____
ROOT
ATOM      1  O   UNL     1     -38.434  22.166   2.545  0.00  0.00    -0.337 OA
ATOM      2  C   UNL     1     -37.775  23.577   0.746  0.00  0.00    +0.012 C 
ATOM      3  C   UNL     1     -38.177  22.221   0.189  0.00  0.00    +0.124 C 
ATOM      4  C   UNL     1     -38.387  23.546   2.142  0.00  0.00    +0.182 C 
ATOM      5  C   UNL     1     -38.095  21.326   1.421  0.00  0.00    +0.171 C 
ENDROOT
BRANCH   4   9
ATOM      6  F   UNL     1     -34.955  23.554   5.461  0.00  0.00    -0.198 F 
ATOM      7  O   UNL     1     -38.675  26.333   2.691  0.00  0.00    -0.252 OA
ATOM      8  O   UNL     1     -35.341  26.213   5.879  0.00  0.00    -0.267 OA
ATOM      9  N   UNL     1     -37.621  24.287   3.103  0.00  0.00    -0.218 N 
ATOM     10  N   UNL     1     -37.016  26.273   4.278  0.00  0.00    -0.234 N 
ATOM     11  C   UNL     1     -37.835  25.673   3.307  0.00  0.00    +0.315 C 
ATOM     12  C   UNL     1     -36.651  23.617   3.842  0.00  0.00    +0.105 C 
ATOM     13  C   UNL     1     -35.889  24.215   4.755  0.00  0.00    +0.208 C 
ATOM     14  C   UNL     1     -36.036  25.650   5.040  0.00  0.00    +0.282 C 
ATOM     15  H   UNL     1     -37.150  27.235   4.434  0.00  0.00    +0.159 HD
ENDBRANCH   4   9
BRANCH   2  16
ATOM     16  N   UNL     1     -38.229  24.704  -0.052  0.00  0.00    +0.386 N 
ATOM     17  H   UNL     1     -38.469  25.481   0.563  0.00  0.00    -0.089 HD
ATOM     18  H   UNL     1     -39.052  24.429  -0.589  0.00  0.00    -0.089 HD
ATOM     19  H   UNL     1     -37.486  24.990  -0.689  0.00  0.00    -0.089 HD
ENDBRANCH   2  16
BRANCH   3  20
ATOM     20  O   UNL     1     -39.524  22.230  -0.282  0.00  0.00    -0.384 OA
ATOM     21  H   UNL     1     -39.532  22.397  -1.237  0.00  0.00    +0.210 HD
ENDBRANCH   3  20
BRANCH   5  22
ATOM     22  C   UNL     1     -36.702  20.757   1.660  0.00  0.00    +0.169 C 
BRANCH  22  23
ATOM     23  O   UNL     1     -36.771  19.816   2.717  0.00  0.00    -0.379 OA
ATOM     24  H   UNL     1     -35.923  19.354   2.795  0.00  0.00    +0.211 HD
ENDBRANCH  22  23
ENDBRANCH   5  22
TORSDOF 5
ENDMDL
MODEL 7
REMARK VINA RESULT:      -6.1      2.683      5.445
REMARK  Name = 54021277
REMARK  5 active torsions:
REMARK  status: ('A' for Active; 'I' for Inactive)
REMARK    1  A    between atoms: C_2  and  N_16
REMARK    2  A    between atoms: C_3  and  O_20
REMARK    3  A    between atoms: C_4  and  N_9
REMARK    4  A    between atoms: C_5  and  C_22
REMARK    5  A    between atoms: C_22  and  O_23
REMARK                            x       y       z     vdW  Elec       q    Type
REMARK                         _______ _______ _______ _____ _____    ______ ____
ROOT
ATOM      1  O   UNL     1     -34.645  20.150   2.415  0.00  0.00    -0.337 OA
ATOM      2  C   UNL     1     -36.756  21.052   1.789  0.00  0.00    +0.012 C 
ATOM      3  C   UNL     1     -36.368  19.966   0.797  0.00  0.00    +0.124 C 
ATOM      4  C   UNL     1     -35.826  20.764   2.961  0.00  0.00    +0.182 C 
ATOM      5  C   UNL     1     -34.865  19.844   1.022  0.00  0.00    +0.171 C 
ENDROOT
BRANCH   4   9
ATOM      6  F   UNL     1     -34.738  25.411   2.828  0.00  0.00    -0.198 F 
ATOM      7  O   UNL     1     -35.405  20.931   5.780  0.00  0.00    -0.252 OA
ATOM      8  O   UNL     1     -34.371  25.421   5.521  0.00  0.00    -0.267 OA
ATOM      9  N   UNL     1     -35.446  21.950   3.676  0.00  0.00    -0.218 N 
ATOM     10  N   UNL     1     -34.890  23.165   5.651  0.00  0.00    -0.234 N 
ATOM     11  C   UNL     1     -35.260  21.936   5.081  0.00  0.00    +0.315 C 
ATOM     12  C   UNL     1     -35.262  23.129   2.961  0.00  0.00    +0.105 C 
ATOM     13  C   UNL     1     -34.911  24.279   3.532  0.00  0.00    +0.208 C 
ATOM     14  C   UNL     1     -34.694  24.367   4.984  0.00  0.00    +0.282 C 
ATOM     15  H   UNL     1     -34.755  23.176   6.625  0.00  0.00    +0.159 HD
ENDBRANCH   4   9
BRANCH   2  16
ATOM     16  N   UNL     1     -38.162  21.041   2.159  0.00  0.00    +0.386 N 
ATOM     17  H   UNL     1     -38.579  21.944   1.934  0.00  0.00    -0.089 HD
ATOM     18  H   UNL     1     -38.247  20.868   3.161  0.00  0.00    -0.089 HD
ATOM     19  H   UNL     1     -38.643  20.305   1.644  0.00  0.00    -0.089 HD
ENDBRANCH   2  16
BRANCH   3  20
ATOM     20  O   UNL     1     -36.983  18.719   1.123  0.00  0.00    -0.384 OA
ATOM     21  H   UNL     1     -37.420  18.359   0.335  0.00  0.00    +0.210 HD
ENDBRANCH   3  20
BRANCH   5  22
ATOM     22  C   UNL     1     -34.051  20.824   0.187  0.00  0.00    +0.169 C 
BRANCH  22  23
ATOM     23  O   UNL     1     -32.674  20.545   0.376  0.00  0.00    -0.379 OA
ATOM     24  H   UNL     1     -32.364  19.955  -0.329  0.00  0.00    +0.211 HD
ENDBRANCH  22  23
ENDBRANCH   5  22
TORSDOF 5
ENDMDL
MODEL 8
REMARK VINA RESULT:      -6.0      2.802      3.623
REMARK  Name = 54021277
REMARK  5 active torsions:
REMARK  status: ('A' for Active; 'I' for Inactive)
REMARK    1  A    between atoms: C_2  and  N_16
REMARK    2  A    between atoms: C_3  and  O_20
REMARK    3  A    between atoms: C_4  and  N_9
REMARK    4  A    between atoms: C_5  and  C_22
REMARK    5  A    between atoms: C_22  and  O_23
REMARK                            x       y       z     vdW  Elec       q    Type
REMARK                         _______ _______ _______ _____ _____    ______ ____
ROOT
ATOM      1  O   UNL     1     -36.456  24.541   2.872  0.00  0.00    -0.337 OA
ATOM      2  C   UNL     1     -35.610  23.385   4.771  0.00  0.00    +0.012 C 
ATOM      3  C   UNL     1     -35.304  24.867   4.917  0.00  0.00    +0.124 C 
ATOM      4  C   UNL     1     -36.689  23.385   3.694  0.00  0.00    +0.182 C 
ATOM      5  C   UNL     1     -35.447  25.371   3.485  0.00  0.00    +0.171 C 
ENDROOT
BRANCH   4   9
ATOM      6  F   UNL     1     -34.169  19.714   1.968  0.00  0.00    -0.198 F 
ATOM      7  O   UNL     1     -38.881  22.357   2.181  0.00  0.00    -0.252 OA
ATOM      8  O   UNL     1     -36.342  18.853   0.579  0.00  0.00    -0.267 OA
ATOM      9  N   UNL     1     -36.651  22.211   2.868  0.00  0.00    -0.218 N 
ATOM     10  N   UNL     1     -37.617  20.614   1.384  0.00  0.00    -0.234 N 
ATOM     11  C   UNL     1     -37.794  21.776   2.152  0.00  0.00    +0.315 C 
ATOM     12  C   UNL     1     -35.461  21.495   2.780  0.00  0.00    +0.105 C 
ATOM     13  C   UNL     1     -35.326  20.396   2.043  0.00  0.00    +0.208 C 
ATOM     14  C   UNL     1     -36.454  19.865   1.262  0.00  0.00    +0.282 C 
ATOM     15  H   UNL     1     -38.399  20.296   0.879  0.00  0.00    +0.159 HD
ENDBRANCH   4   9
BRANCH   2  16
ATOM     16  N   UNL     1     -36.035  22.743   6.005  0.00  0.00    +0.386 N 
ATOM     17  H   UNL     1     -36.809  22.110   5.809  0.00  0.00    -0.089 HD
ATOM     18  H   UNL     1     -36.337  23.455   6.671  0.00  0.00    -0.089 HD
ATOM     19  H   UNL     1     -35.256  22.217   6.399  0.00  0.00    -0.089 HD
ENDBRANCH   2  16
BRANCH   3  20
ATOM     20  O   UNL     1     -36.275  25.522   5.734  0.00  0.00    -0.384 OA
ATOM     21  H   UNL     1     -36.113  26.479   5.725  0.00  0.00    +0.210 HD
ENDBRANCH   3  20
BRANCH   5  22
ATOM     22  C   UNL     1     -34.167  25.240   2.671  0.00  0.00    +0.169 C 
BRANCH  22  23
ATOM     23  O   UNL     1     -33.062  25.507   3.517  0.00  0.00    -0.379 OA
ATOM     24  H   UNL     1     -32.666  26.358   3.274  0.00  0.00    +0.211 HD
ENDBRANCH  22  23
ENDBRANCH   5  22
TORSDOF 5
ENDMDL
MODEL 9
REMARK VINA RESULT:      -6.0      2.520      5.135
REMARK  Name = 54021277
REMARK  5 active torsions:
REMARK  status: ('A' for Active; 'I' for Inactive)
REMARK    1  A    between atoms: C_2  and  N_16
REMARK    2  A    between atoms: C_3  and  O_20
REMARK    3  A    between atoms: C_4  and  N_9
REMARK    4  A    between atoms: C_5  and  C_22
REMARK    5  A    between atoms: C_22  and  O_23
REMARK                            x       y       z     vdW  Elec       q    Type
REMARK                         _______ _______ _______ _____ _____    ______ ____
ROOT
ATOM      1  O   UNL     1     -38.108  24.472   1.664  0.00  0.00    -0.337 OA
ATOM      2  C   UNL     1     -39.526  22.632   2.177  0.00  0.00    +0.012 C 
ATOM      3  C   UNL     1     -40.343  23.705   1.476  0.00  0.00    +0.124 C 
ATOM      4  C   UNL     1     -38.098  23.045   1.842  0.00  0.00    +0.182 C 
ATOM      5  C   UNL     1     -39.472  24.944   1.653  0.00  0.00    +0.171 C 
ENDROOT
BRANCH   4   9
ATOM      6  F   UNL     1     -35.787  24.373   5.804  0.00  0.00    -0.198 F 
ATOM      7  O   UNL     1     -36.717  20.558   2.087  0.00  0.00    -0.252 OA
ATOM      8  O   UNL     1     -34.544  21.958   5.910  0.00  0.00    -0.267 OA
ATOM      9  N   UNL     1     -37.163  22.712   2.880  0.00  0.00    -0.218 N 
ATOM     10  N   UNL     1     -35.635  21.255   3.989  0.00  0.00    -0.234 N 
ATOM     11  C   UNL     1     -36.525  21.447   2.920  0.00  0.00    +0.315 C 
ATOM     12  C   UNL     1     -36.890  23.660   3.861  0.00  0.00    +0.105 C 
ATOM     13  C   UNL     1     -36.041  23.447   4.863  0.00  0.00    +0.208 C 
ATOM     14  C   UNL     1     -35.328  22.167   4.991  0.00  0.00    +0.282 C 
ATOM     15  H   UNL     1     -35.182  20.383   4.034  0.00  0.00    +0.159 HD
ENDBRANCH   4   9
BRANCH   2  16
ATOM     16  N   UNL     1     -39.842  21.277   1.756  0.00  0.00    +0.386 N 
ATOM     17  H   UNL     1     -40.141  20.732   2.564  0.00  0.00    -0.089 HD
ATOM     18  H   UNL     1     -39.014  20.847   1.344  0.00  0.00    -0.089 HD
ATOM     19  H   UNL     1     -40.592  21.302   1.066  0.00  0.00    -0.089 HD
ENDBRANCH   2  16
BRANCH   3  20
ATOM     20  O   UNL     1     -40.474  23.432   0.080  0.00  0.00    -0.384 OA
ATOM     21  H   UNL     1     -40.552  22.475  -0.056  0.00  0.00    +0.210 HD
ENDBRANCH   3  20
BRANCH   5  22
ATOM     22  C   UNL     1     -39.730  25.678   2.963  0.00  0.00    +0.169 C 
BRANCH  22  23
ATOM     23  O   UNL     1     -38.613  26.504   3.246  0.00  0.00    -0.379 OA
ATOM     24  H   UNL     1     -38.574  26.679   4.199  0.00  0.00    +0.211 HD
ENDBRANCH  22  23
ENDBRANCH   5  22
TORSDOF 5
ENDMDL
