MODEL 1
REMARK VINA RESULT:      -5.5      0.000      0.000
REMARK  Name = 5487972
REMARK  5 active torsions:
REMARK  status: ('A' for Active; 'I' for Inactive)
REMARK    1  A    between atoms: C_1  and  N_15
REMARK    2  A    between atoms: C_2  and  N_18
REMARK    3  A    between atoms: C_4  and  C_9
REMARK    4  A    between atoms: C_6  and  N_14
REMARK    5  A    between atoms: N_18  and  O_20
REMARK                            x       y       z     vdW  Elec       q    Type
REMARK                         _______ _______ _______ _____ _____    ______ ____
ROOT
ATOM      1  C   UNL     1     -35.515  22.507   3.424  0.00  0.00    +0.066 C 
ATOM      2  C   UNL     1     -35.525  22.801   4.787  0.00  0.00    +0.093 C 
ATOM      3  C   UNL     1     -35.057  23.455   2.509  0.00  0.00    +0.022 C 
ATOM      4  C   UNL     1     -34.608  24.697   2.958  0.00  0.00    +0.077 C 
ATOM      5  C   UNL     1     -35.076  24.043   5.236  0.00  0.00    +0.044 C 
ATOM      6  C   UNL     1     -34.619  24.991   4.322  0.00  0.00    +0.149 C 
ENDROOT
BRANCH   4   9
ATOM      7  O   UNL     1     -32.951  25.681   1.605  0.00  0.00    -0.270 OA
ATOM      8  N   UNL     1     -35.067  26.549   1.444  0.00  0.00    -0.325 N 
ATOM      9  C   UNL     1     -34.136  25.662   1.973  0.00  0.00    +0.244 C 
ATOM     10  H   UNL     1     -34.787  27.217   0.775  0.00  0.00    +0.145 HD
ATOM     11  H   UNL     1     -36.005  26.511   1.737  0.00  0.00    +0.145 HD
ENDBRANCH   4   9
BRANCH   6  14
ATOM     12  O   UNL     1     -34.847  27.273   4.561  0.00  0.00    -0.126 OA
ATOM     13  O   UNL     1     -33.097  26.300   5.458  0.00  0.00    -0.126 OA
ATOM     14  N   UNL     1     -34.165  26.251   4.805  0.00  0.00    +0.058 N 
ENDBRANCH   6  14
BRANCH   1  15
ATOM     15  N   UNL     1     -35.967  21.251   2.947  0.00  0.00    -0.303 N 
ATOM     16  C   UNL     1     -35.056  20.344   2.236  0.00  0.00    +0.112 C 
ATOM     17  C   UNL     1     -36.162  21.019   1.509  0.00  0.00    +0.112 C 
ENDBRANCH   1  15
BRANCH   2  18
ATOM     18  N   UNL     1     -35.986  21.855   5.730  0.00  0.00    -0.266 N 
ATOM     19  H   UNL     1     -36.821  22.039   6.218  0.00  0.00    +0.194 HD
BRANCH  18  20
ATOM     20  O   UNL     1     -35.312  20.690   5.991  0.00  0.00    -0.289 OA
ATOM     21  H   UNL     1     -35.853  19.935   5.714  0.00  0.00    +0.244 HD
ENDBRANCH  18  20
ENDBRANCH   2  18
TORSDOF 5
ENDMDL
MODEL 2
REMARK VINA RESULT:      -5.5      1.444      1.551
REMARK  Name = 5487972
REMARK  5 active torsions:
REMARK  status: ('A' for Active; 'I' for Inactive)
REMARK    1  A    between atoms: C_1  and  N_15
REMARK    2  A    between atoms: C_2  and  N_18
REMARK    3  A    between atoms: C_4  and  C_9
REMARK    4  A    between atoms: C_6  and  N_14
REMARK    5  A    between atoms: N_18  and  O_20
REMARK                            x       y       z     vdW  Elec       q    Type
REMARK                         _______ _______ _______ _____ _____    ______ ____
ROOT
ATOM      1  C   UNL     1     -36.339  23.452   3.747  0.00  0.00    +0.066 C 
ATOM      2  C   UNL     1     -35.692  23.190   4.954  0.00  0.00    +0.093 C 
ATOM      3  C   UNL     1     -36.089  24.643   3.066  0.00  0.00    +0.022 C 
ATOM      4  C   UNL     1     -35.191  25.572   3.592  0.00  0.00    +0.077 C 
ATOM      5  C   UNL     1     -34.794  24.119   5.480  0.00  0.00    +0.044 C 
ATOM      6  C   UNL     1     -34.544  25.309   4.799  0.00  0.00    +0.149 C 
ENDROOT
BRANCH   4   9
ATOM      7  O   UNL     1     -34.396  26.795   1.743  0.00  0.00    -0.270 OA
ATOM      8  N   UNL     1     -35.396  27.993   3.423  0.00  0.00    -0.325 N 
ATOM      9  C   UNL     1     -34.955  26.805   2.851  0.00  0.00    +0.244 C 
ATOM     10  H   UNL     1     -35.256  28.848   2.953  0.00  0.00    +0.145 HD
ATOM     11  H   UNL     1     -35.849  27.981   4.296  0.00  0.00    +0.145 HD
ENDBRANCH   4   9
BRANCH   6  14
ATOM     12  O   UNL     1     -32.669  26.644   4.651  0.00  0.00    -0.126 OA
ATOM     13  O   UNL     1     -33.793  26.628   6.536  0.00  0.00    -0.126 OA
ATOM     14  N   UNL     1     -33.623  26.240   5.356  0.00  0.00    +0.058 N 
ENDBRANCH   6  14
BRANCH   1  15
ATOM     15  N   UNL     1     -37.256  22.522   3.195  0.00  0.00    -0.303 N 
ATOM     16  C   UNL     1     -36.860  21.642   2.088  0.00  0.00    +0.112 C 
ATOM     17  C   UNL     1     -37.837  22.738   1.864  0.00  0.00    +0.112 C 
ENDBRANCH   1  15
BRANCH   2  18
ATOM     18  N   UNL     1     -35.931  21.990   5.660  0.00  0.00    -0.266 N 
ATOM     19  H   UNL     1     -36.652  21.968   6.330  0.00  0.00    +0.194 HD
BRANCH  18  20
ATOM     20  O   UNL     1     -35.196  20.852   5.446  0.00  0.00    -0.289 OA
ATOM     21  H   UNL     1     -35.387  20.207   6.144  0.00  0.00    +0.244 HD
ENDBRANCH  18  20
ENDBRANCH   2  18
TORSDOF 5
ENDMDL
MODEL 3
REMARK VINA RESULT:      -5.3      3.843      4.947
REMARK  Name = 5487972
REMARK  5 active torsions:
REMARK  status: ('A' for Active; 'I' for Inactive)
REMARK    1  A    between atoms: C_1  and  N_15
REMARK    2  A    between atoms: C_2  and  N_18
REMARK    3  A    between atoms: C_4  and  C_9
REMARK    4  A    between atoms: C_6  and  N_14
REMARK    5  A    between atoms: N_18  and  O_20
REMARK                            x       y       z     vdW  Elec       q    Type
REMARK                         _______ _______ _______ _____ _____    ______ ____
ROOT
ATOM      1  C   UNL     1     -36.414  23.018   3.676  0.00  0.00    +0.066 C 
ATOM      2  C   UNL     1     -36.836  22.011   2.807  0.00  0.00    +0.093 C 
ATOM      3  C   UNL     1     -37.066  24.251   3.682  0.00  0.00    +0.022 C 
ATOM      4  C   UNL     1     -38.139  24.477   2.821  0.00  0.00    +0.077 C 
ATOM      5  C   UNL     1     -37.909  22.237   1.946  0.00  0.00    +0.044 C 
ATOM      6  C   UNL     1     -38.560  23.470   1.952  0.00  0.00    +0.149 C 
ENDROOT
BRANCH   4   9
ATOM      7  O   UNL     1     -38.338  26.749   2.232  0.00  0.00    -0.270 OA
ATOM      8  N   UNL     1     -39.965  25.889   3.600  0.00  0.00    -0.325 N 
ATOM      9  C   UNL     1     -38.795  25.779   2.856  0.00  0.00    +0.244 C 
ATOM     10  H   UNL     1     -40.438  26.752   3.649  0.00  0.00    +0.145 HD
ATOM     11  H   UNL     1     -40.320  25.105   4.078  0.00  0.00    +0.145 HD
ENDBRANCH   4   9
BRANCH   6  14
ATOM     12  O   UNL     1     -39.417  24.019  -0.117  0.00  0.00    -0.126 OA
ATOM     13  O   UNL     1     -40.820  23.509   1.491  0.00  0.00    -0.126 OA
ATOM     14  N   UNL     1     -39.653  23.676   1.065  0.00  0.00    +0.058 N 
ENDBRANCH   6  14
BRANCH   1  15
ATOM     15  N   UNL     1     -35.325  22.809   4.559  0.00  0.00    -0.303 N 
ATOM     16  C   UNL     1     -35.555  22.470   5.969  0.00  0.00    +0.112 C 
ATOM     17  C   UNL     1     -34.999  23.796   5.597  0.00  0.00    +0.112 C 
ENDBRANCH   1  15
BRANCH   2  18
ATOM     18  N   UNL     1     -36.190  20.755   2.785  0.00  0.00    -0.266 N 
ATOM     19  H   UNL     1     -35.215  20.719   2.921  0.00  0.00    +0.194 HD
BRANCH  18  20
ATOM     20  O   UNL     1     -36.870  19.582   2.582  0.00  0.00    -0.289 OA
ATOM     21  H   UNL     1     -37.067  19.482   1.637  0.00  0.00    +0.244 HD
ENDBRANCH  18  20
ENDBRANCH   2  18
TORSDOF 5
ENDMDL
MODEL 4
REMARK VINA RESULT:      -5.3      3.715      4.972
REMARK  Name = 5487972
REMARK  5 active torsions:
REMARK  status: ('A' for Active; 'I' for Inactive)
REMARK    1  A    between atoms: C_1  and  N_15
REMARK    2  A    between atoms: C_2  and  N_18
REMARK    3  A    between atoms: C_4  and  C_9
REMARK    4  A    between atoms: C_6  and  N_14
REMARK    5  A    between atoms: N_18  and  O_20
REMARK                            x       y       z     vdW  Elec       q    Type
REMARK                         _______ _______ _______ _____ _____    ______ ____
ROOT
ATOM      1  C   UNL     1     -36.284  24.066   4.347  0.00  0.00    +0.066 C 
ATOM      2  C   UNL     1     -36.399  22.809   3.754  0.00  0.00    +0.093 C 
ATOM      3  C   UNL     1     -37.188  25.077   4.019  0.00  0.00    +0.022 C 
ATOM      4  C   UNL     1     -38.207  24.830   3.099  0.00  0.00    +0.077 C 
ATOM      5  C   UNL     1     -37.418  22.562   2.834  0.00  0.00    +0.044 C 
ATOM      6  C   UNL     1     -38.321  23.573   2.506  0.00  0.00    +0.149 C 
ENDROOT
BRANCH   4   9
ATOM      7  O   UNL     1     -38.860  26.761   1.920  0.00  0.00    -0.270 OA
ATOM      8  N   UNL     1     -40.341  25.945   3.469  0.00  0.00    -0.325 N 
ATOM      9  C   UNL     1     -39.132  25.911   2.782  0.00  0.00    +0.244 C 
ATOM     10  H   UNL     1     -40.994  26.659   3.283  0.00  0.00    +0.145 HD
ATOM     11  H   UNL     1     -40.545  25.255   4.140  0.00  0.00    +0.145 HD
ENDBRANCH   4   9
BRANCH   6  14
ATOM     12  O   UNL     1     -40.487  22.974   1.989  0.00  0.00    -0.126 OA
ATOM     13  O   UNL     1     -39.094  23.382   0.342  0.00  0.00    -0.126 OA
ATOM     14  N   UNL     1     -39.352  23.296   1.566  0.00  0.00    +0.058 N 
ENDBRANCH   6  14
BRANCH   1  15
ATOM     15  N   UNL     1     -35.256  24.338   5.284  0.00  0.00    -0.303 N 
ATOM     16  C   UNL     1     -34.975  25.714   5.715  0.00  0.00    +0.112 C 
ATOM     17  C   UNL     1     -34.004  24.981   4.861  0.00  0.00    +0.112 C 
ENDBRANCH   1  15
BRANCH   2  18
ATOM     18  N   UNL     1     -35.495  21.771   4.072  0.00  0.00    -0.266 N 
ATOM     19  H   UNL     1     -34.738  21.598   3.465  0.00  0.00    +0.194 HD
BRANCH  18  20
ATOM     20  O   UNL     1     -35.630  20.996   5.194  0.00  0.00    -0.289 OA
ATOM     21  H   UNL     1     -36.565  20.772   5.321  0.00  0.00    +0.244 HD
ENDBRANCH  18  20
ENDBRANCH   2  18
TORSDOF 5
ENDMDL
MODEL 5
REMARK VINA RESULT:      -5.3      1.899      4.902
REMARK  Name = 5487972
REMARK  5 active torsions:
REMARK  status: ('A' for Active; 'I' for Inactive)
REMARK    1  A    between atoms: C_1  and  N_15
REMARK    2  A    between atoms: C_2  and  N_18
REMARK    3  A    between atoms: C_4  and  C_9
REMARK    4  A    between atoms: C_6  and  N_14
REMARK    5  A    between atoms: N_18  and  O_20
REMARK                            x       y       z     vdW  Elec       q    Type
REMARK                         _______ _______ _______ _____ _____    ______ ____
ROOT
ATOM      1  C   UNL     1     -35.216  26.044   3.901  0.00  0.00    +0.066 C 
ATOM      2  C   UNL     1     -34.588  25.711   5.101  0.00  0.00    +0.093 C 
ATOM      3  C   UNL     1     -35.960  25.084   3.214  0.00  0.00    +0.022 C 
ATOM      4  C   UNL     1     -36.077  23.792   3.728  0.00  0.00    +0.077 C 
ATOM      5  C   UNL     1     -34.704  24.419   5.614  0.00  0.00    +0.044 C 
ATOM      6  C   UNL     1     -35.448  23.460   4.928  0.00  0.00    +0.149 C 
ENDROOT
BRANCH   4   9
ATOM      7  O   UNL     1     -38.098  22.761   3.097  0.00  0.00    -0.270 OA
ATOM      8  N   UNL     1     -36.182  21.963   2.122  0.00  0.00    -0.325 N 
ATOM      9  C   UNL     1     -36.863  22.817   2.982  0.00  0.00    +0.244 C 
ATOM     10  H   UNL     1     -36.678  21.291   1.600  0.00  0.00    +0.145 HD
ATOM     11  H   UNL     1     -35.204  22.031   2.034  0.00  0.00    +0.145 HD
ENDBRANCH   4   9
BRANCH   6  14
ATOM     12  O   UNL     1     -36.119  21.999   6.580  0.00  0.00    -0.126 OA
ATOM     13  O   UNL     1     -35.074  21.187   4.830  0.00  0.00    -0.126 OA
ATOM     14  N   UNL     1     -35.552  22.150   5.473  0.00  0.00    +0.058 N 
ENDBRANCH   6  14
BRANCH   1  15
ATOM     15  N   UNL     1     -35.110  27.350   3.361  0.00  0.00    -0.303 N 
ATOM     16  C   UNL     1     -35.714  27.679   2.063  0.00  0.00    +0.112 C 
ATOM     17  C   UNL     1     -34.237  27.619   2.210  0.00  0.00    +0.112 C 
ENDBRANCH   1  15
BRANCH   2  18
ATOM     18  N   UNL     1     -33.829  26.667   5.812  0.00  0.00    -0.266 N 
ATOM     19  H   UNL     1     -34.246  27.137   6.570  0.00  0.00    +0.194 HD
BRANCH  18  20
ATOM     20  O   UNL     1     -32.531  26.965   5.486  0.00  0.00    -0.289 OA
ATOM     21  H   UNL     1     -31.958  26.221   5.728  0.00  0.00    +0.244 HD
ENDBRANCH  18  20
ENDBRANCH   2  18
TORSDOF 5
ENDMDL
MODEL 6
REMARK VINA RESULT:      -5.3      3.771      5.856
REMARK  Name = 5487972
REMARK  5 active torsions:
REMARK  status: ('A' for Active; 'I' for Inactive)
REMARK    1  A    between atoms: C_1  and  N_15
REMARK    2  A    between atoms: C_2  and  N_18
REMARK    3  A    between atoms: C_4  and  C_9
REMARK    4  A    between atoms: C_6  and  N_14
REMARK    5  A    between atoms: N_18  and  O_20
REMARK                            x       y       z     vdW  Elec       q    Type
REMARK                         _______ _______ _______ _____ _____    ______ ____
ROOT
ATOM      1  C   UNL     1     -36.727  24.204   3.290  0.00  0.00    +0.066 C 
ATOM      2  C   UNL     1     -38.040  24.672   3.225  0.00  0.00    +0.093 C 
ATOM      3  C   UNL     1     -36.404  22.959   2.749  0.00  0.00    +0.022 C 
ATOM      4  C   UNL     1     -37.391  22.184   2.142  0.00  0.00    +0.077 C 
ATOM      5  C   UNL     1     -39.028  23.896   2.618  0.00  0.00    +0.044 C 
ATOM      6  C   UNL     1     -38.703  22.653   2.077  0.00  0.00    +0.149 C 
ENDROOT
BRANCH   4   9
ATOM      7  O   UNL     1     -36.763  20.754   0.380  0.00  0.00    -0.270 OA
ATOM      8  N   UNL     1     -36.927  19.814   2.465  0.00  0.00    -0.325 N 
ATOM      9  C   UNL     1     -37.014  20.890   1.588  0.00  0.00    +0.244 C 
ATOM     10  H   UNL     1     -36.675  18.923   2.129  0.00  0.00    +0.145 HD
ATOM     11  H   UNL     1     -37.117  19.943   3.422  0.00  0.00    +0.145 HD
ENDBRANCH   4   9
BRANCH   6  14
ATOM     12  O   UNL     1     -40.385  21.078   2.165  0.00  0.00    -0.126 OA
ATOM     13  O   UNL     1     -39.944  22.027   0.236  0.00  0.00    -0.126 OA
ATOM     14  N   UNL     1     -39.729  21.881   1.462  0.00  0.00    +0.058 N 
ENDBRANCH   6  14
BRANCH   1  15
ATOM     15  N   UNL     1     -35.709  24.975   3.903  0.00  0.00    -0.303 N 
ATOM     16  C   UNL     1     -34.409  24.377   4.236  0.00  0.00    +0.112 C 
ATOM     17  C   UNL     1     -35.354  24.768   5.313  0.00  0.00    +0.112 C 
ENDBRANCH   1  15
BRANCH   2  18
ATOM     18  N   UNL     1     -38.390  25.929   3.767  0.00  0.00    -0.266 N 
ATOM     19  H   UNL     1     -37.771  26.363   4.398  0.00  0.00    +0.194 HD
BRANCH  18  20
ATOM     20  O   UNL     1     -39.559  26.568   3.445  0.00  0.00    -0.289 OA
ATOM     21  H   UNL     1     -39.838  27.125   4.188  0.00  0.00    +0.244 HD
ENDBRANCH  18  20
ENDBRANCH   2  18
TORSDOF 5
ENDMDL
MODEL 7
REMARK VINA RESULT:      -5.0      3.617      5.157
REMARK  Name = 5487972
REMARK  5 active torsions:
REMARK  status: ('A' for Active; 'I' for Inactive)
REMARK    1  A    between atoms: C_1  and  N_15
REMARK    2  A    between atoms: C_2  and  N_18
REMARK    3  A    between atoms: C_4  and  C_9
REMARK    4  A    between atoms: C_6  and  N_14
REMARK    5  A    between atoms: N_18  and  O_20
REMARK                            x       y       z     vdW  Elec       q    Type
REMARK                         _______ _______ _______ _____ _____    ______ ____
ROOT
ATOM      1  C   UNL     1     -36.397  23.764   4.344  0.00  0.00    +0.066 C 
ATOM      2  C   UNL     1     -37.045  24.997   4.259  0.00  0.00    +0.093 C 
ATOM      3  C   UNL     1     -36.782  22.716   3.509  0.00  0.00    +0.022 C 
ATOM      4  C   UNL     1     -37.813  22.900   2.588  0.00  0.00    +0.077 C 
ATOM      5  C   UNL     1     -38.076  25.181   3.338  0.00  0.00    +0.044 C 
ATOM      6  C   UNL     1     -38.461  24.133   2.503  0.00  0.00    +0.149 C 
ENDROOT
BRANCH   4   9
ATOM      7  O   UNL     1     -37.546  21.515   0.702  0.00  0.00    -0.270 OA
ATOM      8  N   UNL     1     -39.276  21.009   2.119  0.00  0.00    -0.325 N 
ATOM      9  C   UNL     1     -38.186  21.781   1.731  0.00  0.00    +0.244 C 
ATOM     10  H   UNL     1     -39.559  20.244   1.567  0.00  0.00    +0.145 HD
ATOM     11  H   UNL     1     -39.764  21.227   2.945  0.00  0.00    +0.145 HD
ENDBRANCH   4   9
BRANCH   6  14
ATOM     12  O   UNL     1     -39.276  24.993   0.525  0.00  0.00    -0.126 OA
ATOM     13  O   UNL     1     -40.651  23.880   1.826  0.00  0.00    -0.126 OA
ATOM     14  N   UNL     1     -39.515  24.346   1.571  0.00  0.00    +0.058 N 
ENDBRANCH   6  14
BRANCH   1  15
ATOM     15  N   UNL     1     -35.348  23.556   5.273  0.00  0.00    -0.303 N 
ATOM     16  C   UNL     1     -34.542  22.329   5.236  0.00  0.00    +0.112 C 
ATOM     17  C   UNL     1     -35.486  22.573   6.356  0.00  0.00    +0.112 C 
ENDBRANCH   1  15
BRANCH   2  18
ATOM     18  N   UNL     1     -36.672  26.072   5.096  0.00  0.00    -0.266 N 
ATOM     19  H   UNL     1     -37.093  26.153   5.983  0.00  0.00    +0.194 HD
BRANCH  18  20
ATOM     20  O   UNL     1     -35.743  27.008   4.720  0.00  0.00    -0.289 OA
ATOM     21  H   UNL     1     -36.157  27.885   4.703  0.00  0.00    +0.244 HD
ENDBRANCH  18  20
ENDBRANCH   2  18
TORSDOF 5
ENDMDL
MODEL 8
REMARK VINA RESULT:      -5.0      2.290      4.237
REMARK  Name = 5487972
REMARK  5 active torsions:
REMARK  status: ('A' for Active; 'I' for Inactive)
REMARK    1  A    between atoms: C_1  and  N_15
REMARK    2  A    between atoms: C_2  and  N_18
REMARK    3  A    between atoms: C_4  and  C_9
REMARK    4  A    between atoms: C_6  and  N_14
REMARK    5  A    between atoms: N_18  and  O_20
REMARK                            x       y       z     vdW  Elec       q    Type
REMARK                         _______ _______ _______ _____ _____    ______ ____
ROOT
ATOM      1  C   UNL     1     -35.158  23.843   4.350  0.00  0.00    +0.066 C 
ATOM      2  C   UNL     1     -35.541  22.503   4.405  0.00  0.00    +0.093 C 
ATOM      3  C   UNL     1     -34.764  24.405   3.135  0.00  0.00    +0.022 C 
ATOM      4  C   UNL     1     -34.756  23.629   1.977  0.00  0.00    +0.077 C 
ATOM      5  C   UNL     1     -35.533  21.726   3.246  0.00  0.00    +0.044 C 
ATOM      6  C   UNL     1     -35.140  22.289   2.033  0.00  0.00    +0.149 C 
ENDROOT
BRANCH   4   9
ATOM      7  O   UNL     1     -33.140  24.358   0.426  0.00  0.00    -0.270 OA
ATOM      8  N   UNL     1     -35.337  24.709  -0.128  0.00  0.00    -0.325 N 
ATOM      9  C   UNL     1     -34.339  24.253   0.726  0.00  0.00    +0.244 C 
ATOM     10  H   UNL     1     -35.096  25.136  -0.983  0.00  0.00    +0.145 HD
ATOM     11  H   UNL     1     -36.283  24.605   0.120  0.00  0.00    +0.145 HD
ENDBRANCH   4   9
BRANCH   6  14
ATOM     12  O   UNL     1     -34.159  20.728   0.648  0.00  0.00    -0.126 OA
ATOM     13  O   UNL     1     -36.121  21.534   0.087  0.00  0.00    -0.126 OA
ATOM     14  N   UNL     1     -35.140  21.476   0.865  0.00  0.00    +0.058 N 
ENDBRANCH   6  14
BRANCH   1  15
ATOM     15  N   UNL     1     -35.159  24.649   5.515  0.00  0.00    -0.303 N 
ATOM     16  C   UNL     1     -35.914  25.908   5.558  0.00  0.00    +0.112 C 
ATOM     17  C   UNL     1     -34.429  25.924   5.548  0.00  0.00    +0.112 C 
ENDBRANCH   1  15
BRANCH   2  18
ATOM     18  N   UNL     1     -35.943  21.913   5.624  0.00  0.00    -0.266 N 
ATOM     19  H   UNL     1     -36.537  22.419   6.224  0.00  0.00    +0.194 HD
BRANCH  18  20
ATOM     20  O   UNL     1     -35.536  20.660   6.003  0.00  0.00    -0.289 OA
ATOM     21  H   UNL     1     -35.562  20.589   6.970  0.00  0.00    +0.244 HD
ENDBRANCH  18  20
ENDBRANCH   2  18
TORSDOF 5
ENDMDL
MODEL 9
REMARK VINA RESULT:      -4.9      4.243      5.057
REMARK  Name = 5487972
REMARK  5 active torsions:
REMARK  status: ('A' for Active; 'I' for Inactive)
REMARK    1  A    between atoms: C_1  and  N_15
REMARK    2  A    between atoms: C_2  and  N_18
REMARK    3  A    between atoms: C_4  and  C_9
REMARK    4  A    between atoms: C_6  and  N_14
REMARK    5  A    between atoms: N_18  and  O_20
REMARK                            x       y       z     vdW  Elec       q    Type
REMARK                         _______ _______ _______ _____ _____    ______ ____
ROOT
ATOM      1  C   UNL     1     -39.656  24.577   2.143  0.00  0.00    +0.066 C 
ATOM      2  C   UNL     1     -39.384  23.209   2.147  0.00  0.00    +0.093 C 
ATOM      3  C   UNL     1     -38.744  25.470   2.706  0.00  0.00    +0.022 C 
ATOM      4  C   UNL     1     -37.561  24.996   3.271  0.00  0.00    +0.077 C 
ATOM      5  C   UNL     1     -38.200  22.734   2.712  0.00  0.00    +0.044 C 
ATOM      6  C   UNL     1     -37.289  23.627   3.274  0.00  0.00    +0.149 C 
ENDROOT
BRANCH   4   9
ATOM      7  O   UNL     1     -35.846  26.604   3.137  0.00  0.00    -0.270 OA
ATOM      8  N   UNL     1     -36.672  26.146   5.226  0.00  0.00    -0.325 N 
ATOM      9  C   UNL     1     -36.632  25.960   3.848  0.00  0.00    +0.244 C 
ATOM     10  H   UNL     1     -36.060  26.789   5.654  0.00  0.00    +0.145 HD
ATOM     11  H   UNL     1     -37.311  25.636   5.773  0.00  0.00    +0.145 HD
ENDBRANCH   4   9
BRANCH   6  14
ATOM     12  O   UNL     1     -35.103  22.917   3.098  0.00  0.00    -0.126 OA
ATOM     13  O   UNL     1     -36.054  22.886   5.076  0.00  0.00    -0.126 OA
ATOM     14  N   UNL     1     -36.089  23.118   3.844  0.00  0.00    +0.058 N 
ENDBRANCH   6  14
BRANCH   1  15
ATOM     15  N   UNL     1     -40.853  25.080   1.574  0.00  0.00    -0.303 N 
ATOM     16  C   UNL     1     -40.825  25.857   0.329  0.00  0.00    +0.112 C 
ATOM     17  C   UNL     1     -41.160  26.516   1.617  0.00  0.00    +0.112 C 
ENDBRANCH   1  15
BRANCH   2  18
ATOM     18  N   UNL     1     -40.294  22.287   1.583  0.00  0.00    -0.266 N 
ATOM     19  H   UNL     1     -40.900  22.593   0.869  0.00  0.00    +0.194 HD
BRANCH  18  20
ATOM     20  O   UNL     1     -40.364  20.980   1.992  0.00  0.00    -0.289 OA
ATOM     21  H   UNL     1     -39.822  20.861   2.788  0.00  0.00    +0.244 HD
ENDBRANCH  18  20
ENDBRANCH   2  18
TORSDOF 5
ENDMDL
