MODEL 1
REMARK VINA RESULT:      -5.4      0.000      0.000
REMARK  Name = 195076
REMARK  10 active torsions:
REMARK  status: ('A' for Active; 'I' for Inactive)
REMARK    1  A    between atoms: C_1  and  C_4
REMARK    2  A    between atoms: C_1  and  N_16
REMARK    3  A    between atoms: C_1  and  C_24
REMARK    4  A    between atoms: N_3  and  C_6
REMARK    5  A    between atoms: C_6  and  C_9
REMARK    6  A    between atoms: C_6  and  C_12
REMARK    7  A    between atoms: C_9  and  O_10
REMARK    8  A    between atoms: C_12  and  O_13
REMARK    9  A    between atoms: C_17  and  O_19
REMARK   10  A    between atoms: O_19  and  C_20
REMARK                            x       y       z     vdW  Elec       q    Type
REMARK                         _______ _______ _______ _____ _____    ______ ____
ROOT
ATOM      1  C   UNL     1     -36.154  22.349   4.027  0.00  0.00    +0.151 C 
ENDROOT
BRANCH   1   4
ATOM      2  O   UNL     1     -35.981  23.605   1.960  0.00  0.00    -0.273 OA
ATOM      3  N   UNL     1     -37.799  23.990   3.350  0.00  0.00    -0.295 N 
ATOM      4  C   UNL     1     -36.604  23.381   2.995  0.00  0.00    +0.241 C 
ATOM      5  H   UNL     1     -38.219  23.740   4.204  0.00  0.00    +0.150 HD
BRANCH   3   6
ATOM      6  C   UNL     1     -38.455  24.976   2.521  0.00  0.00    +0.174 C 
ATOM      7  C   UNL     1     -38.573  24.427   1.096  0.00  0.00    +0.034 C 
BRANCH   6   9
ATOM      8  O   UNL     1     -37.774  27.112   1.585  0.00  0.00    -0.248 OA
ATOM      9  C   UNL     1     -37.632  26.268   2.465  0.00  0.00    +0.335 C 
BRANCH   9  10
ATOM     10  O   UNL     1     -36.742  26.357   3.494  0.00  0.00    -0.443 OA
ATOM     11  C   UNL     1     -35.485  26.963   3.179  0.00  0.00    +0.256 C 
ENDBRANCH   9  10
ENDBRANCH   6   9
BRANCH   6  12
ATOM     12  C   UNL     1     -39.848  25.283   3.089  0.00  0.00    +0.166 C 
BRANCH  12  13
ATOM     13  O   UNL     1     -39.894  26.589   3.656  0.00  0.00    -0.380 OA
ATOM     14  H   UNL     1     -39.251  27.158   3.206  0.00  0.00    +0.211 HD
ENDBRANCH  12  13
ENDBRANCH   6  12
ENDBRANCH   3   6
ENDBRANCH   1   4
BRANCH   1  16
ATOM     15  O   UNL     1     -36.563  20.074   2.268  0.00  0.00    -0.226 OA
ATOM     16  N   UNL     1     -35.151  21.514   3.416  0.00  0.00    -0.264 N 
ATOM     17  C   UNL     1     -35.439  20.447   2.588  0.00  0.00    +0.402 C 
ATOM     18  H   UNL     1     -34.206  21.717   3.599  0.00  0.00    +0.153 HD
BRANCH  17  19
ATOM     19  O   UNL     1     -34.279  19.858   2.170  0.00  0.00    -0.442 OA
BRANCH  19  20
ATOM     20  C   UNL     1     -34.020  19.916   0.763  0.00  0.00    +0.138 C 
ATOM     21  C   UNL     1     -34.391  21.309   0.257  0.00  0.00    +0.044 C 
ATOM     22  C   UNL     1     -32.531  19.647   0.558  0.00  0.00    +0.044 C 
ATOM     23  C   UNL     1     -34.860  18.843   0.070  0.00  0.00    +0.044 C 
ENDBRANCH  19  20
ENDBRANCH  17  19
ENDBRANCH   1  16
BRANCH   1  24
ATOM     24  C   UNL     1     -35.676  23.005   5.340  0.00  0.00    +0.027 C 
ATOM     25  C   UNL     1     -35.308  21.986   6.423  0.00  0.00    +0.002 C 
ATOM     26  C   UNL     1     -34.494  23.946   5.087  0.00  0.00    +0.002 C 
ENDBRANCH   1  24
TORSDOF 10
ENDMDL
MODEL 2
REMARK VINA RESULT:      -5.3      5.636      8.737
REMARK  Name = 195076
REMARK  10 active torsions:
REMARK  status: ('A' for Active; 'I' for Inactive)
REMARK    1  A    between atoms: C_1  and  C_4
REMARK    2  A    between atoms: C_1  and  N_16
REMARK    3  A    between atoms: C_1  and  C_24
REMARK    4  A    between atoms: N_3  and  C_6
REMARK    5  A    between atoms: C_6  and  C_9
REMARK    6  A    between atoms: C_6  and  C_12
REMARK    7  A    between atoms: C_9  and  O_10
REMARK    8  A    between atoms: C_12  and  O_13
REMARK    9  A    between atoms: C_17  and  O_19
REMARK   10  A    between atoms: O_19  and  C_20
REMARK                            x       y       z     vdW  Elec       q    Type
REMARK                         _______ _______ _______ _____ _____    ______ ____
ROOT
ATOM      1  C   UNL     1     -33.277  29.866   3.422  0.00  0.00    +0.151 C 
ENDROOT
BRANCH   1   4
ATOM      2  O   UNL     1     -32.516  30.448   5.651  0.00  0.00    -0.273 OA
ATOM      3  N   UNL     1     -31.064  29.316   4.236  0.00  0.00    -0.295 N 
ATOM      4  C   UNL     1     -32.264  29.933   4.564  0.00  0.00    +0.241 C 
ATOM      5  H   UNL     1     -30.963  28.934   3.335  0.00  0.00    +0.150 HD
BRANCH   3   6
ATOM      6  C   UNL     1     -29.957  29.210   5.159  0.00  0.00    +0.174 C 
ATOM      7  C   UNL     1     -29.381  30.608   5.405  0.00  0.00    +0.034 C 
BRANCH   6   9
ATOM      8  O   UNL     1     -27.655  28.522   4.802  0.00  0.00    -0.248 OA
ATOM      9  C   UNL     1     -28.845  28.336   4.569  0.00  0.00    +0.335 C 
BRANCH   9  10
ATOM     10  O   UNL     1     -29.337  27.346   3.770  0.00  0.00    -0.443 OA
ATOM     11  C   UNL     1     -28.369  26.633   2.994  0.00  0.00    +0.256 C 
ENDBRANCH   9  10
ENDBRANCH   6   9
BRANCH   6  12
ATOM     12  C   UNL     1     -30.443  28.596   6.480  0.00  0.00    +0.166 C 
BRANCH  12  13
ATOM     13  O   UNL     1     -29.739  27.393   6.774  0.00  0.00    -0.380 OA
ATOM     14  H   UNL     1     -30.266  26.632   6.485  0.00  0.00    +0.211 HD
ENDBRANCH  12  13
ENDBRANCH   6  12
ENDBRANCH   3   6
ENDBRANCH   1   4
BRANCH   1  16
ATOM     15  O   UNL     1     -32.766  27.053   2.914  0.00  0.00    -0.226 OA
ATOM     16  N   UNL     1     -34.155  28.751   3.670  0.00  0.00    -0.264 N 
ATOM     17  C   UNL     1     -33.827  27.438   3.396  0.00  0.00    +0.402 C 
ATOM     18  H   UNL     1     -35.040  28.936   4.058  0.00  0.00    +0.153 HD
BRANCH  17  19
ATOM     19  O   UNL     1     -34.864  26.619   3.741  0.00  0.00    -0.442 OA
BRANCH  19  20
ATOM     20  C   UNL     1     -34.674  25.833   4.923  0.00  0.00    +0.138 C 
ATOM     21  C   UNL     1     -33.640  26.529   5.807  0.00  0.00    +0.044 C 
ATOM     22  C   UNL     1     -36.021  25.744   5.637  0.00  0.00    +0.044 C 
ATOM     23  C   UNL     1     -34.191  24.443   4.510  0.00  0.00    +0.044 C 
ENDBRANCH  19  20
ENDBRANCH  17  19
ENDBRANCH   1  16
BRANCH   1  24
ATOM     24  C   UNL     1     -34.032  31.200   3.232  0.00  0.00    +0.027 C 
ATOM     25  C   UNL     1     -33.373  32.121   2.201  0.00  0.00    +0.002 C 
ATOM     26  C   UNL     1     -35.495  30.955   2.852  0.00  0.00    +0.002 C 
ENDBRANCH   1  24
TORSDOF 10
ENDMDL
MODEL 3
REMARK VINA RESULT:      -5.3      1.794      2.770
REMARK  Name = 195076
REMARK  10 active torsions:
REMARK  status: ('A' for Active; 'I' for Inactive)
REMARK    1  A    between atoms: C_1  and  C_4
REMARK    2  A    between atoms: C_1  and  N_16
REMARK    3  A    between atoms: C_1  and  C_24
REMARK    4  A    between atoms: N_3  and  C_6
REMARK    5  A    between atoms: C_6  and  C_9
REMARK    6  A    between atoms: C_6  and  C_12
REMARK    7  A    between atoms: C_9  and  O_10
REMARK    8  A    between atoms: C_12  and  O_13
REMARK    9  A    between atoms: C_17  and  O_19
REMARK   10  A    between atoms: O_19  and  C_20
REMARK                            x       y       z     vdW  Elec       q    Type
REMARK                         _______ _______ _______ _____ _____    ______ ____
ROOT
ATOM      1  C   UNL     1     -36.190  22.988   4.001  0.00  0.00    +0.151 C 
ENDROOT
BRANCH   1   4
ATOM      2  O   UNL     1     -36.899  25.271   3.588  0.00  0.00    -0.273 OA
ATOM      3  N   UNL     1     -38.300  23.535   2.949  0.00  0.00    -0.295 N 
ATOM      4  C   UNL     1     -37.151  24.071   3.513  0.00  0.00    +0.241 C 
ATOM      5  H   UNL     1     -38.406  22.556   2.939  0.00  0.00    +0.150 HD
BRANCH   3   6
ATOM      6  C   UNL     1     -39.349  24.348   2.378  0.00  0.00    +0.174 C 
ATOM      7  C   UNL     1     -40.059  25.106   3.503  0.00  0.00    +0.034 C 
BRANCH   6   9
ATOM      8  O   UNL     1     -41.340  23.933   1.049  0.00  0.00    -0.248 OA
ATOM      9  C   UNL     1     -40.387  23.471   1.668  0.00  0.00    +0.335 C 
BRANCH   9  10
ATOM     10  O   UNL     1     -40.120  22.141   1.810  0.00  0.00    -0.443 OA
ATOM     11  C   UNL     1     -40.008  21.396   0.594  0.00  0.00    +0.256 C 
ENDBRANCH   9  10
ENDBRANCH   6   9
BRANCH   6  12
ATOM     12  C   UNL     1     -38.744  25.337   1.371  0.00  0.00    +0.166 C 
BRANCH  12  13
ATOM     13  O   UNL     1     -38.866  26.679   1.834  0.00  0.00    -0.380 OA
ATOM     14  H   UNL     1     -39.425  26.697   2.626  0.00  0.00    +0.211 HD
ENDBRANCH  12  13
ENDBRANCH   6  12
ENDBRANCH   3   6
ENDBRANCH   1   4
BRANCH   1  16
ATOM     15  O   UNL     1     -36.554  21.418   1.586  0.00  0.00    -0.226 OA
ATOM     16  N   UNL     1     -35.229  22.741   2.957  0.00  0.00    -0.264 N 
ATOM     17  C   UNL     1     -35.490  21.977   1.837  0.00  0.00    +0.402 C 
ATOM     18  H   UNL     1     -34.334  23.140   3.047  0.00  0.00    +0.153 HD
BRANCH  17  19
ATOM     19  O   UNL     1     -34.383  21.931   1.037  0.00  0.00    -0.442 OA
BRANCH  19  20
ATOM     20  C   UNL     1     -33.997  20.630   0.579  0.00  0.00    +0.138 C 
ATOM     21  C   UNL     1     -34.887  20.248  -0.603  0.00  0.00    +0.044 C 
ATOM     22  C   UNL     1     -32.534  20.711   0.147  0.00  0.00    +0.044 C 
ATOM     23  C   UNL     1     -34.163  19.640   1.730  0.00  0.00    +0.044 C 
ENDBRANCH  19  20
ENDBRANCH  17  19
ENDBRANCH   1  16
BRANCH   1  24
ATOM     24  C   UNL     1     -35.535  23.355   5.351  0.00  0.00    +0.027 C 
ATOM     25  C   UNL     1     -35.301  22.140   6.254  0.00  0.00    +0.002 C 
ATOM     26  C   UNL     1     -34.218  24.107   5.138  0.00  0.00    +0.002 C 
ENDBRANCH   1  24
TORSDOF 10
ENDMDL
MODEL 4
REMARK VINA RESULT:      -5.2      3.393      4.866
REMARK  Name = 195076
REMARK  10 active torsions:
REMARK  status: ('A' for Active; 'I' for Inactive)
REMARK    1  A    between atoms: C_1  and  C_4
REMARK    2  A    between atoms: C_1  and  N_16
REMARK    3  A    between atoms: C_1  and  C_24
REMARK    4  A    between atoms: N_3  and  C_6
REMARK    5  A    between atoms: C_6  and  C_9
REMARK    6  A    between atoms: C_6  and  C_12
REMARK    7  A    between atoms: C_9  and  O_10
REMARK    8  A    between atoms: C_12  and  O_13
REMARK    9  A    between atoms: C_17  and  O_19
REMARK   10  A    between atoms: O_19  and  C_20
REMARK                            x       y       z     vdW  Elec       q    Type
REMARK                         _______ _______ _______ _____ _____    ______ ____
ROOT
ATOM      1  C   UNL     1     -36.600  25.639   4.609  0.00  0.00    +0.151 C 
ENDROOT
BRANCH   1   4
ATOM      2  O   UNL     1     -35.303  25.349   2.580  0.00  0.00    -0.273 OA
ATOM      3  N   UNL     1     -35.952  27.492   3.191  0.00  0.00    -0.295 N 
ATOM      4  C   UNL     1     -35.867  26.116   3.356  0.00  0.00    +0.241 C 
ATOM      5  H   UNL     1     -36.428  28.018   3.874  0.00  0.00    +0.150 HD
BRANCH   3   6
ATOM      6  C   UNL     1     -35.374  28.185   2.064  0.00  0.00    +0.174 C 
ATOM      7  C   UNL     1     -33.930  27.711   1.876  0.00  0.00    +0.034 C 
BRANCH   6   9
ATOM      8  O   UNL     1     -36.036  30.492   1.683  0.00  0.00    -0.248 OA
ATOM      9  C   UNL     1     -35.347  29.698   2.316  0.00  0.00    +0.335 C 
BRANCH   9  10
ATOM     10  O   UNL     1     -34.479  30.038   3.311  0.00  0.00    -0.443 OA
ATOM     11  C   UNL     1     -33.907  31.346   3.218  0.00  0.00    +0.256 C 
ENDBRANCH   9  10
ENDBRANCH   6   9
BRANCH   6  12
ATOM     12  C   UNL     1     -36.197  27.894   0.801  0.00  0.00    +0.166 C 
BRANCH  12  13
ATOM     13  O   UNL     1     -37.590  28.057   1.048  0.00  0.00    -0.380 OA
ATOM     14  H   UNL     1     -37.717  28.662   1.795  0.00  0.00    +0.211 HD
ENDBRANCH  12  13
ENDBRANCH   6  12
ENDBRANCH   3   6
ENDBRANCH   1   4
BRANCH   1  16
ATOM     15  O   UNL     1     -38.946  26.284   3.022  0.00  0.00    -0.226 OA
ATOM     16  N   UNL     1     -37.657  24.752   4.196  0.00  0.00    -0.264 N 
ATOM     17  C   UNL     1     -38.741  25.147   3.438  0.00  0.00    +0.402 C 
ATOM     18  H   UNL     1     -37.603  23.808   4.470  0.00  0.00    +0.153 HD
BRANCH  17  19
ATOM     19  O   UNL     1     -39.564  24.080   3.213  0.00  0.00    -0.442 OA
BRANCH  19  20
ATOM     20  C   UNL     1     -39.524  23.527   1.892  0.00  0.00    +0.138 C 
ATOM     21  C   UNL     1     -38.226  23.972   1.219  0.00  0.00    +0.044 C 
ATOM     22  C   UNL     1     -39.566  22.007   2.029  0.00  0.00    +0.044 C 
ATOM     23  C   UNL     1     -40.741  24.031   1.117  0.00  0.00    +0.044 C 
ENDBRANCH  19  20
ENDBRANCH  17  19
ENDBRANCH   1  16
BRANCH   1  24
ATOM     24  C   UNL     1     -35.642  25.002   5.639  0.00  0.00    +0.027 C 
ATOM     25  C   UNL     1     -35.383  23.515   5.377  0.00  0.00    +0.002 C 
ATOM     26  C   UNL     1     -34.313  25.760   5.698  0.00  0.00    +0.002 C 
ENDBRANCH   1  24
TORSDOF 10
ENDMDL
MODEL 5
REMARK VINA RESULT:      -5.2      1.728      5.923
REMARK  Name = 195076
REMARK  10 active torsions:
REMARK  status: ('A' for Active; 'I' for Inactive)
REMARK    1  A    between atoms: C_1  and  C_4
REMARK    2  A    between atoms: C_1  and  N_16
REMARK    3  A    between atoms: C_1  and  C_24
REMARK    4  A    between atoms: N_3  and  C_6
REMARK    5  A    between atoms: C_6  and  C_9
REMARK    6  A    between atoms: C_6  and  C_12
REMARK    7  A    between atoms: C_9  and  O_10
REMARK    8  A    between atoms: C_12  and  O_13
REMARK    9  A    between atoms: C_17  and  O_19
REMARK   10  A    between atoms: O_19  and  C_20
REMARK                            x       y       z     vdW  Elec       q    Type
REMARK                         _______ _______ _______ _____ _____    ______ ____
ROOT
ATOM      1  C   UNL     1     -36.023  24.715   3.989  0.00  0.00    +0.151 C 
ENDROOT
BRANCH   1   4
ATOM      2  O   UNL     1     -37.057  22.521   3.933  0.00  0.00    -0.273 OA
ATOM      3  N   UNL     1     -35.418  23.022   2.368  0.00  0.00    -0.295 N 
ATOM      4  C   UNL     1     -36.232  23.298   3.457  0.00  0.00    +0.241 C 
ATOM      5  H   UNL     1     -34.788  23.715   2.064  0.00  0.00    +0.150 HD
BRANCH   3   6
ATOM      6  C   UNL     1     -35.453  21.763   1.659  0.00  0.00    +0.174 C 
ATOM      7  C   UNL     1     -34.226  21.672   0.747  0.00  0.00    +0.034 C 
BRANCH   6   9
ATOM      8  O   UNL     1     -37.648  22.453   0.878  0.00  0.00    -0.248 OA
ATOM      9  C   UNL     1     -36.705  21.674   0.778  0.00  0.00    +0.335 C 
BRANCH   9  10
ATOM     10  O   UNL     1     -36.637  20.642  -0.110  0.00  0.00    -0.443 OA
ATOM     11  C   UNL     1     -37.820  20.403  -0.879  0.00  0.00    +0.256 C 
ENDBRANCH   9  10
ENDBRANCH   6   9
BRANCH   6  12
ATOM     12  C   UNL     1     -35.454  20.603   2.665  0.00  0.00    +0.166 C 
BRANCH  12  13
ATOM     13  O   UNL     1     -36.687  19.891   2.625  0.00  0.00    -0.380 OA
ATOM     14  H   UNL     1     -37.422  20.522   2.571  0.00  0.00    +0.211 HD
ENDBRANCH  12  13
ENDBRANCH   6  12
ENDBRANCH   3   6
ENDBRANCH   1   4
BRANCH   1  16
ATOM     15  O   UNL     1     -37.217  25.726   1.542  0.00  0.00    -0.226 OA
ATOM     16  N   UNL     1     -37.263  25.433   3.844  0.00  0.00    -0.264 N 
ATOM     17  C   UNL     1     -37.757  25.879   2.634  0.00  0.00    +0.402 C 
ATOM     18  H   UNL     1     -37.789  25.617   4.655  0.00  0.00    +0.153 HD
BRANCH  17  19
ATOM     19  O   UNL     1     -38.947  26.522   2.827  0.00  0.00    -0.442 OA
BRANCH  19  20
ATOM     20  C   UNL     1     -40.123  25.769   2.511  0.00  0.00    +0.138 C 
ATOM     21  C   UNL     1     -41.272  26.276   3.382  0.00  0.00    +0.044 C 
ATOM     22  C   UNL     1     -40.430  25.993   1.032  0.00  0.00    +0.044 C 
ATOM     23  C   UNL     1     -39.842  24.292   2.784  0.00  0.00    +0.044 C 
ENDBRANCH  19  20
ENDBRANCH  17  19
ENDBRANCH   1  16
BRANCH   1  24
ATOM     24  C   UNL     1     -35.485  24.722   5.436  0.00  0.00    +0.027 C 
ATOM     25  C   UNL     1     -34.837  23.394   5.843  0.00  0.00    +0.002 C 
ATOM     26  C   UNL     1     -34.496  25.871   5.651  0.00  0.00    +0.002 C 
ENDBRANCH   1  24
TORSDOF 10
ENDMDL
MODEL 6
REMARK VINA RESULT:      -5.1      1.271      2.342
REMARK  Name = 195076
REMARK  10 active torsions:
REMARK  status: ('A' for Active; 'I' for Inactive)
REMARK    1  A    between atoms: C_1  and  C_4
REMARK    2  A    between atoms: C_1  and  N_16
REMARK    3  A    between atoms: C_1  and  C_24
REMARK    4  A    between atoms: N_3  and  C_6
REMARK    5  A    between atoms: C_6  and  C_9
REMARK    6  A    between atoms: C_6  and  C_12
REMARK    7  A    between atoms: C_9  and  O_10
REMARK    8  A    between atoms: C_12  and  O_13
REMARK    9  A    between atoms: C_17  and  O_19
REMARK   10  A    between atoms: O_19  and  C_20
REMARK                            x       y       z     vdW  Elec       q    Type
REMARK                         _______ _______ _______ _____ _____    ______ ____
ROOT
ATOM      1  C   UNL     1     -35.941  22.903   4.088  0.00  0.00    +0.151 C 
ENDROOT
BRANCH   1   4
ATOM      2  O   UNL     1     -34.710  24.207   2.454  0.00  0.00    -0.273 OA
ATOM      3  N   UNL     1     -36.992  24.569   2.681  0.00  0.00    -0.295 N 
ATOM      4  C   UNL     1     -35.785  23.962   2.998  0.00  0.00    +0.241 C 
ATOM      5  H   UNL     1     -37.798  24.300   3.178  0.00  0.00    +0.150 HD
BRANCH   3   6
ATOM      6  C   UNL     1     -37.119  25.576   1.653  0.00  0.00    +0.174 C 
ATOM      7  C   UNL     1     -36.218  26.763   2.007  0.00  0.00    +0.034 C 
BRANCH   6   9
ATOM      8  O   UNL     1     -39.167  26.213   0.511  0.00  0.00    -0.248 OA
ATOM      9  C   UNL     1     -38.563  26.085   1.572  0.00  0.00    +0.335 C 
BRANCH   9  10
ATOM     10  O   UNL     1     -39.078  26.370   2.802  0.00  0.00    -0.443 OA
ATOM     11  C   UNL     1     -40.452  26.019   2.998  0.00  0.00    +0.256 C 
ENDBRANCH   9  10
ENDBRANCH   6   9
BRANCH   6  12
ATOM     12  C   UNL     1     -36.710  24.985   0.296  0.00  0.00    +0.166 C 
BRANCH  12  13
ATOM     13  O   UNL     1     -37.479  23.827  -0.012  0.00  0.00    -0.380 OA
ATOM     14  H   UNL     1     -38.402  24.084  -0.163  0.00  0.00    +0.211 HD
ENDBRANCH  12  13
ENDBRANCH   6  12
ENDBRANCH   3   6
ENDBRANCH   1   4
BRANCH   1  16
ATOM     15  O   UNL     1     -37.369  21.535   1.962  0.00  0.00    -0.226 OA
ATOM     16  N   UNL     1     -35.641  21.619   3.509  0.00  0.00    -0.264 N 
ATOM     17  C   UNL     1     -36.379  21.042   2.495  0.00  0.00    +0.402 C 
ATOM     18  H   UNL     1     -34.864  21.124   3.856  0.00  0.00    +0.153 HD
BRANCH  17  19
ATOM     19  O   UNL     1     -35.845  19.828   2.164  0.00  0.00    -0.442 OA
BRANCH  19  20
ATOM     20  C   UNL     1     -34.992  19.813   1.014  0.00  0.00    +0.138 C 
ATOM     21  C   UNL     1     -34.749  21.255   0.571  0.00  0.00    +0.044 C 
ATOM     22  C   UNL     1     -33.680  19.147   1.424  0.00  0.00    +0.044 C 
ATOM     23  C   UNL     1     -35.680  19.011  -0.090  0.00  0.00    +0.044 C 
ENDBRANCH  19  20
ENDBRANCH  17  19
ENDBRANCH   1  16
BRANCH   1  24
ATOM     24  C   UNL     1     -35.086  23.219   5.335  0.00  0.00    +0.027 C 
ATOM     25  C   UNL     1     -35.274  24.650   5.846  0.00  0.00    +0.002 C 
ATOM     26  C   UNL     1     -35.368  22.222   6.463  0.00  0.00    +0.002 C 
ENDBRANCH   1  24
TORSDOF 10
ENDMDL
MODEL 7
REMARK VINA RESULT:      -5.1      5.386      8.153
REMARK  Name = 195076
REMARK  10 active torsions:
REMARK  status: ('A' for Active; 'I' for Inactive)
REMARK    1  A    between atoms: C_1  and  C_4
REMARK    2  A    between atoms: C_1  and  N_16
REMARK    3  A    between atoms: C_1  and  C_24
REMARK    4  A    between atoms: N_3  and  C_6
REMARK    5  A    between atoms: C_6  and  C_9
REMARK    6  A    between atoms: C_6  and  C_12
REMARK    7  A    between atoms: C_9  and  O_10
REMARK    8  A    between atoms: C_12  and  O_13
REMARK    9  A    between atoms: C_17  and  O_19
REMARK   10  A    between atoms: O_19  and  C_20
REMARK                            x       y       z     vdW  Elec       q    Type
REMARK                         _______ _______ _______ _____ _____    ______ ____
ROOT
ATOM      1  C   UNL     1     -33.042  28.158   3.173  0.00  0.00    +0.151 C 
ENDROOT
BRANCH   1   4
ATOM      2  O   UNL     1     -33.107  30.191   4.495  0.00  0.00    -0.273 OA
ATOM      3  N   UNL     1     -31.348  28.711   4.813  0.00  0.00    -0.295 N 
ATOM      4  C   UNL     1     -32.521  29.149   4.213  0.00  0.00    +0.241 C 
ATOM      5  H   UNL     1     -30.958  27.858   4.513  0.00  0.00    +0.150 HD
BRANCH   3   6
ATOM      6  C   UNL     1     -30.676  29.449   5.856  0.00  0.00    +0.174 C 
ATOM      7  C   UNL     1     -30.262  30.818   5.309  0.00  0.00    +0.034 C 
BRANCH   6   9
ATOM      8  O   UNL     1     -29.337  27.493   6.390  0.00  0.00    -0.248 OA
ATOM      9  C   UNL     1     -29.407  28.715   6.305  0.00  0.00    +0.335 C 
BRANCH   9  10
ATOM     10  O   UNL     1     -28.388  29.576   6.591  0.00  0.00    -0.443 OA
ATOM     11  C   UNL     1     -27.950  29.590   7.953  0.00  0.00    +0.256 C 
ENDBRANCH   9  10
ENDBRANCH   6   9
BRANCH   6  12
ATOM     12  C   UNL     1     -31.617  29.620   7.057  0.00  0.00    +0.166 C 
BRANCH  12  13
ATOM     13  O   UNL     1     -32.126  28.363   7.493  0.00  0.00    -0.380 OA
ATOM     14  H   UNL     1     -33.094  28.405   7.537  0.00  0.00    +0.211 HD
ENDBRANCH  12  13
ENDBRANCH   6  12
ENDBRANCH   3   6
ENDBRANCH   1   4
BRANCH   1  16
ATOM     15  O   UNL     1     -33.071  26.248   5.360  0.00  0.00    -0.226 OA
ATOM     16  N   UNL     1     -34.181  27.479   3.737  0.00  0.00    -0.264 N 
ATOM     17  C   UNL     1     -34.101  26.581   4.782  0.00  0.00    +0.402 C 
ATOM     18  H   UNL     1     -35.068  27.666   3.353  0.00  0.00    +0.153 HD
BRANCH  17  19
ATOM     19  O   UNL     1     -35.347  26.110   5.086  0.00  0.00    -0.442 OA
BRANCH  19  20
ATOM     20  C   UNL     1     -35.680  24.827   4.544  0.00  0.00    +0.138 C 
ATOM     21  C   UNL     1     -35.486  23.774   5.634  0.00  0.00    +0.044 C 
ATOM     22  C   UNL     1     -37.140  24.880   4.099  0.00  0.00    +0.044 C 
ATOM     23  C   UNL     1     -34.765  24.551   3.351  0.00  0.00    +0.044 C 
ENDBRANCH  19  20
ENDBRANCH  17  19
ENDBRANCH   1  16
BRANCH   1  24
ATOM     24  C   UNL     1     -33.351  28.838   1.822  0.00  0.00    +0.027 C 
ATOM     25  C   UNL     1     -32.112  29.453   1.162  0.00  0.00    +0.002 C 
ATOM     26  C   UNL     1     -34.025  27.860   0.854  0.00  0.00    +0.002 C 
ENDBRANCH   1  24
TORSDOF 10
ENDMDL
MODEL 8
REMARK VINA RESULT:      -5.1      1.752      2.176
REMARK  Name = 195076
REMARK  10 active torsions:
REMARK  status: ('A' for Active; 'I' for Inactive)
REMARK    1  A    between atoms: C_1  and  C_4
REMARK    2  A    between atoms: C_1  and  N_16
REMARK    3  A    between atoms: C_1  and  C_24
REMARK    4  A    between atoms: N_3  and  C_6
REMARK    5  A    between atoms: C_6  and  C_9
REMARK    6  A    between atoms: C_6  and  C_12
REMARK    7  A    between atoms: C_9  and  O_10
REMARK    8  A    between atoms: C_12  and  O_13
REMARK    9  A    between atoms: C_17  and  O_19
REMARK   10  A    between atoms: O_19  and  C_20
REMARK                            x       y       z     vdW  Elec       q    Type
REMARK                         _______ _______ _______ _____ _____    ______ ____
ROOT
ATOM      1  C   UNL     1     -35.961  23.060   4.010  0.00  0.00    +0.151 C 
ENDROOT
BRANCH   1   4
ATOM      2  O   UNL     1     -34.204  24.118   2.714  0.00  0.00    -0.273 OA
ATOM      3  N   UNL     1     -36.295  25.123   2.789  0.00  0.00    -0.295 N 
ATOM      4  C   UNL     1     -35.365  24.146   3.115  0.00  0.00    +0.241 C 
ATOM      5  H   UNL     1     -37.202  25.053   3.165  0.00  0.00    +0.150 HD
BRANCH   3   6
ATOM      6  C   UNL     1     -35.991  26.239   1.923  0.00  0.00    +0.174 C 
ATOM      7  C   UNL     1     -35.446  25.703   0.595  0.00  0.00    +0.034 C 
BRANCH   6   9
ATOM      8  O   UNL     1     -34.968  27.527   3.711  0.00  0.00    -0.248 OA
ATOM      9  C   UNL     1     -34.914  27.132   2.550  0.00  0.00    +0.335 C 
BRANCH   9  10
ATOM     10  O   UNL     1     -33.913  27.424   1.672  0.00  0.00    -0.443 OA
ATOM     11  C   UNL     1     -32.596  27.486   2.229  0.00  0.00    +0.256 C 
ENDBRANCH   9  10
ENDBRANCH   6   9
BRANCH   6  12
ATOM     12  C   UNL     1     -37.262  27.066   1.680  0.00  0.00    +0.166 C 
BRANCH  12  13
ATOM     13  O   UNL     1     -36.964  28.457   1.618  0.00  0.00    -0.380 OA
ATOM     14  H   UNL     1     -37.338  28.831   0.806  0.00  0.00    +0.211 HD
ENDBRANCH  12  13
ENDBRANCH   6  12
ENDBRANCH   3   6
ENDBRANCH   1   4
BRANCH   1  16
ATOM     15  O   UNL     1     -36.948  21.309   1.914  0.00  0.00    -0.226 OA
ATOM     16  N   UNL     1     -35.420  21.792   3.592  0.00  0.00    -0.264 N 
ATOM     17  C   UNL     1     -35.958  21.022   2.580  0.00  0.00    +0.402 C 
ATOM     18  H   UNL     1     -34.620  21.454   4.056  0.00  0.00    +0.153 HD
BRANCH  17  19
ATOM     19  O   UNL     1     -35.222  19.881   2.423  0.00  0.00    -0.442 OA
BRANCH  19  20
ATOM     20  C   UNL     1     -34.503  19.766   1.190  0.00  0.00    +0.138 C 
ATOM     21  C   UNL     1     -34.050  21.161   0.759  0.00  0.00    +0.044 C 
ATOM     22  C   UNL     1     -33.297  18.863   1.444  0.00  0.00    +0.044 C 
ATOM     23  C   UNL     1     -35.428  19.145   0.144  0.00  0.00    +0.044 C 
ENDBRANCH  19  20
ENDBRANCH  17  19
ENDBRANCH   1  16
BRANCH   1  24
ATOM     24  C   UNL     1     -35.734  23.350   5.510  0.00  0.00    +0.027 C 
ATOM     25  C   UNL     1     -35.144  22.158   6.270  0.00  0.00    +0.002 C 
ATOM     26  C   UNL     1     -34.845  24.582   5.704  0.00  0.00    +0.002 C 
ENDBRANCH   1  24
TORSDOF 10
ENDMDL
MODEL 9
REMARK VINA RESULT:      -5.1      3.012      5.528
REMARK  Name = 195076
REMARK  10 active torsions:
REMARK  status: ('A' for Active; 'I' for Inactive)
REMARK    1  A    between atoms: C_1  and  C_4
REMARK    2  A    between atoms: C_1  and  N_16
REMARK    3  A    between atoms: C_1  and  C_24
REMARK    4  A    between atoms: N_3  and  C_6
REMARK    5  A    between atoms: C_6  and  C_9
REMARK    6  A    between atoms: C_6  and  C_12
REMARK    7  A    between atoms: C_9  and  O_10
REMARK    8  A    between atoms: C_12  and  O_13
REMARK    9  A    between atoms: C_17  and  O_19
REMARK   10  A    between atoms: O_19  and  C_20
REMARK                            x       y       z     vdW  Elec       q    Type
REMARK                         _______ _______ _______ _____ _____    ______ ____
ROOT
ATOM      1  C   UNL     1     -38.927  24.958   2.535  0.00  0.00    +0.151 C 
ENDROOT
BRANCH   1   4
ATOM      2  O   UNL     1     -40.726  25.194   4.145  0.00  0.00    -0.273 OA
ATOM      3  N   UNL     1     -40.875  26.337   2.130  0.00  0.00    -0.295 N 
ATOM      4  C   UNL     1     -40.270  25.482   3.040  0.00  0.00    +0.241 C 
ATOM      5  H   UNL     1     -40.425  26.502   1.269  0.00  0.00    +0.150 HD
BRANCH   3   6
ATOM      6  C   UNL     1     -42.135  26.995   2.387  0.00  0.00    +0.174 C 
ATOM      7  C   UNL     1     -43.275  26.010   2.113  0.00  0.00    +0.034 C 
BRANCH   6   9
ATOM      8  O   UNL     1     -41.371  28.829   0.988  0.00  0.00    -0.248 OA
ATOM      9  C   UNL     1     -42.315  28.200   1.455  0.00  0.00    +0.335 C 
BRANCH   9  10
ATOM     10  O   UNL     1     -43.629  28.475   1.218  0.00  0.00    -0.443 OA
ATOM     11  C   UNL     1     -43.942  29.848   0.966  0.00  0.00    +0.256 C 
ENDBRANCH   9  10
ENDBRANCH   6   9
BRANCH   6  12
ATOM     12  C   UNL     1     -42.182  27.469   3.847  0.00  0.00    +0.166 C 
BRANCH  12  13
ATOM     13  O   UNL     1     -42.197  28.891   3.925  0.00  0.00    -0.380 OA
ATOM     14  H   UNL     1     -43.049  29.222   3.602  0.00  0.00    +0.211 HD
ENDBRANCH  12  13
ENDBRANCH   6  12
ENDBRANCH   3   6
ENDBRANCH   1   4
BRANCH   1  16
ATOM     15  O   UNL     1     -36.415  25.929   3.622  0.00  0.00    -0.226 OA
ATOM     16  N   UNL     1     -38.196  24.442   3.664  0.00  0.00    -0.264 N 
ATOM     17  C   UNL     1     -37.002  24.970   4.113  0.00  0.00    +0.402 C 
ATOM     18  H   UNL     1     -38.570  23.668   4.143  0.00  0.00    +0.153 HD
BRANCH  17  19
ATOM     19  O   UNL     1     -36.561  24.263   5.197  0.00  0.00    -0.442 OA
BRANCH  19  20
ATOM     20  C   UNL     1     -35.431  23.413   4.971  0.00  0.00    +0.138 C 
ATOM     21  C   UNL     1     -35.326  22.426   6.133  0.00  0.00    +0.044 C 
ATOM     22  C   UNL     1     -35.668  22.673   3.656  0.00  0.00    +0.044 C 
ATOM     23  C   UNL     1     -34.178  24.283   4.880  0.00  0.00    +0.044 C 
ENDBRANCH  19  20
ENDBRANCH  17  19
ENDBRANCH   1  16
BRANCH   1  24
ATOM     24  C   UNL     1     -39.093  23.926   1.399  0.00  0.00    +0.027 C 
ATOM     25  C   UNL     1     -37.810  23.711   0.590  0.00  0.00    +0.002 C 
ATOM     26  C   UNL     1     -39.597  22.585   1.942  0.00  0.00    +0.002 C 
ENDBRANCH   1  24
TORSDOF 10
ENDMDL
