MODEL 1
REMARK VINA RESULT:      -6.1      0.000      0.000
REMARK  Name = 5492363
REMARK  9 active torsions:
REMARK  status: ('A' for Active; 'I' for Inactive)
REMARK    1  A    between atoms: N_2  and  C_18
REMARK    2  A    between atoms: C_3  and  C_5
REMARK    3  A    between atoms: C_5  and  N_7
REMARK    4  A    between atoms: C_5  and  C_11
REMARK    5  A    between atoms: C_11  and  C_12
REMARK    6  A    between atoms: C_18  and  C_20
REMARK    7  A    between atoms: C_18  and  S_23
REMARK    8  A    between atoms: C_20  and  O_21
REMARK    9  A    between atoms: S_23  and  C_24
REMARK                            x       y       z     vdW  Elec       q    Type
REMARK                         _______ _______ _______ _____ _____    ______ ____
ROOT
ATOM      1  O   UNL     1     -36.791  23.473   2.216  0.00  0.00    -0.273 OA
ATOM      2  N   UNL     1     -37.466  21.402   1.414  0.00  0.00    -0.287 N 
ATOM      3  C   UNL     1     -36.597  22.268   2.063  0.00  0.00    +0.242 C 
ATOM      4  H   UNL     1     -37.215  20.452   1.345  0.00  0.00    +0.151 HD
ENDROOT
BRANCH   3   5
ATOM      5  C   UNL     1     -35.400  21.549   2.670  0.00  0.00    +0.153 C 
BRANCH   5   7
ATOM      6  O   UNL     1     -34.538  23.417   4.719  0.00  0.00    -0.275 OA
ATOM      7  N   UNL     1     -35.686  21.494   4.084  0.00  0.00    -0.298 N 
ATOM      8  C   UNL     1     -35.228  22.436   4.988  0.00  0.00    +0.223 C 
ATOM      9  C   UNL     1     -35.693  22.155   6.392  0.00  0.00    +0.095 C 
ATOM     10  H   UNL     1     -36.234  20.749   4.421  0.00  0.00    +0.150 HD
ENDBRANCH   5   7
BRANCH   5  11
ATOM     11  C   UNL     1     -35.234  20.138   2.099  0.00  0.00    +0.055 C 
BRANCH  11  12
ATOM     12  C   UNL     1     -33.934  19.951   1.357  0.00  0.00    -0.020 C 
ATOM     13  C   UNL     1     -33.217  18.763   1.495  0.00  0.00    -0.004 C 
ATOM     14  C   UNL     1     -33.448  20.967   0.533  0.00  0.00    -0.004 C 
ATOM     15  C   UNL     1     -32.015  18.590   0.809  0.00  0.00    -0.000 C 
ATOM     16  C   UNL     1     -32.246  20.794  -0.153  0.00  0.00    -0.000 C 
ATOM     17  C   UNL     1     -31.529  19.605  -0.015  0.00  0.00    -0.000 C 
ENDBRANCH  11  12
ENDBRANCH   5  11
ENDBRANCH   3   5
BRANCH   2  18
ATOM     18  C   UNL     1     -38.724  21.831   0.833  0.00  0.00    +0.225 C 
BRANCH  18  20
ATOM     19  O   UNL     1     -40.133  23.129   2.313  0.00  0.00    -0.247 OA
ATOM     20  C   UNL     1     -39.803  22.027   1.887  0.00  0.00    +0.343 C 
BRANCH  20  21
ATOM     21  O   UNL     1     -40.388  20.883   2.321  0.00  0.00    -0.478 OA
ATOM     22  H   UNL     1     -39.858  20.153   2.573  0.00  0.00    +0.295 HD
ENDBRANCH  20  21
ENDBRANCH  18  20
BRANCH  18  23
ATOM     23  S   UNL     1     -39.331  20.561  -0.330  0.00  0.00    -0.083 S 
BRANCH  23  24
ATOM     24  C   UNL     1     -37.796  19.798  -0.836  0.00  0.00    +0.027 C 
ATOM     25  C   UNL     1     -37.466  18.523  -0.376  0.00  0.00    +0.006 C 
ATOM     26  C   UNL     1     -36.927  20.478  -1.689  0.00  0.00    +0.006 C 
ATOM     27  C   UNL     1     -36.268  17.927  -0.771  0.00  0.00    +0.001 C 
ATOM     28  C   UNL     1     -35.729  19.882  -2.084  0.00  0.00    +0.001 C 
ATOM     29  C   UNL     1     -35.400  18.607  -1.625  0.00  0.00    +0.000 C 
ENDBRANCH  23  24
ENDBRANCH  18  23
ENDBRANCH   2  18
TORSDOF 9
ENDMDL
MODEL 2
REMARK VINA RESULT:      -6.0      0.807      1.630
REMARK  Name = 5492363
REMARK  9 active torsions:
REMARK  status: ('A' for Active; 'I' for Inactive)
REMARK    1  A    between atoms: N_2  and  C_18
REMARK    2  A    between atoms: C_3  and  C_5
REMARK    3  A    between atoms: C_5  and  N_7
REMARK    4  A    between atoms: C_5  and  C_11
REMARK    5  A    between atoms: C_11  and  C_12
REMARK    6  A    between atoms: C_18  and  C_20
REMARK    7  A    between atoms: C_18  and  S_23
REMARK    8  A    between atoms: C_20  and  O_21
REMARK    9  A    between atoms: S_23  and  C_24
REMARK                            x       y       z     vdW  Elec       q    Type
REMARK                         _______ _______ _______ _____ _____    ______ ____
ROOT
ATOM      1  O   UNL     1     -37.856  22.979   3.150  0.00  0.00    -0.273 OA
ATOM      2  N   UNL     1     -37.650  21.821   1.149  0.00  0.00    -0.287 N 
ATOM      3  C   UNL     1     -37.209  22.262   2.389  0.00  0.00    +0.242 C 
ATOM      4  H   UNL     1     -37.052  21.248   0.615  0.00  0.00    +0.151 HD
ENDROOT
BRANCH   3   5
ATOM      5  C   UNL     1     -35.855  21.677   2.769  0.00  0.00    +0.153 C 
BRANCH   5   7
ATOM      6  O   UNL     1     -34.625  23.450   4.711  0.00  0.00    -0.275 OA
ATOM      7  N   UNL     1     -35.898  21.567   4.208  0.00  0.00    -0.298 N 
ATOM      8  C   UNL     1     -35.276  22.466   5.056  0.00  0.00    +0.223 C 
ATOM      9  C   UNL     1     -35.500  22.132   6.507  0.00  0.00    +0.095 C 
ATOM     10  H   UNL     1     -36.393  20.814   4.605  0.00  0.00    +0.150 HD
ENDBRANCH   5   7
BRANCH   5  11
ATOM     11  C   UNL     1     -35.630  20.303   2.131  0.00  0.00    +0.055 C 
BRANCH  11  12
ATOM     12  C   UNL     1     -34.313  20.201   1.400  0.00  0.00    -0.020 C 
ATOM     13  C   UNL     1     -33.847  21.280   0.649  0.00  0.00    -0.004 C 
ATOM     14  C   UNL     1     -33.563  19.027   1.476  0.00  0.00    -0.004 C 
ATOM     15  C   UNL     1     -32.631  21.185  -0.026  0.00  0.00    -0.000 C 
ATOM     16  C   UNL     1     -32.346  18.932   0.800  0.00  0.00    -0.000 C 
ATOM     17  C   UNL     1     -31.880  20.012   0.049  0.00  0.00    -0.000 C 
ENDBRANCH  11  12
ENDBRANCH   5  11
ENDBRANCH   3   5
BRANCH   2  18
ATOM     18  C   UNL     1     -38.949  22.165   0.603  0.00  0.00    +0.225 C 
BRANCH  18  20
ATOM     19  O   UNL     1     -40.903  20.750   0.403  0.00  0.00    -0.247 OA
ATOM     20  C   UNL     1     -40.048  21.251   1.125  0.00  0.00    +0.343 C 
BRANCH  20  21
ATOM     21  O   UNL     1     -40.008  21.019   2.459  0.00  0.00    -0.478 OA
ATOM     22  H   UNL     1     -39.183  20.975   2.903  0.00  0.00    +0.295 HD
ENDBRANCH  20  21
ENDBRANCH  18  20
BRANCH  18  23
ATOM     23  S   UNL     1     -38.921  21.991  -1.215  0.00  0.00    -0.083 S 
BRANCH  23  24
ATOM     24  C   UNL     1     -37.636  20.765  -1.421  0.00  0.00    +0.027 C 
ATOM     25  C   UNL     1     -36.453  21.100  -2.079  0.00  0.00    +0.006 C 
ATOM     26  C   UNL     1     -37.817  19.475  -0.924  0.00  0.00    +0.006 C 
ATOM     27  C   UNL     1     -35.450  20.144  -2.240  0.00  0.00    +0.001 C 
ATOM     28  C   UNL     1     -36.814  18.519  -1.085  0.00  0.00    +0.001 C 
ATOM     29  C   UNL     1     -35.630  18.853  -1.742  0.00  0.00    +0.000 C 
ENDBRANCH  23  24
ENDBRANCH  18  23
ENDBRANCH   2  18
TORSDOF 9
ENDMDL
MODEL 3
REMARK VINA RESULT:      -5.9      2.375      5.249
REMARK  Name = 5492363
REMARK  9 active torsions:
REMARK  status: ('A' for Active; 'I' for Inactive)
REMARK    1  A    between atoms: N_2  and  C_18
REMARK    2  A    between atoms: C_3  and  C_5
REMARK    3  A    between atoms: C_5  and  N_7
REMARK    4  A    between atoms: C_5  and  C_11
REMARK    5  A    between atoms: C_11  and  C_12
REMARK    6  A    between atoms: C_18  and  C_20
REMARK    7  A    between atoms: C_18  and  S_23
REMARK    8  A    between atoms: C_20  and  O_21
REMARK    9  A    between atoms: S_23  and  C_24
REMARK                            x       y       z     vdW  Elec       q    Type
REMARK                         _______ _______ _______ _____ _____    ______ ____
ROOT
ATOM      1  O   UNL     1     -35.558  20.753   3.518  0.00  0.00    -0.273 OA
ATOM      2  N   UNL     1     -36.891  21.550   1.792  0.00  0.00    -0.287 N 
ATOM      3  C   UNL     1     -35.864  20.784   2.327  0.00  0.00    +0.242 C 
ATOM      4  H   UNL     1     -37.054  21.503   0.822  0.00  0.00    +0.151 HD
ENDROOT
BRANCH   3   5
ATOM      5  C   UNL     1     -35.201  19.889   1.289  0.00  0.00    +0.153 C 
BRANCH   5   7
ATOM      6  O   UNL     1     -35.528  17.457  -0.263  0.00  0.00    -0.275 OA
ATOM      7  N   UNL     1     -36.251  19.584   0.346  0.00  0.00    -0.298 N 
ATOM      8  C   UNL     1     -36.322  18.391  -0.350  0.00  0.00    +0.223 C 
ATOM      9  C   UNL     1     -37.530  18.323  -1.247  0.00  0.00    +0.095 C 
ATOM     10  H   UNL     1     -36.951  20.260   0.191  0.00  0.00    +0.150 HD
ENDBRANCH   5   7
BRANCH   5  11
ATOM     11  C   UNL     1     -34.037  20.596   0.588  0.00  0.00    +0.055 C 
BRANCH  11  12
ATOM     12  C   UNL     1     -32.769  19.778   0.581  0.00  0.00    -0.020 C 
ATOM     13  C   UNL     1     -31.658  20.222  -0.136  0.00  0.00    -0.004 C 
ATOM     14  C   UNL     1     -32.708  18.578   1.291  0.00  0.00    -0.004 C 
ATOM     15  C   UNL     1     -30.485  19.466  -0.143  0.00  0.00    -0.000 C 
ATOM     16  C   UNL     1     -31.536  17.822   1.284  0.00  0.00    -0.000 C 
ATOM     17  C   UNL     1     -30.424  18.266   0.567  0.00  0.00    -0.000 C 
ENDBRANCH  11  12
ENDBRANCH   5  11
ENDBRANCH   3   5
BRANCH   2  18
ATOM     18  C   UNL     1     -37.734  22.415   2.595  0.00  0.00    +0.225 C 
BRANCH  18  20
ATOM     19  O   UNL     1     -40.043  23.058   2.254  0.00  0.00    -0.247 OA
ATOM     20  C   UNL     1     -39.213  22.159   2.349  0.00  0.00    +0.343 C 
BRANCH  20  21
ATOM     21  O   UNL     1     -39.552  20.852   2.230  0.00  0.00    -0.478 OA
ATOM     22  H   UNL     1     -39.913  20.393   2.963  0.00  0.00    +0.295 HD
ENDBRANCH  20  21
ENDBRANCH  18  20
BRANCH  18  23
ATOM     23  S   UNL     1     -37.411  24.161   2.168  0.00  0.00    -0.083 S 
BRANCH  23  24
ATOM     24  C   UNL     1     -36.292  24.632   3.481  0.00  0.00    +0.027 C 
ATOM     25  C   UNL     1     -34.951  24.252   3.424  0.00  0.00    +0.006 C 
ATOM     26  C   UNL     1     -36.760  25.379   4.561  0.00  0.00    +0.006 C 
ATOM     27  C   UNL     1     -34.078  24.619   4.448  0.00  0.00    +0.001 C 
ATOM     28  C   UNL     1     -35.887  25.746   5.585  0.00  0.00    +0.001 C 
ATOM     29  C   UNL     1     -34.546  25.367   5.528  0.00  0.00    +0.000 C 
ENDBRANCH  23  24
ENDBRANCH  18  23
ENDBRANCH   2  18
TORSDOF 9
ENDMDL
MODEL 4
REMARK VINA RESULT:      -5.9      2.251      4.399
REMARK  Name = 5492363
REMARK  9 active torsions:
REMARK  status: ('A' for Active; 'I' for Inactive)
REMARK    1  A    between atoms: N_2  and  C_18
REMARK    2  A    between atoms: C_3  and  C_5
REMARK    3  A    between atoms: C_5  and  N_7
REMARK    4  A    between atoms: C_5  and  C_11
REMARK    5  A    between atoms: C_11  and  C_12
REMARK    6  A    between atoms: C_18  and  C_20
REMARK    7  A    between atoms: C_18  and  S_23
REMARK    8  A    between atoms: C_20  and  O_21
REMARK    9  A    between atoms: S_23  and  C_24
REMARK                            x       y       z     vdW  Elec       q    Type
REMARK                         _______ _______ _______ _____ _____    ______ ____
ROOT
ATOM      1  O   UNL     1     -37.772  23.288   3.392  0.00  0.00    -0.273 OA
ATOM      2  N   UNL     1     -38.020  21.802   1.626  0.00  0.00    -0.287 N 
ATOM      3  C   UNL     1     -37.319  22.411   2.657  0.00  0.00    +0.242 C 
ATOM      4  H   UNL     1     -37.564  21.109   1.095  0.00  0.00    +0.151 HD
ENDROOT
BRANCH   3   5
ATOM      5  C   UNL     1     -35.937  21.806   2.863  0.00  0.00    +0.153 C 
BRANCH   5   7
ATOM      6  O   UNL     1     -34.639  23.553   4.784  0.00  0.00    -0.275 OA
ATOM      7  N   UNL     1     -35.831  21.616   4.290  0.00  0.00    -0.298 N 
ATOM      8  C   UNL     1     -35.188  22.510   5.129  0.00  0.00    +0.223 C 
ATOM      9  C   UNL     1     -35.247  22.083   6.571  0.00  0.00    +0.095 C 
ATOM     10  H   UNL     1     -36.235  20.810   4.686  0.00  0.00    +0.150 HD
ENDBRANCH   5   7
BRANCH   5  11
ATOM     11  C   UNL     1     -35.786  20.470   2.129  0.00  0.00    +0.055 C 
BRANCH  11  12
ATOM     12  C   UNL     1     -34.462  20.335   1.417  0.00  0.00    -0.020 C 
ATOM     13  C   UNL     1     -33.711  19.169   1.560  0.00  0.00    -0.004 C 
ATOM     14  C   UNL     1     -33.991  21.376   0.617  0.00  0.00    -0.004 C 
ATOM     15  C   UNL     1     -32.487  19.043   0.902  0.00  0.00    -0.000 C 
ATOM     16  C   UNL     1     -32.767  21.251  -0.041  0.00  0.00    -0.000 C 
ATOM     17  C   UNL     1     -32.014  20.084   0.102  0.00  0.00    -0.000 C 
ENDBRANCH  11  12
ENDBRANCH   5  11
ENDBRANCH   3   5
BRANCH   2  18
ATOM     18  C   UNL     1     -39.391  22.138   1.294  0.00  0.00    +0.225 C 
BRANCH  18  20
ATOM     19  O   UNL     1     -41.290  21.016   0.298  0.00  0.00    -0.247 OA
ATOM     20  C   UNL     1     -40.088  21.016   0.539  0.00  0.00    +0.343 C 
BRANCH  20  21
ATOM     21  O   UNL     1     -39.273  20.010   0.139  0.00  0.00    -0.478 OA
ATOM     22  H   UNL     1     -39.143  19.848  -0.775  0.00  0.00    +0.295 HD
ENDBRANCH  20  21
ENDBRANCH  18  20
BRANCH  18  23
ATOM     23  S   UNL     1     -39.421  23.612   0.216  0.00  0.00    -0.083 S 
BRANCH  23  24
ATOM     24  C   UNL     1     -40.629  24.627   1.058  0.00  0.00    +0.027 C 
ATOM     25  C   UNL     1     -41.962  24.609   0.648  0.00  0.00    +0.006 C 
ATOM     26  C   UNL     1     -40.237  25.436   2.124  0.00  0.00    +0.006 C 
ATOM     27  C   UNL     1     -42.904  25.401   1.305  0.00  0.00    +0.001 C 
ATOM     28  C   UNL     1     -41.180  26.227   2.781  0.00  0.00    +0.001 C 
ATOM     29  C   UNL     1     -42.513  26.210   2.372  0.00  0.00    +0.000 C 
ENDBRANCH  23  24
ENDBRANCH  18  23
ENDBRANCH   2  18
TORSDOF 9
ENDMDL
MODEL 5
REMARK VINA RESULT:      -5.6      2.823      5.990
REMARK  Name = 5492363
REMARK  9 active torsions:
REMARK  status: ('A' for Active; 'I' for Inactive)
REMARK    1  A    between atoms: N_2  and  C_18
REMARK    2  A    between atoms: C_3  and  C_5
REMARK    3  A    between atoms: C_5  and  N_7
REMARK    4  A    between atoms: C_5  and  C_11
REMARK    5  A    between atoms: C_11  and  C_12
REMARK    6  A    between atoms: C_18  and  C_20
REMARK    7  A    between atoms: C_18  and  S_23
REMARK    8  A    between atoms: C_20  and  O_21
REMARK    9  A    between atoms: S_23  and  C_24
REMARK                            x       y       z     vdW  Elec       q    Type
REMARK                         _______ _______ _______ _____ _____    ______ ____
ROOT
ATOM      1  O   UNL     1     -34.414  23.283   1.589  0.00  0.00    -0.273 OA
ATOM      2  N   UNL     1     -35.608  21.996   3.109  0.00  0.00    -0.287 N 
ATOM      3  C   UNL     1     -35.158  22.336   1.840  0.00  0.00    +0.242 C 
ATOM      4  H   UNL     1     -36.202  21.217   3.202  0.00  0.00    +0.151 HD
ENDROOT
BRANCH   3   5
ATOM      5  C   UNL     1     -35.603  21.340   0.777  0.00  0.00    +0.153 C 
BRANCH   5   7
ATOM      6  O   UNL     1     -38.339  21.220   1.741  0.00  0.00    -0.275 OA
ATOM      7  N   UNL     1     -36.771  21.944   0.180  0.00  0.00    -0.298 N 
ATOM      8  C   UNL     1     -38.041  21.829   0.716  0.00  0.00    +0.223 C 
ATOM      9  C   UNL     1     -39.071  22.575  -0.090  0.00  0.00    +0.095 C 
ATOM     10  H   UNL     1     -36.658  22.461  -0.650  0.00  0.00    +0.150 HD
ENDBRANCH   5   7
BRANCH   5  11
ATOM     11  C   UNL     1     -34.517  21.111  -0.278  0.00  0.00    +0.055 C 
BRANCH  11  12
ATOM     12  C   UNL     1     -33.452  20.142   0.173  0.00  0.00    -0.020 C 
ATOM     13  C   UNL     1     -32.131  20.316  -0.240  0.00  0.00    -0.004 C 
ATOM     14  C   UNL     1     -33.789  19.071   1.002  0.00  0.00    -0.004 C 
ATOM     15  C   UNL     1     -31.147  19.419   0.177  0.00  0.00    -0.000 C 
ATOM     16  C   UNL     1     -32.805  18.174   1.418  0.00  0.00    -0.000 C 
ATOM     17  C   UNL     1     -31.483  18.348   1.006  0.00  0.00    -0.000 C 
ENDBRANCH  11  12
ENDBRANCH   5  11
ENDBRANCH   3   5
BRANCH   2  18
ATOM     18  C   UNL     1     -35.243  22.736   4.302  0.00  0.00    +0.225 C 
BRANCH  18  20
ATOM     19  O   UNL     1     -35.919  22.402   6.602  0.00  0.00    -0.247 OA
ATOM     20  C   UNL     1     -35.464  21.923   5.568  0.00  0.00    +0.343 C 
BRANCH  20  21
ATOM     21  O   UNL     1     -35.130  20.613   5.469  0.00  0.00    -0.478 OA
ATOM     22  H   UNL     1     -35.766  19.988   5.183  0.00  0.00    +0.295 HD
ENDBRANCH  20  21
ENDBRANCH  18  20
BRANCH  18  23
ATOM     23  S   UNL     1     -36.274  24.237   4.438  0.00  0.00    -0.083 S 
BRANCH  23  24
ATOM     24  C   UNL     1     -35.019  25.504   4.565  0.00  0.00    +0.027 C 
ATOM     25  C   UNL     1     -34.358  25.712   5.776  0.00  0.00    +0.006 C 
ATOM     26  C   UNL     1     -34.701  26.284   3.454  0.00  0.00    +0.006 C 
ATOM     27  C   UNL     1     -33.379  26.700   5.875  0.00  0.00    +0.001 C 
ATOM     28  C   UNL     1     -33.721  27.272   3.553  0.00  0.00    +0.001 C 
ATOM     29  C   UNL     1     -33.060  27.480   4.763  0.00  0.00    +0.000 C 
ENDBRANCH  23  24
ENDBRANCH  18  23
ENDBRANCH   2  18
TORSDOF 9
ENDMDL
MODEL 6
REMARK VINA RESULT:      -5.6      2.832      5.030
REMARK  Name = 5492363
REMARK  9 active torsions:
REMARK  status: ('A' for Active; 'I' for Inactive)
REMARK    1  A    between atoms: N_2  and  C_18
REMARK    2  A    between atoms: C_3  and  C_5
REMARK    3  A    between atoms: C_5  and  N_7
REMARK    4  A    between atoms: C_5  and  C_11
REMARK    5  A    between atoms: C_11  and  C_12
REMARK    6  A    between atoms: C_18  and  C_20
REMARK    7  A    between atoms: C_18  and  S_23
REMARK    8  A    between atoms: C_20  and  O_21
REMARK    9  A    between atoms: S_23  and  C_24
REMARK                            x       y       z     vdW  Elec       q    Type
REMARK                         _______ _______ _______ _____ _____    ______ ____
ROOT
ATOM      1  O   UNL     1     -38.068  21.944   2.277  0.00  0.00    -0.273 OA
ATOM      2  N   UNL     1     -36.799  23.888   2.281  0.00  0.00    -0.287 N 
ATOM      3  C   UNL     1     -36.994  22.522   2.435  0.00  0.00    +0.242 C 
ATOM      4  H   UNL     1     -35.896  24.252   2.432  0.00  0.00    +0.151 HD
ENDROOT
BRANCH   3   5
ATOM      5  C   UNL     1     -35.699  21.776   2.728  0.00  0.00    +0.153 C 
BRANCH   5   7
ATOM      6  O   UNL     1     -34.739  23.580   4.790  0.00  0.00    -0.275 OA
ATOM      7  N   UNL     1     -35.716  21.564   4.156  0.00  0.00    -0.298 N 
ATOM      8  C   UNL     1     -35.232  22.489   5.065  0.00  0.00    +0.223 C 
ATOM      9  C   UNL     1     -35.394  22.028   6.490  0.00  0.00    +0.095 C 
ATOM     10  H   UNL     1     -36.089  20.721   4.500  0.00  0.00    +0.150 HD
ENDBRANCH   5   7
BRANCH   5  11
ATOM     11  C   UNL     1     -35.634  20.438   1.986  0.00  0.00    +0.055 C 
BRANCH  11  12
ATOM     12  C   UNL     1     -34.288  20.179   1.354  0.00  0.00    -0.020 C 
ATOM     13  C   UNL     1     -33.613  18.987   1.615  0.00  0.00    -0.004 C 
ATOM     14  C   UNL     1     -33.720  21.132   0.508  0.00  0.00    -0.004 C 
ATOM     15  C   UNL     1     -32.369  18.748   1.031  0.00  0.00    -0.000 C 
ATOM     16  C   UNL     1     -32.476  20.894  -0.076  0.00  0.00    -0.000 C 
ATOM     17  C   UNL     1     -31.800  19.701   0.185  0.00  0.00    -0.000 C 
ENDBRANCH  11  12
ENDBRANCH   5  11
ENDBRANCH   3   5
BRANCH   2  18
ATOM     18  C   UNL     1     -37.861  24.802   1.909  0.00  0.00    +0.225 C 
BRANCH  18  20
ATOM     19  O   UNL     1     -36.835  26.204   0.223  0.00  0.00    -0.247 OA
ATOM     20  C   UNL     1     -37.321  26.107   1.345  0.00  0.00    +0.343 C 
BRANCH  20  21
ATOM     21  O   UNL     1     -37.424  27.172   2.178  0.00  0.00    -0.478 OA
ATOM     22  H   UNL     1     -38.203  27.296   2.685  0.00  0.00    +0.295 HD
ENDBRANCH  20  21
ENDBRANCH  18  20
BRANCH  18  23
ATOM     23  S   UNL     1     -38.858  25.222   3.380  0.00  0.00    -0.083 S 
BRANCH  23  24
ATOM     24  C   UNL     1     -40.477  25.424   2.650  0.00  0.00    +0.027 C 
ATOM     25  C   UNL     1     -41.372  26.353   3.182  0.00  0.00    +0.006 C 
ATOM     26  C   UNL     1     -40.847  24.652   1.550  0.00  0.00    +0.006 C 
ATOM     27  C   UNL     1     -42.635  26.510   2.613  0.00  0.00    +0.001 C 
ATOM     28  C   UNL     1     -42.110  24.809   0.980  0.00  0.00    +0.001 C 
ATOM     29  C   UNL     1     -43.004  25.739   1.511  0.00  0.00    +0.000 C 
ENDBRANCH  23  24
ENDBRANCH  18  23
ENDBRANCH   2  18
TORSDOF 9
ENDMDL
MODEL 7
REMARK VINA RESULT:      -5.6      2.394      4.799
REMARK  Name = 5492363
REMARK  9 active torsions:
REMARK  status: ('A' for Active; 'I' for Inactive)
REMARK    1  A    between atoms: N_2  and  C_18
REMARK    2  A    between atoms: C_3  and  C_5
REMARK    3  A    between atoms: C_5  and  N_7
REMARK    4  A    between atoms: C_5  and  C_11
REMARK    5  A    between atoms: C_11  and  C_12
REMARK    6  A    between atoms: C_18  and  C_20
REMARK    7  A    between atoms: C_18  and  S_23
REMARK    8  A    between atoms: C_20  and  O_21
REMARK    9  A    between atoms: S_23  and  C_24
REMARK                            x       y       z     vdW  Elec       q    Type
REMARK                         _______ _______ _______ _____ _____    ______ ____
ROOT
ATOM      1  O   UNL     1     -36.788  22.649   0.988  0.00  0.00    -0.273 OA
ATOM      2  N   UNL     1     -37.344  23.006   3.213  0.00  0.00    -0.287 N 
ATOM      3  C   UNL     1     -36.606  22.436   2.186  0.00  0.00    +0.242 C 
ATOM      4  H   UNL     1     -37.117  22.768   4.142  0.00  0.00    +0.151 HD
ENDROOT
BRANCH   3   5
ATOM      5  C   UNL     1     -35.456  21.578   2.698  0.00  0.00    +0.153 C 
BRANCH   5   7
ATOM      6  O   UNL     1     -34.358  23.089   4.921  0.00  0.00    -0.275 OA
ATOM      7  N   UNL     1     -35.735  21.398   4.103  0.00  0.00    -0.298 N 
ATOM      8  C   UNL     1     -35.158  22.172   5.095  0.00  0.00    +0.223 C 
ATOM      9  C   UNL     1     -35.641  21.792   6.470  0.00  0.00    +0.095 C 
ATOM     10  H   UNL     1     -36.365  20.690   4.369  0.00  0.00    +0.150 HD
ENDBRANCH   5   7
BRANCH   5  11
ATOM     11  C   UNL     1     -35.394  20.225   1.984  0.00  0.00    +0.055 C 
BRANCH  11  12
ATOM     12  C   UNL     1     -34.057  19.959   1.338  0.00  0.00    -0.020 C 
ATOM     13  C   UNL     1     -33.495  20.907   0.484  0.00  0.00    -0.004 C 
ATOM     14  C   UNL     1     -33.383  18.764   1.596  0.00  0.00    -0.004 C 
ATOM     15  C   UNL     1     -32.258  20.661  -0.113  0.00  0.00    -0.000 C 
ATOM     16  C   UNL     1     -32.147  18.518   0.998  0.00  0.00    -0.000 C 
ATOM     17  C   UNL     1     -31.584  19.467   0.143  0.00  0.00    -0.000 C 
ENDBRANCH  11  12
ENDBRANCH   5  11
ENDBRANCH   3   5
BRANCH   2  18
ATOM     18  C   UNL     1     -38.434  23.936   2.983  0.00  0.00    +0.225 C 
BRANCH  18  20
ATOM     19  O   UNL     1     -40.175  22.452   2.193  0.00  0.00    -0.247 OA
ATOM     20  C   UNL     1     -39.434  23.403   1.969  0.00  0.00    +0.343 C 
BRANCH  20  21
ATOM     21  O   UNL     1     -39.456  24.070   0.789  0.00  0.00    -0.478 OA
ATOM     22  H   UNL     1     -38.655  24.252   0.339  0.00  0.00    +0.295 HD
ENDBRANCH  20  21
ENDBRANCH  18  20
BRANCH  18  23
ATOM     23  S   UNL     1     -37.777  25.505   2.320  0.00  0.00    -0.083 S 
BRANCH  23  24
ATOM     24  C   UNL     1     -36.446  25.832   3.468  0.00  0.00    +0.027 C 
ATOM     25  C   UNL     1     -35.184  26.187   2.991  0.00  0.00    +0.006 C 
ATOM     26  C   UNL     1     -36.670  25.731   4.841  0.00  0.00    +0.006 C 
ATOM     27  C   UNL     1     -34.147  26.442   3.888  0.00  0.00    +0.001 C 
ATOM     28  C   UNL     1     -35.632  25.986   5.737  0.00  0.00    +0.001 C 
ATOM     29  C   UNL     1     -34.371  26.342   5.261  0.00  0.00    +0.000 C 
ENDBRANCH  23  24
ENDBRANCH  18  23
ENDBRANCH   2  18
TORSDOF 9
ENDMDL
MODEL 8
REMARK VINA RESULT:      -5.5      2.578      5.026
REMARK  Name = 5492363
REMARK  9 active torsions:
REMARK  status: ('A' for Active; 'I' for Inactive)
REMARK    1  A    between atoms: N_2  and  C_18
REMARK    2  A    between atoms: C_3  and  C_5
REMARK    3  A    between atoms: C_5  and  N_7
REMARK    4  A    between atoms: C_5  and  C_11
REMARK    5  A    between atoms: C_11  and  C_12
REMARK    6  A    between atoms: C_18  and  C_20
REMARK    7  A    between atoms: C_18  and  S_23
REMARK    8  A    between atoms: C_20  and  O_21
REMARK    9  A    between atoms: S_23  and  C_24
REMARK                            x       y       z     vdW  Elec       q    Type
REMARK                         _______ _______ _______ _____ _____    ______ ____
ROOT
ATOM      1  O   UNL     1     -35.988  20.476  -0.832  0.00  0.00    -0.273 OA
ATOM      2  N   UNL     1     -36.297  18.718   0.652  0.00  0.00    -0.287 N 
ATOM      3  C   UNL     1     -36.151  20.056   0.313  0.00  0.00    +0.242 C 
ATOM      4  H   UNL     1     -36.423  18.487   1.601  0.00  0.00    +0.151 HD
ENDROOT
BRANCH   3   5
ATOM      5  C   UNL     1     -36.316  20.984   1.509  0.00  0.00    +0.153 C 
BRANCH   5   7
ATOM      6  O   UNL     1     -38.362  23.041   1.396  0.00  0.00    -0.275 OA
ATOM      7  N   UNL     1     -37.707  20.860   1.877  0.00  0.00    -0.298 N 
ATOM      8  C   UNL     1     -38.611  21.904   1.788  0.00  0.00    +0.223 C 
ATOM      9  C   UNL     1     -39.997  21.496   2.210  0.00  0.00    +0.095 C 
ATOM     10  H   UNL     1     -38.027  19.989   2.207  0.00  0.00    +0.150 HD
ENDBRANCH   5   7
BRANCH   5  11
ATOM     11  C   UNL     1     -35.412  20.575   2.675  0.00  0.00    +0.055 C 
BRANCH  11  12
ATOM     12  C   UNL     1     -35.336  21.623   3.758  0.00  0.00    -0.020 C 
ATOM     13  C   UNL     1     -35.240  21.239   5.095  0.00  0.00    -0.004 C 
ATOM     14  C   UNL     1     -35.361  22.977   3.421  0.00  0.00    -0.004 C 
ATOM     15  C   UNL     1     -35.170  22.208   6.096  0.00  0.00    -0.000 C 
ATOM     16  C   UNL     1     -35.291  23.947   4.422  0.00  0.00    -0.000 C 
ATOM     17  C   UNL     1     -35.195  23.562   5.760  0.00  0.00    -0.000 C 
ENDBRANCH  11  12
ENDBRANCH   5  11
ENDBRANCH   3   5
BRANCH   2  18
ATOM     18  C   UNL     1     -36.273  17.646  -0.325  0.00  0.00    +0.225 C 
BRANCH  18  20
ATOM     19  O   UNL     1     -38.549  16.900  -0.680  0.00  0.00    -0.247 OA
ATOM     20  C   UNL     1     -37.454  16.701  -0.165  0.00  0.00    +0.343 C 
BRANCH  20  21
ATOM     21  O   UNL     1     -37.203  15.602   0.589  0.00  0.00    -0.478 OA
ATOM     22  H   UNL     1     -37.498  14.760   0.303  0.00  0.00    +0.295 HD
ENDBRANCH  20  21
ENDBRANCH  18  20
BRANCH  18  23
ATOM     23  S   UNL     1     -34.755  16.654  -0.116  0.00  0.00    -0.083 S 
BRANCH  23  24
ATOM     24  C   UNL     1     -33.497  17.912  -0.291  0.00  0.00    +0.027 C 
ATOM     25  C   UNL     1     -33.219  18.449  -1.548  0.00  0.00    +0.006 C 
ATOM     26  C   UNL     1     -32.794  18.355   0.828  0.00  0.00    +0.006 C 
ATOM     27  C   UNL     1     -32.237  19.431  -1.685  0.00  0.00    +0.001 C 
ATOM     28  C   UNL     1     -31.812  19.337   0.691  0.00  0.00    +0.001 C 
ATOM     29  C   UNL     1     -31.534  19.875  -0.565  0.00  0.00    +0.000 C 
ENDBRANCH  23  24
ENDBRANCH  18  23
ENDBRANCH   2  18
TORSDOF 9
ENDMDL
MODEL 9
REMARK VINA RESULT:      -5.4      3.247      6.108
REMARK  Name = 5492363
REMARK  9 active torsions:
REMARK  status: ('A' for Active; 'I' for Inactive)
REMARK    1  A    between atoms: N_2  and  C_18
REMARK    2  A    between atoms: C_3  and  C_5
REMARK    3  A    between atoms: C_5  and  N_7
REMARK    4  A    between atoms: C_5  and  C_11
REMARK    5  A    between atoms: C_11  and  C_12
REMARK    6  A    between atoms: C_18  and  C_20
REMARK    7  A    between atoms: C_18  and  S_23
REMARK    8  A    between atoms: C_20  and  O_21
REMARK    9  A    between atoms: S_23  and  C_24
REMARK                            x       y       z     vdW  Elec       q    Type
REMARK                         _______ _______ _______ _____ _____    ______ ____
ROOT
ATOM      1  O   UNL     1     -35.584  21.582   4.093  0.00  0.00    -0.273 OA
ATOM      2  N   UNL     1     -35.625  23.196   2.425  0.00  0.00    -0.287 N 
ATOM      3  C   UNL     1     -35.508  21.900   2.907  0.00  0.00    +0.242 C 
ATOM      4  H   UNL     1     -35.548  23.344   1.454  0.00  0.00    +0.151 HD
ENDROOT
BRANCH   3   5
ATOM      5  C   UNL     1     -35.375  20.872   1.792  0.00  0.00    +0.153 C 
BRANCH   5   7
ATOM      6  O   UNL     1     -36.625  18.721   0.294  0.00  0.00    -0.275 OA
ATOM      7  N   UNL     1     -36.650  20.899   1.116  0.00  0.00    -0.298 N 
ATOM      8  C   UNL     1     -37.165  19.817   0.424  0.00  0.00    +0.223 C 
ATOM      9  C   UNL     1     -38.521  20.107  -0.163  0.00  0.00    +0.095 C 
ATOM     10  H   UNL     1     -37.180  21.729   1.150  0.00  0.00    +0.150 HD
ENDBRANCH   5   7
BRANCH   5  11
ATOM     11  C   UNL     1     -34.244  21.228   0.822  0.00  0.00    +0.055 C 
BRANCH  11  12
ATOM     12  C   UNL     1     -33.167  20.174   0.759  0.00  0.00    -0.020 C 
ATOM     13  C   UNL     1     -33.331  18.967   1.438  0.00  0.00    -0.004 C 
ATOM     14  C   UNL     1     -32.005  20.407   0.021  0.00  0.00    -0.004 C 
ATOM     15  C   UNL     1     -32.335  17.992   1.380  0.00  0.00    -0.000 C 
ATOM     16  C   UNL     1     -31.008  19.432  -0.036  0.00  0.00    -0.000 C 
ATOM     17  C   UNL     1     -31.173  18.225   0.643  0.00  0.00    -0.000 C 
ENDBRANCH  11  12
ENDBRANCH   5  11
ENDBRANCH   3   5
BRANCH   2  18
ATOM     18  C   UNL     1     -35.854  24.343   3.284  0.00  0.00    +0.225 C 
BRANCH  18  20
ATOM     19  O   UNL     1     -38.155  24.445   2.541  0.00  0.00    -0.247 OA
ATOM     20  C   UNL     1     -37.334  24.665   3.425  0.00  0.00    +0.343 C 
BRANCH  20  21
ATOM     21  O   UNL     1     -37.686  25.209   4.615  0.00  0.00    -0.478 OA
ATOM     22  H   UNL     1     -37.349  24.849   5.413  0.00  0.00    +0.295 HD
ENDBRANCH  20  21
ENDBRANCH  18  20
BRANCH  18  23
ATOM     23  S   UNL     1     -35.046  25.818   2.573  0.00  0.00    -0.083 S 
BRANCH  23  24
ATOM     24  C   UNL     1     -34.133  26.422   3.986  0.00  0.00    +0.027 C 
ATOM     25  C   UNL     1     -34.319  25.839   5.239  0.00  0.00    +0.006 C 
ATOM     26  C   UNL     1     -33.234  27.477   3.835  0.00  0.00    +0.006 C 
ATOM     27  C   UNL     1     -33.606  26.310   6.341  0.00  0.00    +0.001 C 
ATOM     28  C   UNL     1     -32.520  27.949   4.937  0.00  0.00    +0.001 C 
ATOM     29  C   UNL     1     -32.706  27.365   6.190  0.00  0.00    +0.000 C 
ENDBRANCH  23  24
ENDBRANCH  18  23
ENDBRANCH   2  18
TORSDOF 9
ENDMDL
