MODEL 1
REMARK VINA RESULT:      -5.2      0.000      0.000
REMARK  Name = 54676864
REMARK  7 active torsions:
REMARK  status: ('A' for Active; 'I' for Inactive)
REMARK    1  A    between atoms: C_3  and  C_14
REMARK    2  A    between atoms: C_4  and  O_7
REMARK    3  A    between atoms: C_5  and  O_9
REMARK    4  A    between atoms: O_9  and  S_10
REMARK    5  A    between atoms: C_14  and  O_15
REMARK    6  A    between atoms: C_14  and  C_17
REMARK    7  A    between atoms: C_17  and  O_18
REMARK                            x       y       z     vdW  Elec       q    Type
REMARK                         _______ _______ _______ _____ _____    ______ ____
ROOT
ATOM      1  O   UNL     1     -36.184  21.942   4.642  0.00  0.00    -0.436 OA
ATOM      2  O   UNL     1     -35.137  22.473   6.625  0.00  0.00    -0.241 OA
ATOM      3  C   UNL     1     -36.673  22.685   3.506  0.00  0.00    +0.257 C 
ATOM      4  C   UNL     1     -36.371  24.083   3.875  0.00  0.00    +0.198 C 
ATOM      5  C   UNL     1     -35.774  24.164   5.060  0.00  0.00    +0.283 C 
ATOM      6  C   UNL     1     -35.640  22.795   5.564  0.00  0.00    +0.382 C 
ENDROOT
BRANCH   4   7
ATOM      7  O   UNL     1     -36.712  25.130   3.071  0.00  0.00    -0.504 OA
ATOM      8  H   UNL     1     -36.745  25.999   3.421  0.00  0.00    +0.292 HD
ENDBRANCH   4   7
BRANCH   5   9
ATOM      9  O   UNL     1     -35.360  25.274   5.722  0.00  0.00    -0.312 OA
BRANCH   9  10
ATOM     10  S   UNL     1     -34.068  26.131   5.203  0.00  0.00    +0.283 S 
ATOM     11  O   UNL     1     -34.721  27.261   4.222  0.00  0.00    -0.105 OA
ATOM     12  O   UNL     1     -33.228  25.268   4.395  0.00  0.00    -0.105 OA
ATOM     13  O   UNL     1     -33.511  26.821   6.353  0.00  0.00    -0.012 OA
ENDBRANCH   9  10
ENDBRANCH   5   9
BRANCH   3  14
ATOM     14  C   UNL     1     -35.949  22.203   2.260  0.00  0.00    +0.187 C 
BRANCH  14  15
ATOM     15  O   UNL     1     -34.796  23.018   2.051  0.00  0.00    -0.378 OA
ATOM     16  H   UNL     1     -34.563  23.467   2.879  0.00  0.00    +0.211 HD
ENDBRANCH  14  15
BRANCH  14  17
ATOM     17  C   UNL     1     -35.492  20.757   2.404  0.00  0.00    +0.171 C 
BRANCH  17  18
ATOM     18  O   UNL     1     -36.625  19.938   2.672  0.00  0.00    -0.379 OA
ATOM     19  H   UNL     1     -36.362  19.199   3.243  0.00  0.00    +0.211 HD
ENDBRANCH  17  18
ENDBRANCH  14  17
ENDBRANCH   3  14
TORSDOF 7
ENDMDL
MODEL 2
REMARK VINA RESULT:      -4.8      3.151      4.699
REMARK  Name = 54676864
REMARK  7 active torsions:
REMARK  status: ('A' for Active; 'I' for Inactive)
REMARK    1  A    between atoms: C_3  and  C_14
REMARK    2  A    between atoms: C_4  and  O_7
REMARK    3  A    between atoms: C_5  and  O_9
REMARK    4  A    between atoms: O_9  and  S_10
REMARK    5  A    between atoms: C_14  and  O_15
REMARK    6  A    between atoms: C_14  and  C_17
REMARK    7  A    between atoms: C_17  and  O_18
REMARK                            x       y       z     vdW  Elec       q    Type
REMARK                         _______ _______ _______ _____ _____    ______ ____
ROOT
ATOM      1  O   UNL     1     -35.535  27.256   3.086  0.00  0.00    -0.436 OA
ATOM      2  O   UNL     1     -34.304  29.198   3.256  0.00  0.00    -0.241 OA
ATOM      3  C   UNL     1     -35.339  25.879   3.467  0.00  0.00    +0.257 C 
ATOM      4  C   UNL     1     -33.990  25.893   4.067  0.00  0.00    +0.198 C 
ATOM      5  C   UNL     1     -33.458  27.111   4.057  0.00  0.00    +0.283 C 
ATOM      6  C   UNL     1     -34.441  28.001   3.436  0.00  0.00    +0.382 C 
ENDROOT
BRANCH   4   7
ATOM      7  O   UNL     1     -33.396  24.758   4.533  0.00  0.00    -0.504 OA
ATOM      8  H   UNL     1     -33.904  24.116   4.991  0.00  0.00    +0.292 HD
ENDBRANCH   4   7
BRANCH   5   9
ATOM      9  O   UNL     1     -32.240  27.503   4.512  0.00  0.00    -0.312 OA
BRANCH   9  10
ATOM     10  S   UNL     1     -32.060  28.115   6.017  0.00  0.00    +0.283 S 
ATOM     11  O   UNL     1     -30.484  27.852   6.355  0.00  0.00    -0.105 OA
ATOM     12  O   UNL     1     -32.853  27.326   6.940  0.00  0.00    -0.105 OA
ATOM     13  O   UNL     1     -32.254  29.550   5.931  0.00  0.00    -0.012 OA
ENDBRANCH   9  10
ENDBRANCH   5   9
BRANCH   3  14
ATOM     14  C   UNL     1     -36.442  25.479   4.433  0.00  0.00    +0.187 C 
BRANCH  14  15
ATOM     15  O   UNL     1     -36.665  26.551   5.348  0.00  0.00    -0.378 OA
ATOM     16  H   UNL     1     -37.012  27.319   4.868  0.00  0.00    +0.211 HD
ENDBRANCH  14  15
BRANCH  14  17
ATOM     17  C   UNL     1     -37.749  25.194   3.703  0.00  0.00    +0.171 C 
BRANCH  17  18
ATOM     18  O   UNL     1     -38.409  26.427   3.437  0.00  0.00    -0.379 OA
ATOM     19  H   UNL     1     -37.810  27.017   2.953  0.00  0.00    +0.211 HD
ENDBRANCH  17  18
ENDBRANCH  14  17
ENDBRANCH   3  14
TORSDOF 7
ENDMDL
MODEL 3
REMARK VINA RESULT:      -4.8      1.747      3.345
REMARK  Name = 54676864
REMARK  7 active torsions:
REMARK  status: ('A' for Active; 'I' for Inactive)
REMARK    1  A    between atoms: C_3  and  C_14
REMARK    2  A    between atoms: C_4  and  O_7
REMARK    3  A    between atoms: C_5  and  O_9
REMARK    4  A    between atoms: O_9  and  S_10
REMARK    5  A    between atoms: C_14  and  O_15
REMARK    6  A    between atoms: C_14  and  C_17
REMARK    7  A    between atoms: C_17  and  O_18
REMARK                            x       y       z     vdW  Elec       q    Type
REMARK                         _______ _______ _______ _____ _____    ______ ____
ROOT
ATOM      1  O   UNL     1     -35.947  22.344   0.992  0.00  0.00    -0.436 OA
ATOM      2  O   UNL     1     -36.977  24.359   1.431  0.00  0.00    -0.241 OA
ATOM      3  C   UNL     1     -35.450  21.249   1.789  0.00  0.00    +0.257 C 
ATOM      4  C   UNL     1     -35.725  21.697   3.169  0.00  0.00    +0.198 C 
ATOM      5  C   UNL     1     -36.316  22.887   3.194  0.00  0.00    +0.283 C 
ATOM      6  C   UNL     1     -36.472  23.315   1.803  0.00  0.00    +0.382 C 
ENDROOT
BRANCH   4   7
ATOM      7  O   UNL     1     -35.369  20.951   4.254  0.00  0.00    -0.504 OA
ATOM      8  H   UNL     1     -34.589  20.432   4.230  0.00  0.00    +0.292 HD
ENDBRANCH   4   7
BRANCH   5   9
ATOM      9  O   UNL     1     -36.706  23.612   4.273  0.00  0.00    -0.312 OA
BRANCH   9  10
ATOM     10  S   UNL     1     -35.607  24.279   5.283  0.00  0.00    +0.283 S 
ATOM     11  O   UNL     1     -34.337  24.607   4.310  0.00  0.00    -0.105 OA
ATOM     12  O   UNL     1     -35.187  23.277   6.244  0.00  0.00    -0.105 OA
ATOM     13  O   UNL     1     -36.145  25.547   5.740  0.00  0.00    -0.012 OA
ENDBRANCH   9  10
ENDBRANCH   5   9
BRANCH   3  14
ATOM     14  C   UNL     1     -36.188  19.982   1.390  0.00  0.00    +0.187 C 
BRANCH  14  15
ATOM     15  O   UNL     1     -36.875  19.469   2.531  0.00  0.00    -0.378 OA
ATOM     16  H   UNL     1     -36.242  19.323   3.251  0.00  0.00    +0.211 HD
ENDBRANCH  14  15
BRANCH  14  17
ATOM     17  C   UNL     1     -37.213  20.253   0.296  0.00  0.00    +0.171 C 
BRANCH  17  18
ATOM     18  O   UNL     1     -38.469  20.543   0.900  0.00  0.00    -0.379 OA
ATOM     19  H   UNL     1     -38.780  21.411   0.599  0.00  0.00    +0.211 HD
ENDBRANCH  17  18
ENDBRANCH  14  17
ENDBRANCH   3  14
TORSDOF 7
ENDMDL
MODEL 4
REMARK VINA RESULT:      -4.7      2.537      4.027
REMARK  Name = 54676864
REMARK  7 active torsions:
REMARK  status: ('A' for Active; 'I' for Inactive)
REMARK    1  A    between atoms: C_3  and  C_14
REMARK    2  A    between atoms: C_4  and  O_7
REMARK    3  A    between atoms: C_5  and  O_9
REMARK    4  A    between atoms: O_9  and  S_10
REMARK    5  A    between atoms: C_14  and  O_15
REMARK    6  A    between atoms: C_14  and  C_17
REMARK    7  A    between atoms: C_17  and  O_18
REMARK                            x       y       z     vdW  Elec       q    Type
REMARK                         _______ _______ _______ _____ _____    ______ ____
ROOT
ATOM      1  O   UNL     1     -34.330  24.035   3.914  0.00  0.00    -0.436 OA
ATOM      2  O   UNL     1     -34.268  24.750   1.724  0.00  0.00    -0.241 OA
ATOM      3  C   UNL     1     -35.071  24.406   5.095  0.00  0.00    +0.257 C 
ATOM      4  C   UNL     1     -35.916  25.518   4.617  0.00  0.00    +0.198 C 
ATOM      5  C   UNL     1     -35.717  25.771   3.327  0.00  0.00    +0.283 C 
ATOM      6  C   UNL     1     -34.705  24.822   2.858  0.00  0.00    +0.382 C 
ENDROOT
BRANCH   4   7
ATOM      7  O   UNL     1     -36.762  26.191   5.449  0.00  0.00    -0.504 OA
ATOM      8  H   UNL     1     -37.657  25.925   5.524  0.00  0.00    +0.292 HD
ENDBRANCH   4   7
BRANCH   5   9
ATOM      9  O   UNL     1     -36.303  26.719   2.553  0.00  0.00    -0.312 OA
BRANCH   9  10
ATOM     10  S   UNL     1     -37.734  26.437   1.814  0.00  0.00    +0.283 S 
ATOM     11  O   UNL     1     -38.795  26.333   3.050  0.00  0.00    -0.105 OA
ATOM     12  O   UNL     1     -37.676  25.141   1.163  0.00  0.00    -0.105 OA
ATOM     13  O   UNL     1     -38.072  27.622   1.047  0.00  0.00    -0.012 OA
ENDBRANCH   9  10
ENDBRANCH   5   9
BRANCH   3  14
ATOM     14  C   UNL     1     -35.855  23.196   5.577  0.00  0.00    +0.187 C 
BRANCH  14  15
ATOM     15  O   UNL     1     -36.591  22.656   4.481  0.00  0.00    -0.378 OA
ATOM     16  H   UNL     1     -37.401  23.173   4.349  0.00  0.00    +0.211 HD
ENDBRANCH  14  15
BRANCH  14  17
ATOM     17  C   UNL     1     -34.932  22.110   6.115  0.00  0.00    +0.171 C 
BRANCH  17  18
ATOM     18  O   UNL     1     -35.460  20.836   5.761  0.00  0.00    -0.379 OA
ATOM     19  H   UNL     1     -34.792  20.336   5.266  0.00  0.00    +0.211 HD
ENDBRANCH  17  18
ENDBRANCH  14  17
ENDBRANCH   3  14
TORSDOF 7
ENDMDL
MODEL 5
REMARK VINA RESULT:      -4.7      2.386      3.643
REMARK  Name = 54676864
REMARK  7 active torsions:
REMARK  status: ('A' for Active; 'I' for Inactive)
REMARK    1  A    between atoms: C_3  and  C_14
REMARK    2  A    between atoms: C_4  and  O_7
REMARK    3  A    between atoms: C_5  and  O_9
REMARK    4  A    between atoms: O_9  and  S_10
REMARK    5  A    between atoms: C_14  and  O_15
REMARK    6  A    between atoms: C_14  and  C_17
REMARK    7  A    between atoms: C_17  and  O_18
REMARK                            x       y       z     vdW  Elec       q    Type
REMARK                         _______ _______ _______ _____ _____    ______ ____
ROOT
ATOM      1  O   UNL     1     -33.641  24.541   4.802  0.00  0.00    -0.436 OA
ATOM      2  O   UNL     1     -32.752  25.494   2.901  0.00  0.00    -0.241 OA
ATOM      3  C   UNL     1     -34.805  24.777   5.622  0.00  0.00    +0.257 C 
ATOM      4  C   UNL     1     -35.442  25.933   4.961  0.00  0.00    +0.198 C 
ATOM      5  C   UNL     1     -34.763  26.327   3.889  0.00  0.00    +0.283 C 
ATOM      6  C   UNL     1     -33.605  25.439   3.769  0.00  0.00    +0.382 C 
ENDROOT
BRANCH   4   7
ATOM      7  O   UNL     1     -36.578  26.508   5.452  0.00  0.00    -0.504 OA
ATOM      8  H   UNL     1     -36.617  26.779   6.348  0.00  0.00    +0.292 HD
ENDBRANCH   4   7
BRANCH   5   9
ATOM      9  O   UNL     1     -35.039  27.354   3.046  0.00  0.00    -0.312 OA
BRANCH   9  10
ATOM     10  S   UNL     1     -34.151  28.726   3.070  0.00  0.00    +0.283 S 
ATOM     11  O   UNL     1     -33.266  28.591   4.435  0.00  0.00    -0.105 OA
ATOM     12  O   UNL     1     -35.045  29.858   3.226  0.00  0.00    -0.105 OA
ATOM     13  O   UNL     1     -33.233  28.673   1.948  0.00  0.00    -0.012 OA
ENDBRANCH   9  10
ENDBRANCH   5   9
BRANCH   3  14
ATOM     14  C   UNL     1     -35.658  23.519   5.629  0.00  0.00    +0.187 C 
BRANCH  14  15
ATOM     15  O   UNL     1     -36.597  23.593   4.557  0.00  0.00    -0.378 OA
ATOM     16  H   UNL     1     -37.415  23.136   4.811  0.00  0.00    +0.211 HD
ENDBRANCH  14  15
BRANCH  14  17
ATOM     17  C   UNL     1     -34.810  22.268   5.437  0.00  0.00    +0.171 C 
BRANCH  17  18
ATOM     18  O   UNL     1     -35.534  21.140   5.918  0.00  0.00    -0.379 OA
ATOM     19  H   UNL     1     -36.245  20.923   5.295  0.00  0.00    +0.211 HD
ENDBRANCH  17  18
ENDBRANCH  14  17
ENDBRANCH   3  14
TORSDOF 7
ENDMDL
MODEL 6
REMARK VINA RESULT:      -4.7      2.967      5.288
REMARK  Name = 54676864
REMARK  7 active torsions:
REMARK  status: ('A' for Active; 'I' for Inactive)
REMARK    1  A    between atoms: C_3  and  C_14
REMARK    2  A    between atoms: C_4  and  O_7
REMARK    3  A    between atoms: C_5  and  O_9
REMARK    4  A    between atoms: O_9  and  S_10
REMARK    5  A    between atoms: C_14  and  O_15
REMARK    6  A    between atoms: C_14  and  C_17
REMARK    7  A    between atoms: C_17  and  O_18
REMARK                            x       y       z     vdW  Elec       q    Type
REMARK                         _______ _______ _______ _____ _____    ______ ____
ROOT
ATOM      1  O   UNL     1     -35.577  24.220   3.354  0.00  0.00    -0.436 OA
ATOM      2  O   UNL     1     -36.617  22.165   3.296  0.00  0.00    -0.241 OA
ATOM      3  C   UNL     1     -36.016  25.595   3.360  0.00  0.00    +0.257 C 
ATOM      4  C   UNL     1     -37.485  25.470   3.289  0.00  0.00    +0.198 C 
ATOM      5  C   UNL     1     -37.872  24.199   3.257  0.00  0.00    +0.283 C 
ATOM      6  C   UNL     1     -36.658  23.382   3.305  0.00  0.00    +0.382 C 
ENDROOT
BRANCH   4   7
ATOM      7  O   UNL     1     -38.300  26.562   3.236  0.00  0.00    -0.504 OA
ATOM      8  H   UNL     1     -38.320  27.095   2.465  0.00  0.00    +0.292 HD
ENDBRANCH   4   7
BRANCH   5   9
ATOM      9  O   UNL     1     -39.133  23.703   3.183  0.00  0.00    -0.312 OA
BRANCH   9  10
ATOM     10  S   UNL     1     -39.695  23.032   1.801  0.00  0.00    +0.283 S 
ATOM     11  O   UNL     1     -41.068  23.862   1.498  0.00  0.00    -0.105 OA
ATOM     12  O   UNL     1     -40.054  21.652   2.064  0.00  0.00    -0.105 OA
ATOM     13  O   UNL     1     -38.751  23.351   0.746  0.00  0.00    -0.012 OA
ENDBRANCH   9  10
ENDBRANCH   5   9
BRANCH   3  14
ATOM     14  C   UNL     1     -35.511  26.261   4.630  0.00  0.00    +0.187 C 
BRANCH  14  15
ATOM     15  O   UNL     1     -36.622  26.524   5.486  0.00  0.00    -0.378 OA
ATOM     16  H   UNL     1     -37.043  27.358   5.224  0.00  0.00    +0.211 HD
ENDBRANCH  14  15
BRANCH  14  17
ATOM     17  C   UNL     1     -34.531  25.367   5.379  0.00  0.00    +0.171 C 
BRANCH  17  18
ATOM     18  O   UNL     1     -33.310  25.306   4.650  0.00  0.00    -0.379 OA
ATOM     19  H   UNL     1     -32.902  24.435   4.775  0.00  0.00    +0.211 HD
ENDBRANCH  17  18
ENDBRANCH  14  17
ENDBRANCH   3  14
TORSDOF 7
ENDMDL
MODEL 7
REMARK VINA RESULT:      -4.6      2.130      4.525
REMARK  Name = 54676864
REMARK  7 active torsions:
REMARK  status: ('A' for Active; 'I' for Inactive)
REMARK    1  A    between atoms: C_3  and  C_14
REMARK    2  A    between atoms: C_4  and  O_7
REMARK    3  A    between atoms: C_5  and  O_9
REMARK    4  A    between atoms: O_9  and  S_10
REMARK    5  A    between atoms: C_14  and  O_15
REMARK    6  A    between atoms: C_14  and  C_17
REMARK    7  A    between atoms: C_17  and  O_18
REMARK                            x       y       z     vdW  Elec       q    Type
REMARK                         _______ _______ _______ _____ _____    ______ ____
ROOT
ATOM      1  O   UNL     1     -35.809  25.498   1.871  0.00  0.00    -0.436 OA
ATOM      2  O   UNL     1     -35.873  23.199   1.727  0.00  0.00    -0.241 OA
ATOM      3  C   UNL     1     -36.044  26.470   2.911  0.00  0.00    +0.257 C 
ATOM      4  C   UNL     1     -36.419  25.630   4.066  0.00  0.00    +0.198 C 
ATOM      5  C   UNL     1     -36.399  24.336   3.763  0.00  0.00    +0.283 C 
ATOM      6  C   UNL     1     -36.003  24.233   2.357  0.00  0.00    +0.382 C 
ENDROOT
BRANCH   4   7
ATOM      7  O   UNL     1     -36.763  26.170   5.270  0.00  0.00    -0.504 OA
ATOM      8  H   UNL     1     -36.406  25.819   6.061  0.00  0.00    +0.292 HD
ENDBRANCH   4   7
BRANCH   5   9
ATOM      9  O   UNL     1     -36.692  23.278   4.562  0.00  0.00    -0.312 OA
BRANCH   9  10
ATOM     10  S   UNL     1     -35.516  22.483   5.373  0.00  0.00    +0.283 S 
ATOM     11  O   UNL     1     -35.259  21.146   4.471  0.00  0.00    -0.105 OA
ATOM     12  O   UNL     1     -36.038  22.062   6.659  0.00  0.00    -0.105 OA
ATOM     13  O   UNL     1     -34.314  23.294   5.305  0.00  0.00    -0.012 OA
ENDBRANCH   9  10
ENDBRANCH   5   9
BRANCH   3  14
ATOM     14  C   UNL     1     -34.774  27.278   3.119  0.00  0.00    +0.187 C 
BRANCH  14  15
ATOM     15  O   UNL     1     -35.120  28.553   3.656  0.00  0.00    -0.378 OA
ATOM     16  H   UNL     1     -35.751  28.438   4.384  0.00  0.00    +0.211 HD
ENDBRANCH  14  15
BRANCH  14  17
ATOM     17  C   UNL     1     -33.828  26.589   4.095  0.00  0.00    +0.171 C 
BRANCH  17  18
ATOM     18  O   UNL     1     -33.063  25.616   3.391  0.00  0.00    -0.379 OA
ATOM     19  H   UNL     1     -33.634  24.871   3.147  0.00  0.00    +0.211 HD
ENDBRANCH  17  18
ENDBRANCH  14  17
ENDBRANCH   3  14
TORSDOF 7
ENDMDL
MODEL 8
REMARK VINA RESULT:      -4.6      2.814      4.441
REMARK  Name = 54676864
REMARK  7 active torsions:
REMARK  status: ('A' for Active; 'I' for Inactive)
REMARK    1  A    between atoms: C_3  and  C_14
REMARK    2  A    between atoms: C_4  and  O_7
REMARK    3  A    between atoms: C_5  and  O_9
REMARK    4  A    between atoms: O_9  and  S_10
REMARK    5  A    between atoms: C_14  and  O_15
REMARK    6  A    between atoms: C_14  and  C_17
REMARK    7  A    between atoms: C_17  and  O_18
REMARK                            x       y       z     vdW  Elec       q    Type
REMARK                         _______ _______ _______ _____ _____    ______ ____
ROOT
ATOM      1  O   UNL     1     -36.524  22.672   2.763  0.00  0.00    -0.436 OA
ATOM      2  O   UNL     1     -38.667  22.273   2.014  0.00  0.00    -0.241 OA
ATOM      3  C   UNL     1     -35.899  23.657   3.611  0.00  0.00    +0.257 C 
ATOM      4  C   UNL     1     -37.026  24.537   3.977  0.00  0.00    +0.198 C 
ATOM      5  C   UNL     1     -38.168  24.131   3.433  0.00  0.00    +0.283 C 
ATOM      6  C   UNL     1     -37.864  22.929   2.654  0.00  0.00    +0.382 C 
ENDROOT
BRANCH   4   7
ATOM      7  O   UNL     1     -36.854  25.641   4.760  0.00  0.00    -0.504 OA
ATOM      8  H   UNL     1     -37.052  26.492   4.422  0.00  0.00    +0.292 HD
ENDBRANCH   4   7
BRANCH   5   9
ATOM      9  O   UNL     1     -39.400  24.691   3.539  0.00  0.00    -0.312 OA
BRANCH   9  10
ATOM     10  S   UNL     1     -39.873  25.881   2.523  0.00  0.00    +0.283 S 
ATOM     11  O   UNL     1     -40.902  26.773   3.423  0.00  0.00    -0.105 OA
ATOM     12  O   UNL     1     -40.628  25.292   1.433  0.00  0.00    -0.105 OA
ATOM     13  O   UNL     1     -38.712  26.705   2.243  0.00  0.00    -0.012 OA
ENDBRANCH   9  10
ENDBRANCH   5   9
BRANCH   3  14
ATOM     14  C   UNL     1     -35.260  22.946   4.793  0.00  0.00    +0.187 C 
BRANCH  14  15
ATOM     15  O   UNL     1     -36.056  23.174   5.955  0.00  0.00    -0.378 OA
ATOM     16  H   UNL     1     -36.332  22.323   6.330  0.00  0.00    +0.211 HD
ENDBRANCH  14  15
BRANCH  14  17
ATOM     17  C   UNL     1     -35.174  21.443   4.560  0.00  0.00    +0.171 C 
BRANCH  17  18
ATOM     18  O   UNL     1     -35.385  20.769   5.797  0.00  0.00    -0.379 OA
ATOM     19  H   UNL     1     -36.328  20.795   6.022  0.00  0.00    +0.211 HD
ENDBRANCH  17  18
ENDBRANCH  14  17
ENDBRANCH   3  14
TORSDOF 7
ENDMDL
MODEL 9
REMARK VINA RESULT:      -4.6      2.143      3.379
REMARK  Name = 54676864
REMARK  7 active torsions:
REMARK  status: ('A' for Active; 'I' for Inactive)
REMARK    1  A    between atoms: C_3  and  C_14
REMARK    2  A    between atoms: C_4  and  O_7
REMARK    3  A    between atoms: C_5  and  O_9
REMARK    4  A    between atoms: O_9  and  S_10
REMARK    5  A    between atoms: C_14  and  O_15
REMARK    6  A    between atoms: C_14  and  C_17
REMARK    7  A    between atoms: C_17  and  O_18
REMARK                            x       y       z     vdW  Elec       q    Type
REMARK                         _______ _______ _______ _____ _____    ______ ____
ROOT
ATOM      1  O   UNL     1     -34.781  23.923   3.304  0.00  0.00    -0.436 OA
ATOM      2  O   UNL     1     -34.894  25.579   1.704  0.00  0.00    -0.241 OA
ATOM      3  C   UNL     1     -34.526  23.881   4.723  0.00  0.00    +0.257 C 
ATOM      4  C   UNL     1     -34.286  25.299   5.055  0.00  0.00    +0.198 C 
ATOM      5  C   UNL     1     -34.392  26.083   3.987  0.00  0.00    +0.283 C 
ATOM      6  C   UNL     1     -34.717  25.215   2.853  0.00  0.00    +0.382 C 
ENDROOT
BRANCH   4   7
ATOM      7  O   UNL     1     -33.966  25.700   6.319  0.00  0.00    -0.504 OA
ATOM      8  H   UNL     1     -34.606  26.132   6.850  0.00  0.00    +0.292 HD
ENDBRANCH   4   7
BRANCH   5   9
ATOM      9  O   UNL     1     -34.230  27.428   3.907  0.00  0.00    -0.312 OA
BRANCH   9  10
ATOM     10  S   UNL     1     -32.765  28.114   4.141  0.00  0.00    +0.283 S 
ATOM     11  O   UNL     1     -32.849  29.507   3.292  0.00  0.00    -0.105 OA
ATOM     12  O   UNL     1     -31.752  27.276   3.527  0.00  0.00    -0.105 OA
ATOM     13  O   UNL     1     -32.666  28.466   5.546  0.00  0.00    -0.012 OA
ENDBRANCH   9  10
ENDBRANCH   5   9
BRANCH   3  14
ATOM     14  C   UNL     1     -35.738  23.280   5.417  0.00  0.00    +0.187 C 
BRANCH  14  15
ATOM     15  O   UNL     1     -36.577  22.672   4.437  0.00  0.00    -0.378 OA
ATOM     16  H   UNL     1     -37.273  22.159   4.878  0.00  0.00    +0.211 HD
ENDBRANCH  14  15
BRANCH  14  17
ATOM     17  C   UNL     1     -35.331  22.213   6.426  0.00  0.00    +0.171 C 
BRANCH  17  18
ATOM     18  O   UNL     1     -35.434  20.932   5.813  0.00  0.00    -0.379 OA
ATOM     19  H   UNL     1     -36.164  20.438   6.217  0.00  0.00    +0.211 HD
ENDBRANCH  17  18
ENDBRANCH  14  17
ENDBRANCH   3  14
TORSDOF 7
ENDMDL
