MODEL 1
REMARK VINA RESULT:      -6.2      0.000      0.000
REMARK  Name = 60006000
REMARK  10 active torsions:
REMARK  status: ('A' for Active; 'I' for Inactive)
REMARK    1  A    between atoms: C_1  and  C_16
REMARK    2  A    between atoms: C_2  and  C_8
REMARK    3  A    between atoms: N_7  and  O_14
REMARK    4  A    between atoms: C_8  and  C_11
REMARK    5  A    between atoms: C_16  and  O_17
REMARK    6  A    between atoms: O_17  and  N_18
REMARK    7  A    between atoms: C_19  and  C_22
REMARK    8  A    between atoms: N_21  and  O_28
REMARK    9  A    between atoms: C_22  and  C_24
REMARK   10  A    between atoms: N_23  and  O_26
REMARK                            x       y       z     vdW  Elec       q    Type
REMARK                         _______ _______ _______ _____ _____    ______ ____
ROOT
ATOM      1  C   UNL     1     -35.660  23.984   5.139  0.00  0.00    +0.026 C 
ATOM      2  C   UNL     1     -35.809  23.454   3.858  0.00  0.00    +0.025 C 
ATOM      3  C   UNL     1     -35.322  23.150   6.206  0.00  0.00    -0.001 C 
ATOM      4  C   UNL     1     -35.622  22.088   3.643  0.00  0.00    +0.002 C 
ATOM      5  C   UNL     1     -35.135  21.785   5.990  0.00  0.00    -0.000 C 
ATOM      6  C   UNL     1     -35.285  21.254   4.709  0.00  0.00    +0.000 C 
ENDROOT
BRANCH   2   8
ATOM      7  N   UNL     1     -37.412  24.564   2.416  0.00  0.00    -0.078 NA
ATOM      8  C   UNL     1     -36.162  24.302   2.728  0.00  0.00    +0.172 C 
BRANCH   8  11
ATOM      9  O   UNL     1     -34.418  24.163   1.144  0.00  0.00    -0.268 OA
ATOM     10  N   UNL     1     -34.947  26.267   2.037  0.00  0.00    -0.298 N 
ATOM     11  C   UNL     1     -35.066  24.907   1.863  0.00  0.00    +0.267 C 
ATOM     12  C   UNL     1     -33.957  27.041   1.329  0.00  0.00    +0.111 C 
ATOM     13  H   UNL     1     -35.554  26.726   2.662  0.00  0.00    +0.150 HD
ENDBRANCH   8  11
BRANCH   7  14
ATOM     14  O   UNL     1     -38.330  23.948   3.278  0.00  0.00    -0.373 OA
ATOM     15  C   UNL     1     -39.525  24.713   3.269  0.00  0.00    +0.288 C 
ENDBRANCH   7  14
ENDBRANCH   2   8
BRANCH   1  16
ATOM     16  C   UNL     1     -35.856  25.449   5.399  0.00  0.00    +0.265 C 
BRANCH  16  17
ATOM     17  O   UNL     1     -34.694  25.968   6.028  0.00  0.00    -0.373 OA
BRANCH  17  18
ATOM     18  N   UNL     1     -33.990  26.728   5.086  0.00  0.00    -0.085 NA
ATOM     19  C   UNL     1     -32.994  27.335   5.647  0.00  0.00    +0.119 C 
ATOM     20  C   UNL     1     -32.610  27.278   7.095  0.00  0.00    +0.057 C 
BRANCH  19  22
ATOM     21  N   UNL     1     -31.479  27.724   3.761  0.00  0.00    -0.080 NA
ATOM     22  C   UNL     1     -32.157  28.204   4.756  0.00  0.00    +0.153 C 
BRANCH  22  24
ATOM     23  N   UNL     1     -32.978  30.406   4.417  0.00  0.00    -0.086 NA
ATOM     24  C   UNL     1     -32.055  29.683   4.964  0.00  0.00    +0.119 C 
ATOM     25  C   UNL     1     -30.894  30.174   5.776  0.00  0.00    +0.057 C 
BRANCH  23  26
ATOM     26  O   UNL     1     -33.892  29.597   3.729  0.00  0.00    -0.373 OA
ATOM     27  C   UNL     1     -34.738  30.440   2.963  0.00  0.00    +0.288 C 
ENDBRANCH  23  26
ENDBRANCH  22  24
BRANCH  21  28
ATOM     28  O   UNL     1     -30.785  28.737   3.086  0.00  0.00    -0.373 OA
ATOM     29  C   UNL     1     -29.599  28.175   2.546  0.00  0.00    +0.288 C 
ENDBRANCH  21  28
ENDBRANCH  19  22
ENDBRANCH  17  18
ENDBRANCH  16  17
ENDBRANCH   1  16
TORSDOF 10
ENDMDL
MODEL 2
REMARK VINA RESULT:      -6.0      0.870      1.793
REMARK  Name = 60006000
REMARK  10 active torsions:
REMARK  status: ('A' for Active; 'I' for Inactive)
REMARK    1  A    between atoms: C_1  and  C_16
REMARK    2  A    between atoms: C_2  and  C_8
REMARK    3  A    between atoms: N_7  and  O_14
REMARK    4  A    between atoms: C_8  and  C_11
REMARK    5  A    between atoms: C_16  and  O_17
REMARK    6  A    between atoms: O_17  and  N_18
REMARK    7  A    between atoms: C_19  and  C_22
REMARK    8  A    between atoms: N_21  and  O_28
REMARK    9  A    between atoms: C_22  and  C_24
REMARK   10  A    between atoms: N_23  and  O_26
REMARK                            x       y       z     vdW  Elec       q    Type
REMARK                         _______ _______ _______ _____ _____    ______ ____
ROOT
ATOM      1  C   UNL     1     -35.643  23.975   5.086  0.00  0.00    +0.026 C 
ATOM      2  C   UNL     1     -35.870  23.508   3.792  0.00  0.00    +0.025 C 
ATOM      3  C   UNL     1     -35.262  23.087   6.092  0.00  0.00    -0.001 C 
ATOM      4  C   UNL     1     -35.717  22.152   3.503  0.00  0.00    +0.002 C 
ATOM      5  C   UNL     1     -35.108  21.731   5.804  0.00  0.00    -0.000 C 
ATOM      6  C   UNL     1     -35.336  21.264   4.509  0.00  0.00    +0.000 C 
ENDROOT
BRANCH   2   8
ATOM      7  N   UNL     1     -37.530  24.716   2.501  0.00  0.00    -0.078 NA
ATOM      8  C   UNL     1     -36.270  24.413   2.723  0.00  0.00    +0.172 C 
BRANCH   8  11
ATOM      9  O   UNL     1     -34.690  24.327   0.972  0.00  0.00    -0.268 OA
ATOM     10  N   UNL     1     -34.979  26.357   2.112  0.00  0.00    -0.298 N 
ATOM     11  C   UNL     1     -35.214  25.032   1.819  0.00  0.00    +0.267 C 
ATOM     12  C   UNL     1     -34.001  27.134   1.391  0.00  0.00    +0.111 C 
ATOM     13  H   UNL     1     -35.492  26.787   2.834  0.00  0.00    +0.150 HD
ENDBRANCH   8  11
BRANCH   7  14
ATOM     14  O   UNL     1     -38.409  24.083   3.390  0.00  0.00    -0.373 OA
ATOM     15  C   UNL     1     -39.675  24.716   3.286  0.00  0.00    +0.288 C 
ENDBRANCH   7  14
ENDBRANCH   2   8
BRANCH   1  16
ATOM     16  C   UNL     1     -35.801  25.429   5.424  0.00  0.00    +0.265 C 
BRANCH  16  17
ATOM     17  O   UNL     1     -34.598  25.902   6.010  0.00  0.00    -0.373 OA
BRANCH  17  18
ATOM     18  N   UNL     1     -34.016  26.821   5.128  0.00  0.00    -0.085 NA
ATOM     19  C   UNL     1     -33.022  27.425   5.695  0.00  0.00    +0.119 C 
ATOM     20  C   UNL     1     -32.528  27.219   7.096  0.00  0.00    +0.057 C 
BRANCH  19  22
ATOM     21  N   UNL     1     -32.941  29.266   4.080  0.00  0.00    -0.080 NA
ATOM     22  C   UNL     1     -32.310  28.455   4.869  0.00  0.00    +0.153 C 
BRANCH  22  24
ATOM     23  N   UNL     1     -30.140  27.843   4.123  0.00  0.00    -0.086 NA
ATOM     24  C   UNL     1     -30.821  28.609   4.911  0.00  0.00    +0.119 C 
ATOM     25  C   UNL     1     -30.273  29.628   5.865  0.00  0.00    +0.057 C 
BRANCH  23  26
ATOM     26  O   UNL     1     -30.995  27.013   3.386  0.00  0.00    -0.373 OA
ATOM     27  C   UNL     1     -30.399  26.776   2.120  0.00  0.00    +0.288 C 
ENDBRANCH  23  26
ENDBRANCH  22  24
BRANCH  21  28
ATOM     28  O   UNL     1     -32.052  30.129   3.426  0.00  0.00    -0.373 OA
ATOM     29  C   UNL     1     -32.641  30.519   2.194  0.00  0.00    +0.288 C 
ENDBRANCH  21  28
ENDBRANCH  19  22
ENDBRANCH  17  18
ENDBRANCH  16  17
ENDBRANCH   1  16
TORSDOF 10
ENDMDL
MODEL 3
REMARK VINA RESULT:      -6.0      0.823      2.272
REMARK  Name = 60006000
REMARK  10 active torsions:
REMARK  status: ('A' for Active; 'I' for Inactive)
REMARK    1  A    between atoms: C_1  and  C_16
REMARK    2  A    between atoms: C_2  and  C_8
REMARK    3  A    between atoms: N_7  and  O_14
REMARK    4  A    between atoms: C_8  and  C_11
REMARK    5  A    between atoms: C_16  and  O_17
REMARK    6  A    between atoms: O_17  and  N_18
REMARK    7  A    between atoms: C_19  and  C_22
REMARK    8  A    between atoms: N_21  and  O_28
REMARK    9  A    between atoms: C_22  and  C_24
REMARK   10  A    between atoms: N_23  and  O_26
REMARK                            x       y       z     vdW  Elec       q    Type
REMARK                         _______ _______ _______ _____ _____    ______ ____
ROOT
ATOM      1  C   UNL     1     -35.722  24.067   5.118  0.00  0.00    +0.026 C 
ATOM      2  C   UNL     1     -36.061  23.652   3.830  0.00  0.00    +0.025 C 
ATOM      3  C   UNL     1     -35.239  23.142   6.044  0.00  0.00    -0.001 C 
ATOM      4  C   UNL     1     -35.916  22.313   3.468  0.00  0.00    +0.002 C 
ATOM      5  C   UNL     1     -35.094  21.803   5.682  0.00  0.00    -0.000 C 
ATOM      6  C   UNL     1     -35.433  21.389   4.393  0.00  0.00    +0.000 C 
ENDROOT
BRANCH   2   8
ATOM      7  N   UNL     1     -35.776  25.209   1.993  0.00  0.00    -0.078 NA
ATOM      8  C   UNL     1     -36.569  24.596   2.844  0.00  0.00    +0.172 C 
BRANCH   8  11
ATOM      9  O   UNL     1     -38.784  24.420   3.638  0.00  0.00    -0.268 OA
ATOM     10  N   UNL     1     -38.389  25.708   1.718  0.00  0.00    -0.298 N 
ATOM     11  C   UNL     1     -38.058  24.904   2.785  0.00  0.00    +0.267 C 
ATOM     12  C   UNL     1     -39.750  26.108   1.459  0.00  0.00    +0.111 C 
ATOM     13  H   UNL     1     -37.677  26.020   1.113  0.00  0.00    +0.150 HD
ENDBRANCH   8  11
BRANCH   7  14
ATOM     14  O   UNL     1     -34.429  24.852   2.146  0.00  0.00    -0.373 OA
ATOM     15  C   UNL     1     -33.632  25.899   1.615  0.00  0.00    +0.288 C 
ENDBRANCH   7  14
ENDBRANCH   2   8
BRANCH   1  16
ATOM     16  C   UNL     1     -35.868  25.501   5.534  0.00  0.00    +0.265 C 
BRANCH  16  17
ATOM     17  O   UNL     1     -34.647  25.944   6.105  0.00  0.00    -0.373 OA
BRANCH  17  18
ATOM     18  N   UNL     1     -33.971  26.711   5.148  0.00  0.00    -0.085 NA
ATOM     19  C   UNL     1     -32.969  27.328   5.687  0.00  0.00    +0.119 C 
ATOM     20  C   UNL     1     -32.552  27.275   7.127  0.00  0.00    +0.057 C 
BRANCH  19  22
ATOM     21  N   UNL     1     -31.423  27.723   3.828  0.00  0.00    -0.080 NA
ATOM     22  C   UNL     1     -32.159  28.205   4.779  0.00  0.00    +0.153 C 
BRANCH  22  24
ATOM     23  N   UNL     1     -33.090  30.334   4.290  0.00  0.00    -0.086 NA
ATOM     24  C   UNL     1     -32.156  29.696   4.917  0.00  0.00    +0.119 C 
ATOM     25  C   UNL     1     -31.070  30.295   5.759  0.00  0.00    +0.057 C 
BRANCH  23  26
ATOM     26  O   UNL     1     -33.917  29.439   3.599  0.00  0.00    -0.373 OA
ATOM     27  C   UNL     1     -34.835  30.195   2.824  0.00  0.00    +0.288 C 
ENDBRANCH  23  26
ENDBRANCH  22  24
BRANCH  21  28
ATOM     28  O   UNL     1     -30.772  28.745   3.124  0.00  0.00    -0.373 OA
ATOM     29  C   UNL     1     -30.781  28.407   1.746  0.00  0.00    +0.288 C 
ENDBRANCH  21  28
ENDBRANCH  19  22
ENDBRANCH  17  18
ENDBRANCH  16  17
ENDBRANCH   1  16
TORSDOF 10
ENDMDL
MODEL 4
REMARK VINA RESULT:      -6.0      1.458      2.949
REMARK  Name = 60006000
REMARK  10 active torsions:
REMARK  status: ('A' for Active; 'I' for Inactive)
REMARK    1  A    between atoms: C_1  and  C_16
REMARK    2  A    between atoms: C_2  and  C_8
REMARK    3  A    between atoms: N_7  and  O_14
REMARK    4  A    between atoms: C_8  and  C_11
REMARK    5  A    between atoms: C_16  and  O_17
REMARK    6  A    between atoms: O_17  and  N_18
REMARK    7  A    between atoms: C_19  and  C_22
REMARK    8  A    between atoms: N_21  and  O_28
REMARK    9  A    between atoms: C_22  and  C_24
REMARK   10  A    between atoms: N_23  and  O_26
REMARK                            x       y       z     vdW  Elec       q    Type
REMARK                         _______ _______ _______ _____ _____    ______ ____
ROOT
ATOM      1  C   UNL     1     -36.016  23.959   4.744  0.00  0.00    +0.026 C 
ATOM      2  C   UNL     1     -35.993  23.019   3.714  0.00  0.00    +0.025 C 
ATOM      3  C   UNL     1     -35.543  23.617   6.011  0.00  0.00    -0.001 C 
ATOM      4  C   UNL     1     -35.498  21.736   3.951  0.00  0.00    +0.002 C 
ATOM      5  C   UNL     1     -35.048  22.335   6.249  0.00  0.00    -0.000 C 
ATOM      6  C   UNL     1     -35.026  21.395   5.218  0.00  0.00    +0.000 C 
ENDROOT
BRANCH   2   8
ATOM      7  N   UNL     1     -35.688  23.820   1.446  0.00  0.00    -0.078 NA
ATOM      8  C   UNL     1     -36.481  23.349   2.382  0.00  0.00    +0.172 C 
BRANCH   8  11
ATOM      9  O   UNL     1     -38.595  24.130   1.681  0.00  0.00    -0.268 OA
ATOM     10  N   UNL     1     -38.371  21.858   2.223  0.00  0.00    -0.298 N 
ATOM     11  C   UNL     1     -37.953  23.158   2.045  0.00  0.00    +0.267 C 
ATOM     12  C   UNL     1     -39.735  21.458   1.981  0.00  0.00    +0.111 C 
ATOM     13  H   UNL     1     -37.721  21.183   2.525  0.00  0.00    +0.150 HD
ENDBRANCH   8  11
BRANCH   7  14
ATOM     14  O   UNL     1     -34.360  23.959   1.874  0.00  0.00    -0.373 OA
ATOM     15  C   UNL     1     -33.879  25.214   1.420  0.00  0.00    +0.288 C 
ENDBRANCH   7  14
ENDBRANCH   2   8
BRANCH   1  16
ATOM     16  C   UNL     1     -36.543  25.345   4.517  0.00  0.00    +0.265 C 
BRANCH  16  17
ATOM     17  O   UNL     1     -35.784  26.262   5.290  0.00  0.00    -0.373 OA
BRANCH  17  18
ATOM     18  N   UNL     1     -34.920  26.949   4.428  0.00  0.00    -0.085 NA
ATOM     19  C   UNL     1     -33.749  27.070   4.964  0.00  0.00    +0.119 C 
ATOM     20  C   UNL     1     -33.324  26.577   6.314  0.00  0.00    +0.057 C 
BRANCH  19  22
ATOM     21  N   UNL     1     -31.493  27.395   4.062  0.00  0.00    -0.080 NA
ATOM     22  C   UNL     1     -32.719  27.804   4.156  0.00  0.00    +0.153 C 
BRANCH  22  24
ATOM     23  N   UNL     1     -33.023  30.158   4.081  0.00  0.00    -0.086 NA
ATOM     24  C   UNL     1     -33.050  29.056   3.405  0.00  0.00    +0.119 C 
ATOM     25  C   UNL     1     -33.385  28.904   1.950  0.00  0.00    +0.057 C 
BRANCH  23  26
ATOM     26  O   UNL     1     -32.677  29.906   5.415  0.00  0.00    -0.373 OA
ATOM     27  C   UNL     1     -31.655  30.818   5.786  0.00  0.00    +0.288 C 
ENDBRANCH  23  26
ENDBRANCH  22  24
BRANCH  21  28
ATOM     28  O   UNL     1     -30.735  28.250   3.251  0.00  0.00    -0.373 OA
ATOM     29  C   UNL     1     -29.789  27.463   2.544  0.00  0.00    +0.288 C 
ENDBRANCH  21  28
ENDBRANCH  19  22
ENDBRANCH  17  18
ENDBRANCH  16  17
ENDBRANCH   1  16
TORSDOF 10
ENDMDL
MODEL 5
REMARK VINA RESULT:      -5.9      1.420      2.418
REMARK  Name = 60006000
REMARK  10 active torsions:
REMARK  status: ('A' for Active; 'I' for Inactive)
REMARK    1  A    between atoms: C_1  and  C_16
REMARK    2  A    between atoms: C_2  and  C_8
REMARK    3  A    between atoms: N_7  and  O_14
REMARK    4  A    between atoms: C_8  and  C_11
REMARK    5  A    between atoms: C_16  and  O_17
REMARK    6  A    between atoms: O_17  and  N_18
REMARK    7  A    between atoms: C_19  and  C_22
REMARK    8  A    between atoms: N_21  and  O_28
REMARK    9  A    between atoms: C_22  and  C_24
REMARK   10  A    between atoms: N_23  and  O_26
REMARK                            x       y       z     vdW  Elec       q    Type
REMARK                         _______ _______ _______ _____ _____    ______ ____
ROOT
ATOM      1  C   UNL     1     -35.817  24.259   5.003  0.00  0.00    +0.026 C 
ATOM      2  C   UNL     1     -36.264  24.091   3.692  0.00  0.00    +0.025 C 
ATOM      3  C   UNL     1     -35.282  23.177   5.702  0.00  0.00    -0.001 C 
ATOM      4  C   UNL     1     -36.176  22.840   3.081  0.00  0.00    +0.002 C 
ATOM      5  C   UNL     1     -35.193  21.927   5.090  0.00  0.00    -0.000 C 
ATOM      6  C   UNL     1     -35.640  21.759   3.779  0.00  0.00    +0.000 C 
ENDROOT
BRANCH   2   8
ATOM      7  N   UNL     1     -38.125  25.378   2.822  0.00  0.00    -0.078 NA
ATOM      8  C   UNL     1     -36.828  25.203   2.940  0.00  0.00    +0.172 C 
BRANCH   8  11
ATOM      9  O   UNL     1     -35.129  25.786   1.409  0.00  0.00    -0.268 OA
ATOM     10  N   UNL     1     -36.076  27.485   2.721  0.00  0.00    -0.298 N 
ATOM     11  C   UNL     1     -35.906  26.201   2.254  0.00  0.00    +0.267 C 
ATOM     12  C   UNL     1     -35.290  28.586   2.223  0.00  0.00    +0.111 C 
ATOM     13  H   UNL     1     -36.754  27.657   3.414  0.00  0.00    +0.150 HD
ENDBRANCH   8  11
BRANCH   7  14
ATOM     14  O   UNL     1     -38.872  24.396   3.489  0.00  0.00    -0.373 OA
ATOM     15  C   UNL     1     -39.830  23.877   2.579  0.00  0.00    +0.288 C 
ENDBRANCH   7  14
ENDBRANCH   2   8
BRANCH   1  16
ATOM     16  C   UNL     1     -35.900  25.593   5.685  0.00  0.00    +0.265 C 
BRANCH  16  17
ATOM     17  O   UNL     1     -34.602  25.978   6.110  0.00  0.00    -0.373 OA
BRANCH  17  18
ATOM     18  N   UNL     1     -34.031  26.768   5.105  0.00  0.00    -0.085 NA
ATOM     19  C   UNL     1     -33.007  27.414   5.564  0.00  0.00    +0.119 C 
ATOM     20  C   UNL     1     -32.473  27.370   6.964  0.00  0.00    +0.057 C 
BRANCH  19  22
ATOM     21  N   UNL     1     -32.490  29.600   4.585  0.00  0.00    -0.080 NA
ATOM     22  C   UNL     1     -32.301  28.318   4.597  0.00  0.00    +0.153 C 
BRANCH  22  24
ATOM     23  N   UNL     1     -30.100  27.685   3.968  0.00  0.00    -0.086 NA
ATOM     24  C   UNL     1     -31.332  27.790   3.586  0.00  0.00    +0.119 C 
ATOM     25  C   UNL     1     -31.884  27.443   2.235  0.00  0.00    +0.057 C 
BRANCH  23  26
ATOM     26  O   UNL     1     -29.961  28.112   5.295  0.00  0.00    -0.373 OA
ATOM     27  C   UNL     1     -28.601  27.954   5.669  0.00  0.00    +0.288 C 
ENDBRANCH  23  26
ENDBRANCH  22  24
BRANCH  21  28
ATOM     28  O   UNL     1     -31.714  30.216   3.594  0.00  0.00    -0.373 OA
ATOM     29  C   UNL     1     -32.473  31.278   3.037  0.00  0.00    +0.288 C 
ENDBRANCH  21  28
ENDBRANCH  19  22
ENDBRANCH  17  18
ENDBRANCH  16  17
ENDBRANCH   1  16
TORSDOF 10
ENDMDL
MODEL 6
REMARK VINA RESULT:      -5.8      1.232      3.020
REMARK  Name = 60006000
REMARK  10 active torsions:
REMARK  status: ('A' for Active; 'I' for Inactive)
REMARK    1  A    between atoms: C_1  and  C_16
REMARK    2  A    between atoms: C_2  and  C_8
REMARK    3  A    between atoms: N_7  and  O_14
REMARK    4  A    between atoms: C_8  and  C_11
REMARK    5  A    between atoms: C_16  and  O_17
REMARK    6  A    between atoms: O_17  and  N_18
REMARK    7  A    between atoms: C_19  and  C_22
REMARK    8  A    between atoms: N_21  and  O_28
REMARK    9  A    between atoms: C_22  and  C_24
REMARK   10  A    between atoms: N_23  and  O_26
REMARK                            x       y       z     vdW  Elec       q    Type
REMARK                         _______ _______ _______ _____ _____    ______ ____
ROOT
ATOM      1  C   UNL     1     -35.613  24.136   5.123  0.00  0.00    +0.026 C 
ATOM      2  C   UNL     1     -35.901  23.843   3.791  0.00  0.00    +0.025 C 
ATOM      3  C   UNL     1     -35.260  23.112   6.003  0.00  0.00    -0.001 C 
ATOM      4  C   UNL     1     -35.837  22.526   3.336  0.00  0.00    +0.002 C 
ATOM      5  C   UNL     1     -35.195  21.794   5.548  0.00  0.00    -0.000 C 
ATOM      6  C   UNL     1     -35.484  21.502   4.215  0.00  0.00    +0.000 C 
ENDROOT
BRANCH   2   8
ATOM      7  N   UNL     1     -35.410  25.412   2.009  0.00  0.00    -0.078 NA
ATOM      8  C   UNL     1     -36.274  24.893   2.852  0.00  0.00    +0.172 C 
BRANCH   8  11
ATOM      9  O   UNL     1     -37.888  26.565   2.441  0.00  0.00    -0.268 OA
ATOM     10  N   UNL     1     -38.611  24.509   3.310  0.00  0.00    -0.298 N 
ATOM     11  C   UNL     1     -37.699  25.426   2.837  0.00  0.00    +0.267 C 
ATOM     12  C   UNL     1     -40.018  24.812   3.402  0.00  0.00    +0.111 C 
ATOM     13  H   UNL     1     -38.294  23.621   3.594  0.00  0.00    +0.150 HD
ENDBRANCH   8  11
BRANCH   7  14
ATOM     14  O   UNL     1     -34.131  24.848   2.120  0.00  0.00    -0.373 OA
ATOM     15  C   UNL     1     -33.455  25.042   0.888  0.00  0.00    +0.288 C 
ENDBRANCH   7  14
ENDBRANCH   2   8
BRANCH   1  16
ATOM     16  C   UNL     1     -35.675  25.544   5.639  0.00  0.00    +0.265 C 
BRANCH  16  17
ATOM     17  O   UNL     1     -34.388  25.926   6.100  0.00  0.00    -0.373 OA
BRANCH  17  18
ATOM     18  N   UNL     1     -33.845  26.830   5.180  0.00  0.00    -0.085 NA
ATOM     19  C   UNL     1     -32.882  27.503   5.721  0.00  0.00    +0.119 C 
ATOM     20  C   UNL     1     -32.386  27.384   7.131  0.00  0.00    +0.057 C 
BRANCH  19  22
ATOM     21  N   UNL     1     -32.884  29.314   4.070  0.00  0.00    -0.080 NA
ATOM     22  C   UNL     1     -32.214  28.527   4.851  0.00  0.00    +0.153 C 
BRANCH  22  24
ATOM     23  N   UNL     1     -30.060  27.903   4.069  0.00  0.00    -0.086 NA
ATOM     24  C   UNL     1     -30.727  28.702   4.837  0.00  0.00    +0.119 C 
ATOM     25  C   UNL     1     -30.164  29.778   5.718  0.00  0.00    +0.057 C 
BRANCH  23  26
ATOM     26  O   UNL     1     -30.926  27.025   3.405  0.00  0.00    -0.373 OA
ATOM     27  C   UNL     1     -30.465  26.875   2.071  0.00  0.00    +0.288 C 
ENDBRANCH  23  26
ENDBRANCH  22  24
BRANCH  21  28
ATOM     28  O   UNL     1     -32.031  30.176   3.368  0.00  0.00    -0.373 OA
ATOM     29  C   UNL     1     -32.755  31.357   3.058  0.00  0.00    +0.288 C 
ENDBRANCH  21  28
ENDBRANCH  19  22
ENDBRANCH  17  18
ENDBRANCH  16  17
ENDBRANCH   1  16
TORSDOF 10
ENDMDL
MODEL 7
REMARK VINA RESULT:      -5.8      1.944      3.644
REMARK  Name = 60006000
REMARK  10 active torsions:
REMARK  status: ('A' for Active; 'I' for Inactive)
REMARK    1  A    between atoms: C_1  and  C_16
REMARK    2  A    between atoms: C_2  and  C_8
REMARK    3  A    between atoms: N_7  and  O_14
REMARK    4  A    between atoms: C_8  and  C_11
REMARK    5  A    between atoms: C_16  and  O_17
REMARK    6  A    between atoms: O_17  and  N_18
REMARK    7  A    between atoms: C_19  and  C_22
REMARK    8  A    between atoms: N_21  and  O_28
REMARK    9  A    between atoms: C_22  and  C_24
REMARK   10  A    between atoms: N_23  and  O_26
REMARK                            x       y       z     vdW  Elec       q    Type
REMARK                         _______ _______ _______ _____ _____    ______ ____
ROOT
ATOM      1  C   UNL     1     -34.986  22.902   1.643  0.00  0.00    +0.026 C 
ATOM      2  C   UNL     1     -35.655  22.311   2.715  0.00  0.00    +0.025 C 
ATOM      3  C   UNL     1     -34.236  22.115   0.768  0.00  0.00    -0.001 C 
ATOM      4  C   UNL     1     -35.573  20.932   2.913  0.00  0.00    +0.002 C 
ATOM      5  C   UNL     1     -34.155  20.736   0.967  0.00  0.00    -0.000 C 
ATOM      6  C   UNL     1     -34.824  20.146   2.039  0.00  0.00    +0.000 C 
ENDROOT
BRANCH   2   8
ATOM      7  N   UNL     1     -37.703  23.406   3.411  0.00  0.00    -0.078 NA
ATOM      8  C   UNL     1     -36.444  23.109   3.643  0.00  0.00    +0.172 C 
BRANCH   8  11
ATOM      9  O   UNL     1     -35.807  22.912   5.907  0.00  0.00    -0.268 OA
ATOM     10  N   UNL     1     -35.319  24.913   4.783  0.00  0.00    -0.298 N 
ATOM     11  C   UNL     1     -35.808  23.633   4.922  0.00  0.00    +0.267 C 
ATOM     12  C   UNL     1     -34.694  25.612   5.878  0.00  0.00    +0.111 C 
ATOM     13  H   UNL     1     -35.399  25.364   3.912  0.00  0.00    +0.150 HD
ENDBRANCH   8  11
BRANCH   7  14
ATOM     14  O   UNL     1     -38.175  22.876   2.202  0.00  0.00    -0.373 OA
ATOM     15  C   UNL     1     -39.580  23.074   2.152  0.00  0.00    +0.288 C 
ENDBRANCH   7  14
ENDBRANCH   2   8
BRANCH   1  16
ATOM     16  C   UNL     1     -35.056  24.382   1.406  0.00  0.00    +0.265 C 
BRANCH  16  17
ATOM     17  O   UNL     1     -33.955  25.007   2.046  0.00  0.00    -0.373 OA
BRANCH  17  18
ATOM     18  N   UNL     1     -34.341  26.303   2.412  0.00  0.00    -0.085 NA
ATOM     19  C   UNL     1     -33.301  27.053   2.584  0.00  0.00    +0.119 C 
ATOM     20  C   UNL     1     -31.866  26.645   2.438  0.00  0.00    +0.057 C 
BRANCH  19  22
ATOM     21  N   UNL     1     -34.763  28.951   3.099  0.00  0.00    -0.080 NA
ATOM     22  C   UNL     1     -33.564  28.471   2.996  0.00  0.00    +0.153 C 
BRANCH  22  24
ATOM     23  N   UNL     1     -32.047  29.439   4.547  0.00  0.00    -0.086 NA
ATOM     24  C   UNL     1     -32.450  29.419   3.318  0.00  0.00    +0.119 C 
ATOM     25  C   UNL     1     -31.923  30.252   2.187  0.00  0.00    +0.057 C 
BRANCH  23  26
ATOM     26  O   UNL     1     -32.782  28.530   5.319  0.00  0.00    -0.373 OA
ATOM     27  C   UNL     1     -31.955  28.085   6.383  0.00  0.00    +0.288 C 
ENDBRANCH  23  26
ENDBRANCH  22  24
BRANCH  21  28
ATOM     28  O   UNL     1     -34.739  30.293   3.501  0.00  0.00    -0.373 OA
ATOM     29  C   UNL     1     -35.667  31.010   2.702  0.00  0.00    +0.288 C 
ENDBRANCH  21  28
ENDBRANCH  19  22
ENDBRANCH  17  18
ENDBRANCH  16  17
ENDBRANCH   1  16
TORSDOF 10
ENDMDL
MODEL 8
REMARK VINA RESULT:      -5.7      1.959      4.018
REMARK  Name = 60006000
REMARK  10 active torsions:
REMARK  status: ('A' for Active; 'I' for Inactive)
REMARK    1  A    between atoms: C_1  and  C_16
REMARK    2  A    between atoms: C_2  and  C_8
REMARK    3  A    between atoms: N_7  and  O_14
REMARK    4  A    between atoms: C_8  and  C_11
REMARK    5  A    between atoms: C_16  and  O_17
REMARK    6  A    between atoms: O_17  and  N_18
REMARK    7  A    between atoms: C_19  and  C_22
REMARK    8  A    between atoms: N_21  and  O_28
REMARK    9  A    between atoms: C_22  and  C_24
REMARK   10  A    between atoms: N_23  and  O_26
REMARK                            x       y       z     vdW  Elec       q    Type
REMARK                         _______ _______ _______ _____ _____    ______ ____
ROOT
ATOM      1  C   UNL     1     -34.975  22.666   1.429  0.00  0.00    +0.026 C 
ATOM      2  C   UNL     1     -35.716  22.021   2.418  0.00  0.00    +0.025 C 
ATOM      3  C   UNL     1     -34.090  21.937   0.633  0.00  0.00    -0.001 C 
ATOM      4  C   UNL     1     -35.572  20.647   2.613  0.00  0.00    +0.002 C 
ATOM      5  C   UNL     1     -33.946  20.564   0.828  0.00  0.00    -0.000 C 
ATOM      6  C   UNL     1     -34.687  19.919   1.818  0.00  0.00    +0.000 C 
ENDROOT
BRANCH   2   8
ATOM      7  N   UNL     1     -36.342  23.110   4.492  0.00  0.00    -0.078 NA
ATOM      8  C   UNL     1     -36.646  22.757   3.263  0.00  0.00    +0.172 C 
BRANCH   8  11
ATOM      9  O   UNL     1     -38.498  22.459   1.829  0.00  0.00    -0.268 OA
ATOM     10  N   UNL     1     -38.548  24.239   3.357  0.00  0.00    -0.298 N 
ATOM     11  C   UNL     1     -38.022  23.132   2.729  0.00  0.00    +0.267 C 
ATOM     12  C   UNL     1     -39.834  24.781   2.994  0.00  0.00    +0.111 C 
ATOM     13  H   UNL     1     -38.031  24.673   4.074  0.00  0.00    +0.150 HD
ENDBRANCH   8  11
BRANCH   7  14
ATOM     14  O   UNL     1     -35.056  22.705   4.873  0.00  0.00    -0.373 OA
ATOM     15  C   UNL     1     -35.137  22.147   6.176  0.00  0.00    +0.288 C 
ENDBRANCH   7  14
ENDBRANCH   2   8
BRANCH   1  16
ATOM     16  C   UNL     1     -35.110  24.142   1.197  0.00  0.00    +0.265 C 
BRANCH  16  17
ATOM     17  O   UNL     1     -33.871  24.772   1.484  0.00  0.00    -0.373 OA
BRANCH  17  18
ATOM     18  N   UNL     1     -34.135  25.952   2.190  0.00  0.00    -0.085 NA
ATOM     19  C   UNL     1     -33.038  26.601   2.413  0.00  0.00    +0.119 C 
ATOM     20  C   UNL     1     -31.655  26.191   2.007  0.00  0.00    +0.057 C 
BRANCH  19  22
ATOM     21  N   UNL     1     -33.964  28.835   2.807  0.00  0.00    -0.080 NA
ATOM     22  C   UNL     1     -33.168  27.884   3.180  0.00  0.00    +0.153 C 
BRANCH  22  24
ATOM     23  N   UNL     1     -32.902  27.713   5.534  0.00  0.00    -0.086 NA
ATOM     24  C   UNL     1     -32.382  28.140   4.429  0.00  0.00    +0.119 C 
ATOM     25  C   UNL     1     -31.081  28.869   4.272  0.00  0.00    +0.057 C 
BRANCH  23  26
ATOM     26  O   UNL     1     -34.131  27.087   5.288  0.00  0.00    -0.373 OA
ATOM     27  C   UNL     1     -34.201  25.921   6.093  0.00  0.00    +0.288 C 
ENDBRANCH  23  26
ENDBRANCH  22  24
BRANCH  21  28
ATOM     28  O   UNL     1     -33.903  29.922   3.690  0.00  0.00    -0.373 OA
ATOM     29  C   UNL     1     -34.519  31.036   3.062  0.00  0.00    +0.288 C 
ENDBRANCH  21  28
ENDBRANCH  19  22
ENDBRANCH  17  18
ENDBRANCH  16  17
ENDBRANCH   1  16
TORSDOF 10
ENDMDL
MODEL 9
REMARK VINA RESULT:      -5.6      2.296      3.937
REMARK  Name = 60006000
REMARK  10 active torsions:
REMARK  status: ('A' for Active; 'I' for Inactive)
REMARK    1  A    between atoms: C_1  and  C_16
REMARK    2  A    between atoms: C_2  and  C_8
REMARK    3  A    between atoms: N_7  and  O_14
REMARK    4  A    between atoms: C_8  and  C_11
REMARK    5  A    between atoms: C_16  and  O_17
REMARK    6  A    between atoms: O_17  and  N_18
REMARK    7  A    between atoms: C_19  and  C_22
REMARK    8  A    between atoms: N_21  and  O_28
REMARK    9  A    between atoms: C_22  and  C_24
REMARK   10  A    between atoms: N_23  and  O_26
REMARK                            x       y       z     vdW  Elec       q    Type
REMARK                         _______ _______ _______ _____ _____    ______ ____
ROOT
ATOM      1  C   UNL     1     -34.757  22.410   1.187  0.00  0.00    +0.026 C 
ATOM      2  C   UNL     1     -35.507  21.622   2.059  0.00  0.00    +0.025 C 
ATOM      3  C   UNL     1     -33.720  21.840   0.448  0.00  0.00    -0.001 C 
ATOM      4  C   UNL     1     -35.220  20.263   2.194  0.00  0.00    +0.002 C 
ATOM      5  C   UNL     1     -33.432  20.481   0.583  0.00  0.00    -0.000 C 
ATOM      6  C   UNL     1     -34.183  19.694   1.456  0.00  0.00    +0.000 C 
ENDROOT
BRANCH   2   8
ATOM      7  N   UNL     1     -37.832  22.221   2.399  0.00  0.00    -0.078 NA
ATOM      8  C   UNL     1     -36.595  22.191   2.843  0.00  0.00    +0.172 C 
BRANCH   8  11
ATOM      9  O   UNL     1     -36.519  23.974   4.388  0.00  0.00    -0.268 OA
ATOM     10  N   UNL     1     -35.823  21.850   5.102  0.00  0.00    -0.298 N 
ATOM     11  C   UNL     1     -36.312  22.783   4.216  0.00  0.00    +0.267 C 
ATOM     12  C   UNL     1     -35.468  22.199   6.456  0.00  0.00    +0.111 C 
ATOM     13  H   UNL     1     -35.712  20.918   4.804  0.00  0.00    +0.150 HD
ENDBRANCH   8  11
BRANCH   7  14
ATOM     14  O   UNL     1     -37.969  21.655   1.124  0.00  0.00    -0.373 OA
ATOM     15  C   UNL     1     -39.327  21.280   0.951  0.00  0.00    +0.288 C 
ENDBRANCH   7  14
ENDBRANCH   2   8
BRANCH   1  16
ATOM     16  C   UNL     1     -35.045  23.873   1.022  0.00  0.00    +0.265 C 
BRANCH  16  17
ATOM     17  O   UNL     1     -33.849  24.607   1.232  0.00  0.00    -0.373 OA
BRANCH  17  18
ATOM     18  N   UNL     1     -34.010  25.383   2.387  0.00  0.00    -0.085 NA
ATOM     19  C   UNL     1     -32.966  26.122   2.586  0.00  0.00    +0.119 C 
ATOM     20  C   UNL     1     -31.729  26.172   1.741  0.00  0.00    +0.057 C 
BRANCH  19  22
ATOM     21  N   UNL     1     -33.309  26.544   4.975  0.00  0.00    -0.080 NA
ATOM     22  C   UNL     1     -32.992  26.997   3.803  0.00  0.00    +0.153 C 
BRANCH  22  24
ATOM     23  N   UNL     1     -33.614  29.260   3.437  0.00  0.00    -0.086 NA
ATOM     24  C   UNL     1     -32.649  28.453   3.737  0.00  0.00    +0.119 C 
ATOM     25  C   UNL     1     -31.223  28.826   4.016  0.00  0.00    +0.057 C 
BRANCH  23  26
ATOM     26  O   UNL     1     -34.804  28.548   3.236  0.00  0.00    -0.373 OA
ATOM     27  C   UNL     1     -35.498  29.145   2.153  0.00  0.00    +0.288 C 
ENDBRANCH  23  26
ENDBRANCH  22  24
BRANCH  21  28
ATOM     28  O   UNL     1     -33.255  27.557   5.942  0.00  0.00    -0.373 OA
ATOM     29  C   UNL     1     -32.709  27.005   7.130  0.00  0.00    +0.288 C 
ENDBRANCH  21  28
ENDBRANCH  19  22
ENDBRANCH  17  18
ENDBRANCH  16  17
ENDBRANCH   1  16
TORSDOF 10
ENDMDL
