MODEL 1
REMARK VINA RESULT:      -6.1      0.000      0.000
REMARK  Name = 53420943
REMARK  9 active torsions:
REMARK  status: ('A' for Active; 'I' for Inactive)
REMARK    1  A    between atoms: CA_5  and  N_11
REMARK    2  A    between atoms: CA_7  and  C_27
REMARK    3  A    between atoms: C_8  and  C_30
REMARK    4  A    between atoms: C_12  and  C_14
REMARK    5  A    between atoms: C_14  and  C_19
REMARK    6  A    between atoms: C_15  and  C_24
REMARK    7  A    between atoms: C_27  and  O_28
REMARK    8  A    between atoms: C_30  and  O_31
REMARK    9  A    between atoms: O_31  and  C_34
REMARK                            x       y       z     vdW  Elec       q    Type
REMARK                         _______ _______ _______ _____ _____    ______ ____
ROOT
ATOM      1  S   UNL     1     -37.298  22.610   0.951  0.00  0.00    -0.114 S 
ATOM      2  O   UNL     1     -35.148  21.006   4.748  0.00  0.00    -0.273 OA
ATOM      3  N   UNL     1     -35.669  22.553   3.046  0.00  0.00    -0.242 N 
ATOM      4  C   UNL     1     -35.728  22.083   1.674  0.00  0.00    +0.155 C 
ATOM      5  CA  UNL     1     -35.688  20.655   2.263  0.00  0.00    +0.179 C 
ATOM      6  C   UNL     1     -35.406  21.360   3.621  0.00  0.00    +0.251 C 
ATOM      7  CA  UNL     1     -35.855  23.849   3.408  0.00  0.00    +0.127 C 
ATOM      8  C   UNL     1     -36.398  24.750   2.556  0.00  0.00    +0.030 C 
ATOM      9  C   UNL     1     -36.934  24.383   1.174  0.00  0.00    +0.086 C 
ENDROOT
BRANCH   5  11
ATOM     10  O   UNL     1     -35.682  19.001  -0.070  0.00  0.00    -0.270 OA
ATOM     11  N   UNL     1     -34.621  19.748   1.839  0.00  0.00    -0.293 N 
ATOM     12  C   UNL     1     -34.707  18.976   0.680  0.00  0.00    +0.248 C 
ATOM     13  H   UNL     1     -33.812  19.679   2.394  0.00  0.00    +0.150 HD
BRANCH  12  14
ATOM     14  C   UNL     1     -33.512  18.097   0.405  0.00  0.00    +0.075 C 
ATOM     15  C   UNL     1     -32.381  18.382   1.082  0.00  0.00    -0.019 C 
BRANCH  14  19
ATOM     16  S   UNL     1     -33.370  15.495  -2.594  0.00  0.00    -0.060 S 
ATOM     17  N   UNL     1     -34.115  15.771  -0.134  0.00  0.00    -0.385 NA
ATOM     18  N   UNL     1     -34.518  13.639  -1.074  0.00  0.00    -0.328 N 
ATOM     19  C   UNL     1     -33.569  16.971  -0.543  0.00  0.00    +0.127 C 
ATOM     20  C   UNL     1     -33.110  17.014  -1.843  0.00  0.00    +0.125 C 
ATOM     21  C   UNL     1     -34.063  14.919  -1.134  0.00  0.00    +0.204 C 
ATOM     22  H   UNL     1     -34.448  13.053  -1.862  0.00  0.00    +0.145 HD
ATOM     23  H   UNL     1     -34.917  13.297  -0.241  0.00  0.00    +0.145 HD
ENDBRANCH  14  19
BRANCH  15  24
ATOM     24  C   UNL     1     -31.066  17.650   1.017  0.00  0.00    +0.026 C 
ATOM     25  C   UNL     1     -30.014  18.471   0.287  0.00  0.00    +0.005 C 
ENDBRANCH  15  24
ENDBRANCH  12  14
ENDBRANCH   5  11
BRANCH   7  27
ATOM     26  OXT UNL     1     -36.286  24.221   5.716  0.00  0.00    -0.244 OA
ATOM     27  C   UNL     1     -35.501  24.211   4.789  0.00  0.00    +0.352 C 
BRANCH  27  28
ATOM     28  O   UNL     1     -34.192  24.526   4.848  0.00  0.00    -0.476 OA
ATOM     29  H   UNL     1     -33.559  23.978   4.426  0.00  0.00    +0.295 HD
ENDBRANCH  27  28
ENDBRANCH   7  27
BRANCH   8  30
ATOM     30  C   UNL     1     -36.561  26.222   2.856  0.00  0.00    +0.235 C 
BRANCH  30  31
ATOM     31  O   UNL     1     -35.403  26.914   2.441  0.00  0.00    -0.430 OA
BRANCH  31  34
ATOM     32  O   UNL     1     -34.080  27.400   4.261  0.00  0.00    -0.227 OA
ATOM     33  N   UNL     1     -35.212  29.060   3.143  0.00  0.00    -0.295 N 
ATOM     34  C   UNL     1     -34.832  27.758   3.361  0.00  0.00    +0.399 C 
ATOM     35  H   UNL     1     -35.820  29.277   2.399  0.00  0.00    +0.148 HD
ATOM     36  H   UNL     1     -34.875  29.775   3.730  0.00  0.00    +0.148 HD
ENDBRANCH  31  34
ENDBRANCH  30  31
ENDBRANCH   8  30
TORSDOF 9
ENDMDL
MODEL 2
REMARK VINA RESULT:      -6.0      5.274      9.881
REMARK  Name = 53420943
REMARK  9 active torsions:
REMARK  status: ('A' for Active; 'I' for Inactive)
REMARK    1  A    between atoms: CA_5  and  N_11
REMARK    2  A    between atoms: CA_7  and  C_27
REMARK    3  A    between atoms: C_8  and  C_30
REMARK    4  A    between atoms: C_12  and  C_14
REMARK    5  A    between atoms: C_14  and  C_19
REMARK    6  A    between atoms: C_15  and  C_24
REMARK    7  A    between atoms: C_27  and  O_28
REMARK    8  A    between atoms: C_30  and  O_31
REMARK    9  A    between atoms: O_31  and  C_34
REMARK                            x       y       z     vdW  Elec       q    Type
REMARK                         _______ _______ _______ _____ _____    ______ ____
ROOT
ATOM      1  S   UNL     1     -34.468  23.881   1.795  0.00  0.00    -0.114 S 
ATOM      2  O   UNL     1     -36.216  26.590   5.143  0.00  0.00    -0.273 OA
ATOM      3  N   UNL     1     -36.051  25.644   2.989  0.00  0.00    -0.242 N 
ATOM      4  C   UNL     1     -34.746  25.575   2.359  0.00  0.00    +0.155 C 
ATOM      5  CA  UNL     1     -34.165  25.942   3.743  0.00  0.00    +0.179 C 
ATOM      6  C   UNL     1     -35.644  26.181   4.160  0.00  0.00    +0.251 C 
ATOM      7  CA  UNL     1     -37.200  25.234   2.393  0.00  0.00    +0.127 C 
ATOM      8  C   UNL     1     -37.183  24.460   1.282  0.00  0.00    +0.030 C 
ATOM      9  C   UNL     1     -35.901  23.903   0.666  0.00  0.00    +0.086 C 
ENDROOT
BRANCH   5  11
ATOM     10  O   UNL     1     -32.785  26.831   6.085  0.00  0.00    -0.270 OA
ATOM     11  N   UNL     1     -33.321  27.131   3.860  0.00  0.00    -0.293 N 
ATOM     12  C   UNL     1     -32.684  27.488   5.049  0.00  0.00    +0.248 C 
ATOM     13  H   UNL     1     -33.197  27.701   3.068  0.00  0.00    +0.150 HD
BRANCH  12  14
ATOM     14  C   UNL     1     -31.857  28.748   4.981  0.00  0.00    +0.075 C 
ATOM     15  C   UNL     1     -32.435  29.821   4.405  0.00  0.00    -0.019 C 
BRANCH  14  19
ATOM     16  S   UNL     1     -27.975  28.739   5.825  0.00  0.00    -0.060 S 
ATOM     17  N   UNL     1     -30.307  29.196   6.841  0.00  0.00    -0.385 NA
ATOM     18  N   UNL     1     -28.487  29.510   8.318  0.00  0.00    -0.328 N 
ATOM     19  C   UNL     1     -30.491  28.819   5.526  0.00  0.00    +0.127 C 
ATOM     20  C   UNL     1     -29.345  28.532   4.814  0.00  0.00    +0.125 C 
ATOM     21  C   UNL     1     -29.020  29.188   7.109  0.00  0.00    +0.204 C 
ATOM     22  H   UNL     1     -27.512  29.484   8.449  0.00  0.00    +0.145 HD
ATOM     23  H   UNL     1     -29.077  29.771   9.062  0.00  0.00    +0.145 HD
ENDBRANCH  14  19
BRANCH  15  24
ATOM     24  C   UNL     1     -31.846  31.198   4.237  0.00  0.00    +0.026 C 
ATOM     25  C   UNL     1     -32.438  31.906   3.028  0.00  0.00    +0.005 C 
ENDBRANCH  15  24
ENDBRANCH  12  14
ENDBRANCH   5  11
BRANCH   7  27
ATOM     26  OXT UNL     1     -39.141  26.568   2.723  0.00  0.00    -0.244 OA
ATOM     27  C   UNL     1     -38.463  25.613   3.046  0.00  0.00    +0.352 C 
BRANCH  27  28
ATOM     28  O   UNL     1     -38.730  24.744   4.040  0.00  0.00    -0.476 OA
ATOM     29  H   UNL     1     -38.036  24.427   4.585  0.00  0.00    +0.295 HD
ENDBRANCH  27  28
ENDBRANCH   7  27
BRANCH   8  30
ATOM     30  C   UNL     1     -38.412  24.032   0.516  0.00  0.00    +0.235 C 
BRANCH  30  31
ATOM     31  O   UNL     1     -38.554  22.631   0.608  0.00  0.00    -0.430 OA
BRANCH  31  34
ATOM     32  O   UNL     1     -40.168  22.687   2.249  0.00  0.00    -0.227 OA
ATOM     33  N   UNL     1     -38.614  20.994   2.174  0.00  0.00    -0.295 N 
ATOM     34  C   UNL     1     -39.198  22.153   1.723  0.00  0.00    +0.399 C 
ATOM     35  H   UNL     1     -37.835  20.620   1.702  0.00  0.00    +0.148 HD
ATOM     36  H   UNL     1     -38.974  20.540   2.970  0.00  0.00    +0.148 HD
ENDBRANCH  31  34
ENDBRANCH  30  31
ENDBRANCH   8  30
TORSDOF 9
ENDMDL
MODEL 3
REMARK VINA RESULT:      -6.0      3.537      9.490
REMARK  Name = 53420943
REMARK  9 active torsions:
REMARK  status: ('A' for Active; 'I' for Inactive)
REMARK    1  A    between atoms: CA_5  and  N_11
REMARK    2  A    between atoms: CA_7  and  C_27
REMARK    3  A    between atoms: C_8  and  C_30
REMARK    4  A    between atoms: C_12  and  C_14
REMARK    5  A    between atoms: C_14  and  C_19
REMARK    6  A    between atoms: C_15  and  C_24
REMARK    7  A    between atoms: C_27  and  O_28
REMARK    8  A    between atoms: C_30  and  O_31
REMARK    9  A    between atoms: O_31  and  C_34
REMARK                            x       y       z     vdW  Elec       q    Type
REMARK                         _______ _______ _______ _____ _____    ______ ____
ROOT
ATOM      1  S   UNL     1     -38.112  19.601  -1.078  0.00  0.00    -0.114 S 
ATOM      2  O   UNL     1     -33.826  18.294   0.162  0.00  0.00    -0.273 OA
ATOM      3  N   UNL     1     -36.162  18.091  -0.096  0.00  0.00    -0.242 N 
ATOM      4  C   UNL     1     -37.003  19.208   0.294  0.00  0.00    +0.155 C 
ATOM      5  CA  UNL     1     -35.701  20.034   0.383  0.00  0.00    +0.179 C 
ATOM      6  C   UNL     1     -34.974  18.675   0.173  0.00  0.00    +0.251 C 
ATOM      7  CA  UNL     1     -36.643  16.911  -0.564  0.00  0.00    +0.127 C 
ATOM      8  C   UNL     1     -37.926  16.785  -0.980  0.00  0.00    +0.030 C 
ATOM      9  C   UNL     1     -38.902  17.957  -1.056  0.00  0.00    +0.086 C 
ENDROOT
BRANCH   5  11
ATOM     10  O   UNL     1     -36.706  22.542   1.320  0.00  0.00    -0.270 OA
ATOM     11  N   UNL     1     -35.367  20.690   1.647  0.00  0.00    -0.293 N 
ATOM     12  C   UNL     1     -35.910  21.920   2.022  0.00  0.00    +0.248 C 
ATOM     13  H   UNL     1     -34.735  20.247   2.257  0.00  0.00    +0.150 HD
BRANCH  12  14
ATOM     14  C   UNL     1     -35.447  22.444   3.359  0.00  0.00    +0.075 C 
ATOM     15  C   UNL     1     -35.155  21.525   4.302  0.00  0.00    -0.019 C 
BRANCH  14  19
ATOM     16  S   UNL     1     -34.549  26.303   3.639  0.00  0.00    -0.060 S 
ATOM     17  N   UNL     1     -36.159  24.489   4.531  0.00  0.00    -0.385 NA
ATOM     18  N   UNL     1     -36.496  26.656   5.415  0.00  0.00    -0.328 N 
ATOM     19  C   UNL     1     -35.306  23.884   3.630  0.00  0.00    +0.127 C 
ATOM     20  C   UNL     1     -34.366  24.706   3.043  0.00  0.00    +0.125 C 
ATOM     21  C   UNL     1     -35.852  25.765   4.616  0.00  0.00    +0.204 C 
ATOM     22  H   UNL     1     -36.214  27.599   5.429  0.00  0.00    +0.145 HD
ATOM     23  H   UNL     1     -37.247  26.359   5.979  0.00  0.00    +0.145 HD
ENDBRANCH  14  19
BRANCH  15  24
ATOM     24  C   UNL     1     -34.648  21.775   5.699  0.00  0.00    +0.026 C 
ATOM     25  C   UNL     1     -35.797  21.891   6.689  0.00  0.00    +0.005 C 
ENDBRANCH  15  24
ENDBRANCH  12  14
ENDBRANCH   5  11
BRANCH   7  27
ATOM     26  OXT UNL     1     -35.008  15.560  -1.638  0.00  0.00    -0.244 OA
ATOM     27  C   UNL     1     -35.690  15.794  -0.661  0.00  0.00    +0.352 C 
BRANCH  27  28
ATOM     28  O   UNL     1     -35.706  15.092   0.488  0.00  0.00    -0.476 OA
ATOM     29  H   UNL     1     -36.414  14.506   0.670  0.00  0.00    +0.295 HD
ENDBRANCH  27  28
ENDBRANCH   7  27
BRANCH   8  30
ATOM     30  C   UNL     1     -38.556  15.491  -1.437  0.00  0.00    +0.235 C 
BRANCH  30  31
ATOM     31  O   UNL     1     -38.883  14.708  -0.308  0.00  0.00    -0.430 OA
BRANCH  31  34
ATOM     32  O   UNL     1     -41.144  14.828  -0.726  0.00  0.00    -0.227 OA
ATOM     33  N   UNL     1     -40.252  13.080   0.472  0.00  0.00    -0.295 N 
ATOM     34  C   UNL     1     -40.178  14.257  -0.231  0.00  0.00    +0.399 C 
ATOM     35  H   UNL     1     -39.434  12.676   0.843  0.00  0.00    +0.148 HD
ATOM     36  H   UNL     1     -41.123  12.641   0.606  0.00  0.00    +0.148 HD
ENDBRANCH  31  34
ENDBRANCH  30  31
ENDBRANCH   8  30
TORSDOF 9
ENDMDL
MODEL 4
REMARK VINA RESULT:      -6.0      5.889     10.849
REMARK  Name = 53420943
REMARK  9 active torsions:
REMARK  status: ('A' for Active; 'I' for Inactive)
REMARK    1  A    between atoms: CA_5  and  N_11
REMARK    2  A    between atoms: CA_7  and  C_27
REMARK    3  A    between atoms: C_8  and  C_30
REMARK    4  A    between atoms: C_12  and  C_14
REMARK    5  A    between atoms: C_14  and  C_19
REMARK    6  A    between atoms: C_15  and  C_24
REMARK    7  A    between atoms: C_27  and  O_28
REMARK    8  A    between atoms: C_30  and  O_31
REMARK    9  A    between atoms: O_31  and  C_34
REMARK                            x       y       z     vdW  Elec       q    Type
REMARK                         _______ _______ _______ _____ _____    ______ ____
ROOT
ATOM      1  S   UNL     1     -39.367  22.668   1.251  0.00  0.00    -0.114 S 
ATOM      2  O   UNL     1     -39.097  27.306   1.385  0.00  0.00    -0.273 OA
ATOM      3  N   UNL     1     -38.675  25.092   2.079  0.00  0.00    -0.242 N 
ATOM      4  C   UNL     1     -39.790  24.167   2.166  0.00  0.00    +0.155 C 
ATOM      5  CA  UNL     1     -40.608  25.231   1.401  0.00  0.00    +0.179 C 
ATOM      6  C   UNL     1     -39.372  26.151   1.613  0.00  0.00    +0.251 C 
ATOM      7  CA  UNL     1     -37.399  24.771   2.416  0.00  0.00    +0.127 C 
ATOM      8  C   UNL     1     -37.014  23.483   2.581  0.00  0.00    +0.030 C 
ATOM      9  C   UNL     1     -37.931  22.292   2.310  0.00  0.00    +0.086 C 
ENDROOT
BRANCH   5  11
ATOM     10  O   UNL     1     -43.283  24.438   0.773  0.00  0.00    -0.270 OA
ATOM     11  N   UNL     1     -41.836  25.746   2.007  0.00  0.00    -0.293 N 
ATOM     12  C   UNL     1     -43.104  25.298   1.636  0.00  0.00    +0.248 C 
ATOM     13  H   UNL     1     -41.764  26.436   2.704  0.00  0.00    +0.150 HD
BRANCH  12  14
ATOM     14  C   UNL     1     -44.253  25.945   2.367  0.00  0.00    +0.075 C 
ATOM     15  C   UNL     1     -45.357  25.193   2.550  0.00  0.00    -0.019 C 
BRANCH  14  19
ATOM     16  S   UNL     1     -44.386  29.837   3.153  0.00  0.00    -0.060 S 
ATOM     17  N   UNL     1     -43.575  27.569   4.090  0.00  0.00    -0.385 NA
ATOM     18  N   UNL     1     -43.117  29.443   5.457  0.00  0.00    -0.328 N 
ATOM     19  C   UNL     1     -44.181  27.326   2.873  0.00  0.00    +0.127 C 
ATOM     20  C   UNL     1     -44.682  28.431   2.217  0.00  0.00    +0.125 C 
ATOM     21  C   UNL     1     -43.624  28.859   4.339  0.00  0.00    +0.204 C 
ATOM     22  H   UNL     1     -43.190  30.417   5.580  0.00  0.00    +0.145 HD
ATOM     23  H   UNL     1     -42.679  28.891   6.145  0.00  0.00    +0.145 HD
ENDBRANCH  14  19
BRANCH  15  24
ATOM     24  C   UNL     1     -46.623  25.582   3.267  0.00  0.00    +0.026 C 
ATOM     25  C   UNL     1     -47.152  24.434   4.113  0.00  0.00    +0.005 C 
ENDBRANCH  15  24
ENDBRANCH  12  14
ENDBRANCH   5  11
BRANCH   7  27
ATOM     26  OXT UNL     1     -35.718  26.256   1.627  0.00  0.00    -0.244 OA
ATOM     27  C   UNL     1     -36.440  25.881   2.529  0.00  0.00    +0.352 C 
BRANCH  27  28
ATOM     28  O   UNL     1     -36.496  26.396   3.773  0.00  0.00    -0.476 OA
ATOM     29  H   UNL     1     -35.899  26.097   4.431  0.00  0.00    +0.295 HD
ENDBRANCH  27  28
ENDBRANCH   7  27
BRANCH   8  30
ATOM     30  C   UNL     1     -35.640  23.051   3.033  0.00  0.00    +0.235 C 
BRANCH  30  31
ATOM     31  O   UNL     1     -35.761  22.230   4.175  0.00  0.00    -0.430 OA
BRANCH  31  34
ATOM     32  O   UNL     1     -35.409  24.045   5.547  0.00  0.00    -0.227 OA
ATOM     33  N   UNL     1     -35.977  21.994   6.418  0.00  0.00    -0.295 N 
ATOM     34  C   UNL     1     -35.690  22.861   5.392  0.00  0.00    +0.399 C 
ATOM     35  H   UNL     1     -36.194  21.054   6.221  0.00  0.00    +0.148 HD
ATOM     36  H   UNL     1     -35.964  22.313   7.349  0.00  0.00    +0.148 HD
ENDBRANCH  31  34
ENDBRANCH  30  31
ENDBRANCH   8  30
TORSDOF 9
ENDMDL
MODEL 5
REMARK VINA RESULT:      -5.9      2.490      3.172
REMARK  Name = 53420943
REMARK  9 active torsions:
REMARK  status: ('A' for Active; 'I' for Inactive)
REMARK    1  A    between atoms: CA_5  and  N_11
REMARK    2  A    between atoms: CA_7  and  C_27
REMARK    3  A    between atoms: C_8  and  C_30
REMARK    4  A    between atoms: C_12  and  C_14
REMARK    5  A    between atoms: C_14  and  C_19
REMARK    6  A    between atoms: C_15  and  C_24
REMARK    7  A    between atoms: C_27  and  O_28
REMARK    8  A    between atoms: C_30  and  O_31
REMARK    9  A    between atoms: O_31  and  C_34
REMARK                            x       y       z     vdW  Elec       q    Type
REMARK                         _______ _______ _______ _____ _____    ______ ____
ROOT
ATOM      1  S   UNL     1     -34.464  25.768   0.813  0.00  0.00    -0.114 S 
ATOM      2  O   UNL     1     -36.596  23.327   4.145  0.00  0.00    -0.273 OA
ATOM      3  N   UNL     1     -34.963  24.750   3.213  0.00  0.00    -0.242 N 
ATOM      4  C   UNL     1     -34.350  24.371   1.953  0.00  0.00    +0.155 C 
ATOM      5  CA  UNL     1     -35.460  23.303   1.844  0.00  0.00    +0.179 C 
ATOM      6  C   UNL     1     -35.819  23.709   3.302  0.00  0.00    +0.251 C 
ATOM      7  CA  UNL     1     -34.621  25.861   3.915  0.00  0.00    +0.127 C 
ATOM      8  C   UNL     1     -33.891  26.854   3.355  0.00  0.00    +0.030 C 
ATOM      9  C   UNL     1     -33.479  26.867   1.885  0.00  0.00    +0.086 C 
ENDROOT
BRANCH   5  11
ATOM     10  O   UNL     1     -35.046  21.884  -0.605  0.00  0.00    -0.270 OA
ATOM     11  N   UNL     1     -35.075  21.898   1.703  0.00  0.00    -0.293 N 
ATOM     12  C   UNL     1     -34.895  21.288   0.462  0.00  0.00    +0.248 C 
ATOM     13  H   UNL     1     -34.938  21.363   2.517  0.00  0.00    +0.150 HD
BRANCH  12  14
ATOM     14  C   UNL     1     -34.502  19.833   0.512  0.00  0.00    +0.075 C 
ATOM     15  C   UNL     1     -33.387  19.530   1.208  0.00  0.00    -0.019 C 
BRANCH  14  19
ATOM     16  S   UNL     1     -36.080  16.899  -1.653  0.00  0.00    -0.060 S 
ATOM     17  N   UNL     1     -36.593  18.557   0.263  0.00  0.00    -0.385 NA
ATOM     18  N   UNL     1     -38.370  17.108  -0.316  0.00  0.00    -0.328 N 
ATOM     19  C   UNL     1     -35.295  18.783  -0.149  0.00  0.00    +0.127 C 
ATOM     20  C   UNL     1     -34.839  17.982  -1.175  0.00  0.00    +0.125 C 
ATOM     21  C   UNL     1     -37.105  17.585  -0.460  0.00  0.00    +0.204 C 
ATOM     22  H   UNL     1     -38.689  16.377  -0.893  0.00  0.00    +0.145 HD
ATOM     23  H   UNL     1     -38.966  17.494   0.366  0.00  0.00    +0.145 HD
ENDBRANCH  14  19
BRANCH  15  24
ATOM     24  C   UNL     1     -32.794  18.164   1.440  0.00  0.00    +0.026 C 
ATOM     25  C   UNL     1     -31.369  18.086   0.912  0.00  0.00    +0.005 C 
ENDBRANCH  15  24
ENDBRANCH  12  14
ENDBRANCH   5  11
BRANCH   7  27
ATOM     26  OXT UNL     1     -34.509  25.649   6.280  0.00  0.00    -0.244 OA
ATOM     27  C   UNL     1     -35.136  25.965   5.289  0.00  0.00    +0.352 C 
BRANCH  27  28
ATOM     28  O   UNL     1     -36.390  26.456   5.261  0.00  0.00    -0.476 OA
ATOM     29  H   UNL     1     -36.531  27.382   5.245  0.00  0.00    +0.295 HD
ENDBRANCH  27  28
ENDBRANCH   7  27
BRANCH   8  30
ATOM     30  C   UNL     1     -33.404  28.079   4.092  0.00  0.00    +0.235 C 
BRANCH  30  31
ATOM     31  O   UNL     1     -32.262  27.744   4.850  0.00  0.00    -0.430 OA
BRANCH  31  34
ATOM     32  O   UNL     1     -32.011  29.514   6.301  0.00  0.00    -0.227 OA
ATOM     33  N   UNL     1     -32.265  27.367   7.085  0.00  0.00    -0.295 N 
ATOM     34  C   UNL     1     -32.165  28.315   6.096  0.00  0.00    +0.399 C 
ATOM     35  H   UNL     1     -32.388  26.420   6.848  0.00  0.00    +0.148 HD
ATOM     36  H   UNL     1     -32.213  27.637   8.030  0.00  0.00    +0.148 HD
ENDBRANCH  31  34
ENDBRANCH  30  31
ENDBRANCH   8  30
TORSDOF 9
ENDMDL
MODEL 6
REMARK VINA RESULT:      -5.9      3.864      5.154
REMARK  Name = 53420943
REMARK  9 active torsions:
REMARK  status: ('A' for Active; 'I' for Inactive)
REMARK    1  A    between atoms: CA_5  and  N_11
REMARK    2  A    between atoms: CA_7  and  C_27
REMARK    3  A    between atoms: C_8  and  C_30
REMARK    4  A    between atoms: C_12  and  C_14
REMARK    5  A    between atoms: C_14  and  C_19
REMARK    6  A    between atoms: C_15  and  C_24
REMARK    7  A    between atoms: C_27  and  O_28
REMARK    8  A    between atoms: C_30  and  O_31
REMARK    9  A    between atoms: O_31  and  C_34
REMARK                            x       y       z     vdW  Elec       q    Type
REMARK                         _______ _______ _______ _____ _____    ______ ____
ROOT
ATOM      1  S   UNL     1     -35.196  21.706   5.166  0.00  0.00    -0.114 S 
ATOM      2  O   UNL     1     -34.348  22.841   0.739  0.00  0.00    -0.273 OA
ATOM      3  N   UNL     1     -35.117  23.157   2.946  0.00  0.00    -0.242 N 
ATOM      4  C   UNL     1     -35.915  22.112   3.560  0.00  0.00    +0.155 C 
ATOM      5  CA  UNL     1     -35.490  21.222   2.371  0.00  0.00    +0.179 C 
ATOM      6  C   UNL     1     -34.885  22.525   1.775  0.00  0.00    +0.251 C 
ATOM      7  CA  UNL     1     -34.819  24.335   3.553  0.00  0.00    +0.127 C 
ATOM      8  C   UNL     1     -34.994  24.507   4.885  0.00  0.00    +0.030 C 
ATOM      9  C   UNL     1     -35.437  23.389   5.826  0.00  0.00    +0.086 C 
ENDROOT
BRANCH   5  11
ATOM     10  O   UNL     1     -35.158  19.050   0.540  0.00  0.00    -0.270 OA
ATOM     11  N   UNL     1     -36.528  20.619   1.535  0.00  0.00    -0.293 N 
ATOM     12  C   UNL     1     -36.272  19.557   0.667  0.00  0.00    +0.248 C 
ATOM     13  H   UNL     1     -37.443  20.977   1.587  0.00  0.00    +0.150 HD
BRANCH  12  14
ATOM     14  C   UNL     1     -37.465  19.068  -0.117  0.00  0.00    +0.075 C 
ATOM     15  C   UNL     1     -37.572  17.735  -0.288  0.00  0.00    -0.019 C 
BRANCH  14  19
ATOM     16  S   UNL     1     -39.796  21.561  -2.149  0.00  0.00    -0.060 S 
ATOM     17  N   UNL     1     -39.563  20.336   0.115  0.00  0.00    -0.385 NA
ATOM     18  N   UNL     1     -41.482  21.700  -0.098  0.00  0.00    -0.328 N 
ATOM     19  C   UNL     1     -38.475  19.989  -0.663  0.00  0.00    +0.127 C 
ATOM     20  C   UNL     1     -38.428  20.553  -1.921  0.00  0.00    +0.125 C 
ATOM     21  C   UNL     1     -40.326  21.162  -0.568  0.00  0.00    +0.204 C 
ATOM     22  H   UNL     1     -42.006  22.312  -0.664  0.00  0.00    +0.145 HD
ATOM     23  H   UNL     1     -41.797  21.477   0.808  0.00  0.00    +0.145 HD
ENDBRANCH  14  19
BRANCH  15  24
ATOM     24  C   UNL     1     -38.671  16.988  -0.999  0.00  0.00    +0.026 C 
ATOM     25  C   UNL     1     -38.810  15.571  -0.463  0.00  0.00    +0.005 C 
ENDBRANCH  15  24
ENDBRANCH  12  14
ENDBRANCH   5  11
BRANCH   7  27
ATOM     26  OXT UNL     1     -33.043  25.584   2.585  0.00  0.00    -0.244 OA
ATOM     27  C   UNL     1     -34.236  25.390   2.711  0.00  0.00    +0.352 C 
BRANCH  27  28
ATOM     28  O   UNL     1     -35.225  26.089   2.120  0.00  0.00    -0.476 OA
ATOM     29  H   UNL     1     -35.028  26.882   1.661  0.00  0.00    +0.295 HD
ENDBRANCH  27  28
ENDBRANCH   7  27
BRANCH   8  30
ATOM     30  C   UNL     1     -34.763  25.808   5.618  0.00  0.00    +0.235 C 
BRANCH  30  31
ATOM     31  O   UNL     1     -33.395  25.923   5.942  0.00  0.00    -0.430 OA
BRANCH  31  34
ATOM     32  O   UNL     1     -32.856  28.057   5.265  0.00  0.00    -0.227 OA
ATOM     33  N   UNL     1     -32.517  27.383   7.437  0.00  0.00    -0.295 N 
ATOM     34  C   UNL     1     -32.917  27.196   6.137  0.00  0.00    +0.399 C 
ATOM     35  H   UNL     1     -32.595  26.646   8.086  0.00  0.00    +0.148 HD
ATOM     36  H   UNL     1     -32.153  28.253   7.720  0.00  0.00    +0.148 HD
ENDBRANCH  31  34
ENDBRANCH  30  31
ENDBRANCH   8  30
TORSDOF 9
ENDMDL
MODEL 7
REMARK VINA RESULT:      -5.9      3.130      9.245
REMARK  Name = 53420943
REMARK  9 active torsions:
REMARK  status: ('A' for Active; 'I' for Inactive)
REMARK    1  A    between atoms: CA_5  and  N_11
REMARK    2  A    between atoms: CA_7  and  C_27
REMARK    3  A    between atoms: C_8  and  C_30
REMARK    4  A    between atoms: C_12  and  C_14
REMARK    5  A    between atoms: C_14  and  C_19
REMARK    6  A    between atoms: C_15  and  C_24
REMARK    7  A    between atoms: C_27  and  O_28
REMARK    8  A    between atoms: C_30  and  O_31
REMARK    9  A    between atoms: O_31  and  C_34
REMARK                            x       y       z     vdW  Elec       q    Type
REMARK                         _______ _______ _______ _____ _____    ______ ____
ROOT
ATOM      1  S   UNL     1     -35.557  19.873  -2.237  0.00  0.00    -0.114 S 
ATOM      2  O   UNL     1     -33.345  18.351   1.558  0.00  0.00    -0.273 OA
ATOM      3  N   UNL     1     -34.960  18.331  -0.161  0.00  0.00    -0.242 N 
ATOM      4  C   UNL     1     -35.670  19.561  -0.461  0.00  0.00    +0.155 C 
ATOM      5  CA  UNL     1     -34.625  20.269   0.429  0.00  0.00    +0.179 C 
ATOM      6  C   UNL     1     -34.154  18.833   0.799  0.00  0.00    +0.251 C 
ATOM      7  CA  UNL     1     -35.200  17.149  -0.785  0.00  0.00    +0.127 C 
ATOM      8  C   UNL     1     -35.912  17.089  -1.936  0.00  0.00    +0.030 C 
ATOM      9  C   UNL     1     -36.415  18.325  -2.677  0.00  0.00    +0.086 C 
ENDROOT
BRANCH   5  11
ATOM     10  O   UNL     1     -34.526  23.113   0.710  0.00  0.00    -0.270 OA
ATOM     11  N   UNL     1     -35.089  21.050   1.576  0.00  0.00    -0.293 N 
ATOM     12  C   UNL     1     -35.000  22.441   1.625  0.00  0.00    +0.248 C 
ATOM     13  H   UNL     1     -35.480  20.574   2.343  0.00  0.00    +0.150 HD
BRANCH  12  14
ATOM     14  C   UNL     1     -35.527  23.074   2.889  0.00  0.00    +0.075 C 
ATOM     15  C   UNL     1     -34.957  22.681   4.046  0.00  0.00    -0.019 C 
BRANCH  14  19
ATOM     16  S   UNL     1     -37.964  26.189   2.521  0.00  0.00    -0.060 S 
ATOM     17  N   UNL     1     -37.821  23.777   3.440  0.00  0.00    -0.385 NA
ATOM     18  N   UNL     1     -39.901  24.855   3.764  0.00  0.00    -0.328 N 
ATOM     19  C   UNL     1     -36.600  24.082   2.873  0.00  0.00    +0.127 C 
ATOM     20  C   UNL     1     -36.486  25.342   2.323  0.00  0.00    +0.125 C 
ATOM     21  C   UNL     1     -38.619  24.815   3.313  0.00  0.00    +0.204 C 
ATOM     22  H   UNL     1     -40.443  25.667   3.635  0.00  0.00    +0.145 HD
ATOM     23  H   UNL     1     -40.287  24.072   4.219  0.00  0.00    +0.145 HD
ENDBRANCH  14  19
BRANCH  15  24
ATOM     24  C   UNL     1     -35.271  23.172   5.435  0.00  0.00    +0.026 C 
ATOM     25  C   UNL     1     -35.455  22.012   6.401  0.00  0.00    +0.005 C 
ENDBRANCH  15  24
ENDBRANCH  12  14
ENDBRANCH   5  11
BRANCH   7  27
ATOM     26  OXT UNL     1     -33.449  15.591  -0.384  0.00  0.00    -0.244 OA
ATOM     27  C   UNL     1     -34.594  15.947  -0.192  0.00  0.00    +0.352 C 
BRANCH  27  28
ATOM     28  O   UNL     1     -35.505  15.322   0.580  0.00  0.00    -0.476 OA
ATOM     29  H   UNL     1     -36.013  14.617   0.229  0.00  0.00    +0.295 HD
ENDBRANCH  27  28
ENDBRANCH   7  27
BRANCH   8  30
ATOM     30  C   UNL     1     -36.288  15.809  -2.644  0.00  0.00    +0.235 C 
BRANCH  30  31
ATOM     31  O   UNL     1     -37.671  15.574  -2.480  0.00  0.00    -0.430 OA
BRANCH  31  34
ATOM     32  O   UNL     1     -38.404  15.195  -0.330  0.00  0.00    -0.227 OA
ATOM     33  N   UNL     1     -37.932  13.446  -1.747  0.00  0.00    -0.295 N 
ATOM     34  C   UNL     1     -38.034  14.776  -1.423  0.00  0.00    +0.399 C 
ATOM     35  H   UNL     1     -37.627  13.181  -2.645  0.00  0.00    +0.148 HD
ATOM     36  H   UNL     1     -38.162  12.758  -1.081  0.00  0.00    +0.148 HD
ENDBRANCH  31  34
ENDBRANCH  30  31
ENDBRANCH   8  30
TORSDOF 9
ENDMDL
MODEL 8
REMARK VINA RESULT:      -5.8      5.448     10.000
REMARK  Name = 53420943
REMARK  9 active torsions:
REMARK  status: ('A' for Active; 'I' for Inactive)
REMARK    1  A    between atoms: CA_5  and  N_11
REMARK    2  A    between atoms: CA_7  and  C_27
REMARK    3  A    between atoms: C_8  and  C_30
REMARK    4  A    between atoms: C_12  and  C_14
REMARK    5  A    between atoms: C_14  and  C_19
REMARK    6  A    between atoms: C_15  and  C_24
REMARK    7  A    between atoms: C_27  and  O_28
REMARK    8  A    between atoms: C_30  and  O_31
REMARK    9  A    between atoms: O_31  and  C_34
REMARK                            x       y       z     vdW  Elec       q    Type
REMARK                         _______ _______ _______ _____ _____    ______ ____
ROOT
ATOM      1  S   UNL     1     -36.189  26.295   0.845  0.00  0.00    -0.114 S 
ATOM      2  O   UNL     1     -33.326  24.775   4.177  0.00  0.00    -0.273 OA
ATOM      3  N   UNL     1     -35.389  25.368   3.200  0.00  0.00    -0.242 N 
ATOM      4  C   UNL     1     -35.479  26.621   2.474  0.00  0.00    +0.155 C 
ATOM      5  CA  UNL     1     -33.937  26.668   2.555  0.00  0.00    +0.179 C 
ATOM      6  C   UNL     1     -34.076  25.445   3.506  0.00  0.00    +0.251 C 
ATOM      7  CA  UNL     1     -36.439  24.528   3.389  0.00  0.00    +0.127 C 
ATOM      8  C   UNL     1     -37.580  24.649   2.669  0.00  0.00    +0.030 C 
ATOM      9  C   UNL     1     -37.752  25.654   1.532  0.00  0.00    +0.086 C 
ENDROOT
BRANCH   5  11
ATOM     10  O   UNL     1     -32.769  28.902   1.203  0.00  0.00    -0.270 OA
ATOM     11  N   UNL     1     -33.298  27.828   3.177  0.00  0.00    -0.293 N 
ATOM     12  C   UNL     1     -32.753  28.875   2.434  0.00  0.00    +0.248 C 
ATOM     13  H   UNL     1     -33.251  27.870   4.158  0.00  0.00    +0.150 HD
BRANCH  12  14
ATOM     14  C   UNL     1     -32.133  29.985   3.247  0.00  0.00    +0.075 C 
ATOM     15  C   UNL     1     -32.233  31.232   2.746  0.00  0.00    -0.019 C 
BRANCH  14  19
ATOM     16  S   UNL     1     -29.752  29.240   6.338  0.00  0.00    -0.060 S 
ATOM     17  N   UNL     1     -32.204  29.744   5.697  0.00  0.00    -0.385 NA
ATOM     18  N   UNL     1     -31.813  29.433   8.008  0.00  0.00    -0.328 N 
ATOM     19  C   UNL     1     -31.461  29.732   4.533  0.00  0.00    +0.127 C 
ATOM     20  C   UNL     1     -30.114  29.477   4.679  0.00  0.00    +0.125 C 
ATOM     21  C   UNL     1     -31.406  29.495   6.712  0.00  0.00    +0.204 C 
ATOM     22  H   UNL     1     -31.160  29.243   8.720  0.00  0.00    +0.145 HD
ATOM     23  H   UNL     1     -32.760  29.580   8.234  0.00  0.00    +0.145 HD
ENDBRANCH  14  19
BRANCH  15  24
ATOM     24  C   UNL     1     -31.732  32.511   3.365  0.00  0.00    +0.026 C 
ATOM     25  C   UNL     1     -32.265  33.728   2.623  0.00  0.00    +0.005 C 
ENDBRANCH  15  24
ENDBRANCH  12  14
ENDBRANCH   5  11
BRANCH   7  27
ATOM     26  OXT UNL     1     -36.312  23.585   5.567  0.00  0.00    -0.244 OA
ATOM     27  C   UNL     1     -36.256  23.441   4.363  0.00  0.00    +0.352 C 
BRANCH  27  28
ATOM     28  O   UNL     1     -36.020  22.288   3.707  0.00  0.00    -0.476 OA
ATOM     29  H   UNL     1     -35.416  22.271   2.991  0.00  0.00    +0.295 HD
ENDBRANCH  27  28
ENDBRANCH   7  27
BRANCH   8  30
ATOM     30  C   UNL     1     -38.817  23.808   2.876  0.00  0.00    +0.235 C 
BRANCH  30  31
ATOM     31  O   UNL     1     -39.046  23.023   1.725  0.00  0.00    -0.430 OA
BRANCH  31  34
ATOM     32  O   UNL     1     -40.437  21.193   1.853  0.00  0.00    -0.227 OA
ATOM     33  N   UNL     1     -38.181  20.996   2.251  0.00  0.00    -0.295 N 
ATOM     34  C   UNL     1     -39.320  21.694   1.936  0.00  0.00    +0.399 C 
ATOM     35  H   UNL     1     -37.315  21.463   2.300  0.00  0.00    +0.148 HD
ATOM     36  H   UNL     1     -38.230  20.029   2.428  0.00  0.00    +0.148 HD
ENDBRANCH  31  34
ENDBRANCH  30  31
ENDBRANCH   8  30
TORSDOF 9
ENDMDL
MODEL 9
REMARK VINA RESULT:      -5.8      6.153      9.297
REMARK  Name = 53420943
REMARK  9 active torsions:
REMARK  status: ('A' for Active; 'I' for Inactive)
REMARK    1  A    between atoms: CA_5  and  N_11
REMARK    2  A    between atoms: CA_7  and  C_27
REMARK    3  A    between atoms: C_8  and  C_30
REMARK    4  A    between atoms: C_12  and  C_14
REMARK    5  A    between atoms: C_14  and  C_19
REMARK    6  A    between atoms: C_15  and  C_24
REMARK    7  A    between atoms: C_27  and  O_28
REMARK    8  A    between atoms: C_30  and  O_31
REMARK    9  A    between atoms: O_31  and  C_34
REMARK                            x       y       z     vdW  Elec       q    Type
REMARK                         _______ _______ _______ _____ _____    ______ ____
ROOT
ATOM      1  S   UNL     1     -34.999  24.412   5.407  0.00  0.00    -0.114 S 
ATOM      2  O   UNL     1     -35.069  28.520   3.232  0.00  0.00    -0.273 OA
ATOM      3  N   UNL     1     -35.136  26.170   3.423  0.00  0.00    -0.242 N 
ATOM      4  C   UNL     1     -34.146  25.512   4.255  0.00  0.00    +0.155 C 
ATOM      5  CA  UNL     1     -33.795  26.921   4.784  0.00  0.00    +0.179 C 
ATOM      6  C   UNL     1     -34.741  27.439   3.664  0.00  0.00    +0.251 C 
ATOM      7  CA  UNL     1     -36.082  25.508   2.708  0.00  0.00    +0.127 C 
ATOM      8  C   UNL     1     -36.360  24.203   2.943  0.00  0.00    +0.030 C 
ATOM      9  C   UNL     1     -35.725  23.399   4.075  0.00  0.00    +0.086 C 
ENDROOT
BRANCH   5  11
ATOM     10  O   UNL     1     -32.355  28.503   6.683  0.00  0.00    -0.270 OA
ATOM     11  N   UNL     1     -32.417  27.398   4.657  0.00  0.00    -0.293 N 
ATOM     12  C   UNL     1     -31.795  28.168   5.640  0.00  0.00    +0.248 C 
ATOM     13  H   UNL     1     -31.910  27.166   3.847  0.00  0.00    +0.150 HD
BRANCH  12  14
ATOM     14  C   UNL     1     -30.373  28.571   5.334  0.00  0.00    +0.075 C 
ATOM     15  C   UNL     1     -29.674  29.135   6.340  0.00  0.00    -0.019 C 
BRANCH  14  19
ATOM     16  S   UNL     1     -28.892  28.638   1.649  0.00  0.00    -0.060 S 
ATOM     17  N   UNL     1     -29.244  27.111   3.704  0.00  0.00    -0.385 NA
ATOM     18  N   UNL     1     -28.169  26.087   1.863  0.00  0.00    -0.328 N 
ATOM     19  C   UNL     1     -29.764  28.353   4.012  0.00  0.00    +0.127 C 
ATOM     20  C   UNL     1     -29.665  29.310   3.024  0.00  0.00    +0.125 C 
ATOM     21  C   UNL     1     -28.758  27.145   2.483  0.00  0.00    +0.204 C 
ATOM     22  H   UNL     1     -27.826  26.183   0.946  0.00  0.00    +0.145 HD
ATOM     23  H   UNL     1     -28.086  25.226   2.333  0.00  0.00    +0.145 HD
ENDBRANCH  14  19
BRANCH  15  24
ATOM     24  C   UNL     1     -28.240  29.597   6.312  0.00  0.00    +0.026 C 
ATOM     25  C   UNL     1     -27.767  30.008   7.697  0.00  0.00    +0.005 C 
ENDBRANCH  15  24
ENDBRANCH  12  14
ENDBRANCH   5  11
BRANCH   7  27
ATOM     26  OXT UNL     1     -36.564  26.331   0.531  0.00  0.00    -0.244 OA
ATOM     27  C   UNL     1     -36.834  26.288   1.714  0.00  0.00    +0.352 C 
BRANCH  27  28
ATOM     28  O   UNL     1     -37.847  26.932   2.325  0.00  0.00    -0.476 OA
ATOM     29  H   UNL     1     -38.157  27.749   1.984  0.00  0.00    +0.295 HD
ENDBRANCH  27  28
ENDBRANCH   7  27
BRANCH   8  30
ATOM     30  C   UNL     1     -37.337  23.378   2.138  0.00  0.00    +0.235 C 
BRANCH  30  31
ATOM     31  O   UNL     1     -38.442  23.041   2.950  0.00  0.00    -0.430 OA
BRANCH  31  34
ATOM     32  O   UNL     1     -40.416  23.559   1.884  0.00  0.00    -0.227 OA
ATOM     33  N   UNL     1     -39.682  24.790   3.682  0.00  0.00    -0.295 N 
ATOM     34  C   UNL     1     -39.586  23.777   2.760  0.00  0.00    +0.399 C 
ATOM     35  H   UNL     1     -38.977  24.907   4.360  0.00  0.00    +0.148 HD
ATOM     36  H   UNL     1     -40.456  25.399   3.665  0.00  0.00    +0.148 HD
ENDBRANCH  31  34
ENDBRANCH  30  31
ENDBRANCH   8  30
TORSDOF 9
ENDMDL
