MODEL 1
REMARK VINA RESULT:      -6.0      0.000      0.000
REMARK  Name = 5492311
REMARK  10 active torsions:
REMARK  status: ('A' for Active; 'I' for Inactive)
REMARK    1  A    between atoms: C_1  and  N_7
REMARK    2  A    between atoms: C_2  and  N_18
REMARK    3  A    between atoms: N_7  and  C_9
REMARK    4  A    between atoms: C_12  and  N_17
REMARK    5  A    between atoms: N_18  and  C_21
REMARK    6  A    between atoms: C_21  and  S_22
REMARK    7  A    between atoms: S_22  and  C_23
REMARK    8  A    between atoms: C_23  and  C_24
REMARK    9  A    between atoms: C_24  and  C_26
REMARK   10  A    between atoms: C_26  and  O_27
REMARK                            x       y       z     vdW  Elec       q    Type
REMARK                         _______ _______ _______ _____ _____    ______ ____
ROOT
ATOM      1  C   UNL     1     -35.673  20.575   2.073  0.00  0.00    +0.048 C 
ATOM      2  C   UNL     1     -37.062  22.722   3.189  0.00  0.00    +0.049 C 
ATOM      3  C   UNL     1     -35.232  21.147   3.267  0.00  0.00    +0.016 C 
ATOM      4  C   UNL     1     -36.808  21.078   1.438  0.00  0.00    +0.016 C 
ATOM      5  C   UNL     1     -35.926  22.219   3.825  0.00  0.00    +0.016 C 
ATOM      6  C   UNL     1     -37.502  22.151   1.995  0.00  0.00    +0.016 C 
ENDROOT
BRANCH   1   7
ATOM      7  N   UNL     1     -34.970  19.490   1.509  0.00  0.00    -0.313 N 
ATOM      8  H   UNL     1     -35.530  18.697   1.351  0.00  0.00    +0.152 HD
BRANCH   7   9
ATOM      9  C   UNL     1     -33.625  19.320   1.126  0.00  0.00    +0.048 C 
ATOM     10  C   UNL     1     -32.982  20.306   0.375  0.00  0.00    +0.016 C 
ATOM     11  C   UNL     1     -32.932  18.168   1.500  0.00  0.00    +0.016 C 
ATOM     12  C   UNL     1     -30.959  18.986   0.371  0.00  0.00    +0.143 C 
ATOM     13  C   UNL     1     -31.650  20.139  -0.002  0.00  0.00    +0.025 C 
ATOM     14  C   UNL     1     -31.600  18.000   1.123  0.00  0.00    +0.025 C 
BRANCH  12  17
ATOM     15  O   UNL     1     -28.812  18.251   0.780  0.00  0.00    -0.126 OA
ATOM     16  O   UNL     1     -29.232  19.234  -1.137  0.00  0.00    -0.126 OA
ATOM     17  N   UNL     1     -29.603  18.815  -0.014  0.00  0.00    +0.058 N 
ENDBRANCH  12  17
ENDBRANCH   7   9
ENDBRANCH   1   7
BRANCH   2  18
ATOM     18  N   UNL     1     -37.758  23.794   3.748  0.00  0.00    -0.302 N 
ATOM     19  H   UNL     1     -38.176  23.574   4.612  0.00  0.00    +0.153 HD
BRANCH  18  21
ATOM     20  S   UNL     1     -39.395  25.875   2.864  0.00  0.00    -0.028 S 
ATOM     21  C   UNL     1     -37.991  25.112   3.349  0.00  0.00    +0.111 C 
BRANCH  21  22
ATOM     22  S   UNL     1     -36.460  26.011   3.351  0.00  0.00    -0.092 S 
BRANCH  22  23
ATOM     23  C   UNL     1     -36.040  25.864   5.104  0.00  0.00    +0.076 C 
BRANCH  23  24
ATOM     24  C   UNL     1     -34.591  25.445   5.313  0.00  0.00    +0.121 C 
BRANCH  24  26
ATOM     25  O   UNL     1     -33.556  27.568   4.807  0.00  0.00    -0.250 OA
ATOM     26  C   UNL     1     -33.687  26.625   5.578  0.00  0.00    +0.315 C 
BRANCH  26  27
ATOM     27  O   UNL     1     -33.016  26.526   6.751  0.00  0.00    -0.480 OA
ATOM     28  H   UNL     1     -33.195  27.131   7.446  0.00  0.00    +0.295 HD
ENDBRANCH  26  27
ENDBRANCH  24  26
ENDBRANCH  23  24
ENDBRANCH  22  23
ENDBRANCH  21  22
ENDBRANCH  18  21
ENDBRANCH   2  18
TORSDOF 10
ENDMDL
MODEL 2
REMARK VINA RESULT:      -5.9      4.012      8.752
REMARK  Name = 5492311
REMARK  10 active torsions:
REMARK  status: ('A' for Active; 'I' for Inactive)
REMARK    1  A    between atoms: C_1  and  N_7
REMARK    2  A    between atoms: C_2  and  N_18
REMARK    3  A    between atoms: N_7  and  C_9
REMARK    4  A    between atoms: C_12  and  N_17
REMARK    5  A    between atoms: N_18  and  C_21
REMARK    6  A    between atoms: C_21  and  S_22
REMARK    7  A    between atoms: S_22  and  C_23
REMARK    8  A    between atoms: C_23  and  C_24
REMARK    9  A    between atoms: C_24  and  C_26
REMARK   10  A    between atoms: C_26  and  O_27
REMARK                            x       y       z     vdW  Elec       q    Type
REMARK                         _______ _______ _______ _____ _____    ______ ____
ROOT
ATOM      1  C   UNL     1     -36.698  22.853   3.358  0.00  0.00    +0.048 C 
ATOM      2  C   UNL     1     -36.680  20.423   1.986  0.00  0.00    +0.049 C 
ATOM      3  C   UNL     1     -37.798  22.479   2.586  0.00  0.00    +0.016 C 
ATOM      4  C   UNL     1     -35.589  22.011   3.442  0.00  0.00    +0.016 C 
ATOM      5  C   UNL     1     -37.790  21.265   1.901  0.00  0.00    +0.016 C 
ATOM      6  C   UNL     1     -35.580  20.797   2.757  0.00  0.00    +0.016 C 
ENDROOT
BRANCH   1   7
ATOM      7  N   UNL     1     -36.707  24.081   4.051  0.00  0.00    -0.313 N 
ATOM      8  H   UNL     1     -37.595  24.336   4.390  0.00  0.00    +0.152 HD
BRANCH   7   9
ATOM      9  C   UNL     1     -35.694  25.012   4.355  0.00  0.00    +0.048 C 
ATOM     10  C   UNL     1     -35.101  25.012   5.619  0.00  0.00    +0.016 C 
ATOM     11  C   UNL     1     -35.281  25.934   3.392  0.00  0.00    +0.016 C 
ATOM     12  C   UNL     1     -33.685  26.854   4.955  0.00  0.00    +0.143 C 
ATOM     13  C   UNL     1     -34.097  25.933   5.918  0.00  0.00    +0.025 C 
ATOM     14  C   UNL     1     -34.277  26.854   3.692  0.00  0.00    +0.025 C 
BRANCH  12  17
ATOM     15  O   UNL     1     -32.683  28.915   4.702  0.00  0.00    -0.126 OA
ATOM     16  O   UNL     1     -31.770  27.472   6.082  0.00  0.00    -0.126 OA
ATOM     17  N   UNL     1     -32.664  27.792   5.261  0.00  0.00    +0.058 N 
ENDBRANCH  12  17
ENDBRANCH   7   9
ENDBRANCH   1   7
BRANCH   2  18
ATOM     18  N   UNL     1     -36.672  19.208   1.301  0.00  0.00    -0.302 N 
ATOM     19  H   UNL     1     -36.586  18.429   1.898  0.00  0.00    +0.153 HD
BRANCH  18  21
ATOM     20  S   UNL     1     -38.066  18.368  -0.966  0.00  0.00    -0.028 S 
ATOM     21  C   UNL     1     -36.759  18.854  -0.047  0.00  0.00    +0.111 C 
BRANCH  21  22
ATOM     22  S   UNL     1     -35.146  18.924  -0.783  0.00  0.00    -0.092 S 
BRANCH  22  23
ATOM     23  C   UNL     1     -34.502  17.330  -0.223  0.00  0.00    +0.076 C 
BRANCH  23  24
ATOM     24  C   UNL     1     -34.787  16.215  -1.220  0.00  0.00    +0.121 C 
BRANCH  24  26
ATOM     25  O   UNL     1     -35.849  14.045  -1.196  0.00  0.00    -0.250 OA
ATOM     26  C   UNL     1     -35.530  15.061  -0.591  0.00  0.00    +0.315 C 
BRANCH  26  27
ATOM     27  O   UNL     1     -35.830  15.272   0.715  0.00  0.00    -0.480 OA
ATOM     28  H   UNL     1     -36.065  14.549   1.264  0.00  0.00    +0.295 HD
ENDBRANCH  26  27
ENDBRANCH  24  26
ENDBRANCH  23  24
ENDBRANCH  22  23
ENDBRANCH  21  22
ENDBRANCH  18  21
ENDBRANCH   2  18
TORSDOF 10
ENDMDL
MODEL 3
REMARK VINA RESULT:      -5.9      3.145      8.030
REMARK  Name = 5492311
REMARK  10 active torsions:
REMARK  status: ('A' for Active; 'I' for Inactive)
REMARK    1  A    between atoms: C_1  and  N_7
REMARK    2  A    between atoms: C_2  and  N_18
REMARK    3  A    between atoms: N_7  and  C_9
REMARK    4  A    between atoms: C_12  and  N_17
REMARK    5  A    between atoms: N_18  and  C_21
REMARK    6  A    between atoms: C_21  and  S_22
REMARK    7  A    between atoms: S_22  and  C_23
REMARK    8  A    between atoms: C_23  and  C_24
REMARK    9  A    between atoms: C_24  and  C_26
REMARK   10  A    between atoms: C_26  and  O_27
REMARK                            x       y       z     vdW  Elec       q    Type
REMARK                         _______ _______ _______ _____ _____    ______ ____
ROOT
ATOM      1  C   UNL     1     -36.670  22.788   3.372  0.00  0.00    +0.048 C 
ATOM      2  C   UNL     1     -36.661  20.388   1.950  0.00  0.00    +0.049 C 
ATOM      3  C   UNL     1     -37.740  22.469   2.537  0.00  0.00    +0.016 C 
ATOM      4  C   UNL     1     -35.595  21.908   3.495  0.00  0.00    +0.016 C 
ATOM      5  C   UNL     1     -37.736  21.269   1.826  0.00  0.00    +0.016 C 
ATOM      6  C   UNL     1     -35.591  20.708   2.784  0.00  0.00    +0.016 C 
ENDROOT
BRANCH   1   7
ATOM      7  N   UNL     1     -36.674  24.001   4.091  0.00  0.00    -0.313 N 
ATOM      8  H   UNL     1     -37.550  24.228   4.479  0.00  0.00    +0.152 HD
BRANCH   7   9
ATOM      9  C   UNL     1     -35.671  24.952   4.365  0.00  0.00    +0.048 C 
ATOM     10  C   UNL     1     -35.251  25.832   3.367  0.00  0.00    +0.016 C 
ATOM     11  C   UNL     1     -35.098  25.016   5.636  0.00  0.00    +0.016 C 
ATOM     12  C   UNL     1     -33.687  26.837   4.910  0.00  0.00    +0.143 C 
ATOM     13  C   UNL     1     -34.259  26.775   3.639  0.00  0.00    +0.025 C 
ATOM     14  C   UNL     1     -34.106  25.958   5.908  0.00  0.00    +0.025 C 
BRANCH  12  17
ATOM     15  O   UNL     1     -31.701  27.462   5.901  0.00  0.00    -0.126 OA
ATOM     16  O   UNL     1     -32.786  28.951   4.707  0.00  0.00    -0.126 OA
ATOM     17  N   UNL     1     -32.676  27.796   5.186  0.00  0.00    +0.058 N 
ENDBRANCH  12  17
ENDBRANCH   7   9
ENDBRANCH   1   7
BRANCH   2  18
ATOM     18  N   UNL     1     -36.658  19.187   1.239  0.00  0.00    -0.302 N 
ATOM     19  H   UNL     1     -36.571  18.396   1.820  0.00  0.00    +0.153 HD
BRANCH  18  21
ATOM     20  S   UNL     1     -38.074  18.489  -1.061  0.00  0.00    -0.028 S 
ATOM     21  C   UNL     1     -36.750  18.862  -0.115  0.00  0.00    +0.111 C 
BRANCH  21  22
ATOM     22  S   UNL     1     -35.125  18.825  -0.828  0.00  0.00    -0.092 S 
BRANCH  22  23
ATOM     23  C   UNL     1     -34.307  17.747   0.373  0.00  0.00    +0.076 C 
BRANCH  23  24
ATOM     24  C   UNL     1     -33.078  18.405   0.988  0.00  0.00    +0.121 C 
BRANCH  24  26
ATOM     25  O   UNL     1     -30.789  17.792   1.456  0.00  0.00    -0.250 OA
ATOM     26  C   UNL     1     -31.879  17.488   0.987  0.00  0.00    +0.315 C 
BRANCH  26  27
ATOM     27  O   UNL     1     -32.125  16.294   0.393  0.00  0.00    -0.480 OA
ATOM     28  H   UNL     1     -32.358  15.550   0.915  0.00  0.00    +0.295 HD
ENDBRANCH  26  27
ENDBRANCH  24  26
ENDBRANCH  23  24
ENDBRANCH  22  23
ENDBRANCH  21  22
ENDBRANCH  18  21
ENDBRANCH   2  18
TORSDOF 10
ENDMDL
MODEL 4
REMARK VINA RESULT:      -5.9      4.510      8.747
REMARK  Name = 5492311
REMARK  10 active torsions:
REMARK  status: ('A' for Active; 'I' for Inactive)
REMARK    1  A    between atoms: C_1  and  N_7
REMARK    2  A    between atoms: C_2  and  N_18
REMARK    3  A    between atoms: N_7  and  C_9
REMARK    4  A    between atoms: C_12  and  N_17
REMARK    5  A    between atoms: N_18  and  C_21
REMARK    6  A    between atoms: C_21  and  S_22
REMARK    7  A    between atoms: S_22  and  C_23
REMARK    8  A    between atoms: C_23  and  C_24
REMARK    9  A    between atoms: C_24  and  C_26
REMARK   10  A    between atoms: C_26  and  O_27
REMARK                            x       y       z     vdW  Elec       q    Type
REMARK                         _______ _______ _______ _____ _____    ______ ____
ROOT
ATOM      1  C   UNL     1     -36.676  22.737   3.345  0.00  0.00    +0.048 C 
ATOM      2  C   UNL     1     -36.674  20.374   1.861  0.00  0.00    +0.049 C 
ATOM      3  C   UNL     1     -35.591  21.864   3.425  0.00  0.00    +0.016 C 
ATOM      4  C   UNL     1     -37.760  22.427   2.524  0.00  0.00    +0.016 C 
ATOM      5  C   UNL     1     -35.590  20.683   2.683  0.00  0.00    +0.016 C 
ATOM      6  C   UNL     1     -37.759  21.246   1.782  0.00  0.00    +0.016 C 
ENDROOT
BRANCH   1   7
ATOM      7  N   UNL     1     -36.677  23.931   4.095  0.00  0.00    -0.313 N 
ATOM      8  H   UNL     1     -37.543  24.132   4.517  0.00  0.00    +0.152 HD
BRANCH   7   9
ATOM      9  C   UNL     1     -35.681  24.892   4.360  0.00  0.00    +0.048 C 
ATOM     10  C   UNL     1     -35.296  25.792   3.366  0.00  0.00    +0.016 C 
ATOM     11  C   UNL     1     -35.080  24.946   5.619  0.00  0.00    +0.016 C 
ATOM     12  C   UNL     1     -33.712  26.798   4.887  0.00  0.00    +0.143 C 
ATOM     13  C   UNL     1     -34.312  26.745   3.629  0.00  0.00    +0.025 C 
ATOM     14  C   UNL     1     -34.096  25.899   5.882  0.00  0.00    +0.025 C 
BRANCH  12  17
ATOM     15  O   UNL     1     -32.795  28.896   4.612  0.00  0.00    -0.126 OA
ATOM     16  O   UNL     1     -31.764  27.469   5.925  0.00  0.00    -0.126 OA
ATOM     17  N   UNL     1     -32.709  27.767   5.155  0.00  0.00    +0.058 N 
ENDBRANCH  12  17
ENDBRANCH   7   9
ENDBRANCH   1   7
BRANCH   2  18
ATOM     18  N   UNL     1     -36.672  19.193   1.118  0.00  0.00    -0.302 N 
ATOM     19  H   UNL     1     -37.277  18.506   1.483  0.00  0.00    +0.153 HD
BRANCH  18  21
ATOM     20  S   UNL     1     -34.471  18.131  -0.228  0.00  0.00    -0.028 S 
ATOM     21  C   UNL     1     -36.000  18.772  -0.031  0.00  0.00    +0.111 C 
BRANCH  21  22
ATOM     22  S   UNL     1     -37.020  19.062  -1.454  0.00  0.00    -0.092 S 
BRANCH  22  23
ATOM     23  C   UNL     1     -37.452  17.352  -1.854  0.00  0.00    +0.076 C 
BRANCH  23  24
ATOM     24  C   UNL     1     -38.686  16.882  -1.096  0.00  0.00    +0.121 C 
BRANCH  24  26
ATOM     25  O   UNL     1     -39.058  14.646  -0.260  0.00  0.00    -0.250 OA
ATOM     26  C   UNL     1     -38.400  15.679  -0.229  0.00  0.00    +0.315 C 
BRANCH  26  27
ATOM     27  O   UNL     1     -37.349  15.865   0.607  0.00  0.00    -0.480 OA
ATOM     28  H   UNL     1     -37.313  16.629   1.150  0.00  0.00    +0.295 HD
ENDBRANCH  26  27
ENDBRANCH  24  26
ENDBRANCH  23  24
ENDBRANCH  22  23
ENDBRANCH  21  22
ENDBRANCH  18  21
ENDBRANCH   2  18
TORSDOF 10
ENDMDL
MODEL 5
REMARK VINA RESULT:      -5.9      3.963      8.223
REMARK  Name = 5492311
REMARK  10 active torsions:
REMARK  status: ('A' for Active; 'I' for Inactive)
REMARK    1  A    between atoms: C_1  and  N_7
REMARK    2  A    between atoms: C_2  and  N_18
REMARK    3  A    between atoms: N_7  and  C_9
REMARK    4  A    between atoms: C_12  and  N_17
REMARK    5  A    between atoms: N_18  and  C_21
REMARK    6  A    between atoms: C_21  and  S_22
REMARK    7  A    between atoms: S_22  and  C_23
REMARK    8  A    between atoms: C_23  and  C_24
REMARK    9  A    between atoms: C_24  and  C_26
REMARK   10  A    between atoms: C_26  and  O_27
REMARK                            x       y       z     vdW  Elec       q    Type
REMARK                         _______ _______ _______ _____ _____    ______ ____
ROOT
ATOM      1  C   UNL     1     -34.571  25.440   5.599  0.00  0.00    +0.048 C 
ATOM      2  C   UNL     1     -36.386  23.820   4.234  0.00  0.00    +0.049 C 
ATOM      3  C   UNL     1     -34.200  24.154   5.206  0.00  0.00    +0.016 C 
ATOM      4  C   UNL     1     -35.850  25.914   5.310  0.00  0.00    +0.016 C 
ATOM      5  C   UNL     1     -35.107  23.344   4.523  0.00  0.00    +0.016 C 
ATOM      6  C   UNL     1     -36.757  25.105   4.628  0.00  0.00    +0.016 C 
ENDROOT
BRANCH   1   7
ATOM      7  N   UNL     1     -33.653  26.258   6.289  0.00  0.00    -0.313 N 
ATOM      8  H   UNL     1     -33.522  25.999   7.229  0.00  0.00    +0.152 HD
BRANCH   7   9
ATOM      9  C   UNL     1     -32.886  27.373   5.897  0.00  0.00    +0.048 C 
ATOM     10  C   UNL     1     -32.207  28.127   6.855  0.00  0.00    +0.016 C 
ATOM     11  C   UNL     1     -32.803  27.724   4.548  0.00  0.00    +0.016 C 
ATOM     12  C   UNL     1     -31.364  29.579   5.118  0.00  0.00    +0.143 C 
ATOM     13  C   UNL     1     -31.446  29.229   6.466  0.00  0.00    +0.025 C 
ATOM     14  C   UNL     1     -32.042  28.827   4.159  0.00  0.00    +0.025 C 
BRANCH  12  17
ATOM     15  O   UNL     1     -29.343  30.585   4.646  0.00  0.00    -0.126 OA
ATOM     16  O   UNL     1     -31.174  31.782   4.462  0.00  0.00    -0.126 OA
ATOM     17  N   UNL     1     -30.590  30.702   4.723  0.00  0.00    +0.058 N 
ENDBRANCH  12  17
ENDBRANCH   7   9
ENDBRANCH   1   7
BRANCH   2  18
ATOM     18  N   UNL     1     -37.293  23.010   3.549  0.00  0.00    -0.302 N 
ATOM     19  H   UNL     1     -37.409  22.125   3.965  0.00  0.00    +0.153 HD
BRANCH  18  21
ATOM     20  S   UNL     1     -39.729  23.256   2.210  0.00  0.00    -0.028 S 
ATOM     21  C   UNL     1     -38.073  23.182   2.404  0.00  0.00    +0.111 C 
BRANCH  21  22
ATOM     22  S   UNL     1     -37.018  23.275   0.979  0.00  0.00    -0.092 S 
BRANCH  22  23
ATOM     23  C   UNL     1     -37.071  21.542   0.465  0.00  0.00    +0.076 C 
BRANCH  23  24
ATOM     24  C   UNL     1     -35.775  20.809   0.786  0.00  0.00    +0.121 C 
BRANCH  24  26
ATOM     25  O   UNL     1     -34.764  20.199   2.894  0.00  0.00    -0.250 OA
ATOM     26  C   UNL     1     -35.765  20.254   2.190  0.00  0.00    +0.315 C 
BRANCH  26  27
ATOM     27  O   UNL     1     -36.979  19.799   2.589  0.00  0.00    -0.480 OA
ATOM     28  H   UNL     1     -37.673  20.406   2.760  0.00  0.00    +0.295 HD
ENDBRANCH  26  27
ENDBRANCH  24  26
ENDBRANCH  23  24
ENDBRANCH  22  23
ENDBRANCH  21  22
ENDBRANCH  18  21
ENDBRANCH   2  18
TORSDOF 10
ENDMDL
MODEL 6
REMARK VINA RESULT:      -5.8      5.545      8.174
REMARK  Name = 5492311
REMARK  10 active torsions:
REMARK  status: ('A' for Active; 'I' for Inactive)
REMARK    1  A    between atoms: C_1  and  N_7
REMARK    2  A    between atoms: C_2  and  N_18
REMARK    3  A    between atoms: N_7  and  C_9
REMARK    4  A    between atoms: C_12  and  N_17
REMARK    5  A    between atoms: N_18  and  C_21
REMARK    6  A    between atoms: C_21  and  S_22
REMARK    7  A    between atoms: S_22  and  C_23
REMARK    8  A    between atoms: C_23  and  C_24
REMARK    9  A    between atoms: C_24  and  C_26
REMARK   10  A    between atoms: C_26  and  O_27
REMARK                            x       y       z     vdW  Elec       q    Type
REMARK                         _______ _______ _______ _____ _____    ______ ____
ROOT
ATOM      1  C   UNL     1     -34.486  25.734   5.594  0.00  0.00    +0.048 C 
ATOM      2  C   UNL     1     -36.290  24.039   4.307  0.00  0.00    +0.049 C 
ATOM      3  C   UNL     1     -34.072  24.475   5.161  0.00  0.00    +0.016 C 
ATOM      4  C   UNL     1     -35.802  26.145   5.384  0.00  0.00    +0.016 C 
ATOM      5  C   UNL     1     -34.973  23.627   4.517  0.00  0.00    +0.016 C 
ATOM      6  C   UNL     1     -36.704  25.297   4.740  0.00  0.00    +0.016 C 
ENDROOT
BRANCH   1   7
ATOM      7  N   UNL     1     -33.574  26.591   6.244  0.00  0.00    -0.313 N 
ATOM      8  H   UNL     1     -33.529  26.454   7.218  0.00  0.00    +0.152 HD
BRANCH   7   9
ATOM      9  C   UNL     1     -32.714  27.603   5.774  0.00  0.00    +0.048 C 
ATOM     10  C   UNL     1     -31.962  28.356   6.677  0.00  0.00    +0.016 C 
ATOM     11  C   UNL     1     -32.612  27.852   4.404  0.00  0.00    +0.016 C 
ATOM     12  C   UNL     1     -31.007  29.605   4.842  0.00  0.00    +0.143 C 
ATOM     13  C   UNL     1     -31.108  29.356   6.211  0.00  0.00    +0.025 C 
ATOM     14  C   UNL     1     -31.758  28.852   3.938  0.00  0.00    +0.025 C 
BRANCH  12  17
ATOM     15  O   UNL     1     -30.429  31.823   4.597  0.00  0.00    -0.126 OA
ATOM     16  O   UNL     1     -29.107  30.298   3.733  0.00  0.00    -0.126 OA
ATOM     17  N   UNL     1     -30.139  30.624   4.368  0.00  0.00    +0.058 N 
ENDBRANCH  12  17
ENDBRANCH   7   9
ENDBRANCH   1   7
BRANCH   2  18
ATOM     18  N   UNL     1     -37.191  23.191   3.661  0.00  0.00    -0.302 N 
ATOM     19  H   UNL     1     -38.024  23.055   4.169  0.00  0.00    +0.153 HD
BRANCH  18  21
ATOM     20  S   UNL     1     -36.483  21.025   2.051  0.00  0.00    -0.028 S 
ATOM     21  C   UNL     1     -37.169  22.493   2.452  0.00  0.00    +0.111 C 
BRANCH  21  22
ATOM     22  S   UNL     1     -37.994  23.446   1.203  0.00  0.00    -0.092 S 
BRANCH  22  23
ATOM     23  C   UNL     1     -39.708  23.161   1.706  0.00  0.00    +0.076 C 
BRANCH  23  24
ATOM     24  C   UNL     1     -40.506  24.457   1.781  0.00  0.00    +0.121 C 
BRANCH  24  26
ATOM     25  O   UNL     1     -39.545  26.531   2.563  0.00  0.00    -0.250 OA
ATOM     26  C   UNL     1     -39.957  25.406   2.819  0.00  0.00    +0.315 C 
BRANCH  26  27
ATOM     27  O   UNL     1     -39.946  24.878   4.068  0.00  0.00    -0.480 OA
ATOM     28  H   UNL     1     -39.279  25.132   4.678  0.00  0.00    +0.295 HD
ENDBRANCH  26  27
ENDBRANCH  24  26
ENDBRANCH  23  24
ENDBRANCH  22  23
ENDBRANCH  21  22
ENDBRANCH  18  21
ENDBRANCH   2  18
TORSDOF 10
ENDMDL
MODEL 7
REMARK VINA RESULT:      -5.8      5.238      9.101
REMARK  Name = 5492311
REMARK  10 active torsions:
REMARK  status: ('A' for Active; 'I' for Inactive)
REMARK    1  A    between atoms: C_1  and  N_7
REMARK    2  A    between atoms: C_2  and  N_18
REMARK    3  A    between atoms: N_7  and  C_9
REMARK    4  A    between atoms: C_12  and  N_17
REMARK    5  A    between atoms: N_18  and  C_21
REMARK    6  A    between atoms: C_21  and  S_22
REMARK    7  A    between atoms: S_22  and  C_23
REMARK    8  A    between atoms: C_23  and  C_24
REMARK    9  A    between atoms: C_24  and  C_26
REMARK   10  A    between atoms: C_26  and  O_27
REMARK                            x       y       z     vdW  Elec       q    Type
REMARK                         _______ _______ _______ _____ _____    ______ ____
ROOT
ATOM      1  C   UNL     1     -35.687  20.386   2.286  0.00  0.00    +0.048 C 
ATOM      2  C   UNL     1     -35.104  18.904  -0.005  0.00  0.00    +0.049 C 
ATOM      3  C   UNL     1     -36.692  20.114   1.357  0.00  0.00    +0.016 C 
ATOM      4  C   UNL     1     -34.392  19.918   2.068  0.00  0.00    +0.016 C 
ATOM      5  C   UNL     1     -36.401  19.373   0.212  0.00  0.00    +0.016 C 
ATOM      6  C   UNL     1     -34.100  19.177   0.924  0.00  0.00    +0.016 C 
ENDROOT
BRANCH   1   7
ATOM      7  N   UNL     1     -35.982  21.136   3.444  0.00  0.00    -0.313 N 
ATOM      8  H   UNL     1     -36.593  20.679   4.065  0.00  0.00    +0.152 HD
BRANCH   7   9
ATOM      9  C   UNL     1     -35.572  22.409   3.886  0.00  0.00    +0.048 C 
ATOM     10  C   UNL     1     -35.251  23.401   2.959  0.00  0.00    +0.016 C 
ATOM     11  C   UNL     1     -35.488  22.680   5.253  0.00  0.00    +0.016 C 
ATOM     12  C   UNL     1     -34.764  24.932   4.764  0.00  0.00    +0.143 C 
ATOM     13  C   UNL     1     -34.847  24.662   3.397  0.00  0.00    +0.025 C 
ATOM     14  C   UNL     1     -35.085  23.941   5.691  0.00  0.00    +0.025 C 
BRANCH  12  17
ATOM     15  O   UNL     1     -33.764  26.315   6.314  0.00  0.00    -0.126 OA
ATOM     16  O   UNL     1     -34.585  27.215   4.487  0.00  0.00    -0.126 OA
ATOM     17  N   UNL     1     -34.351  26.216   5.209  0.00  0.00    +0.058 N 
ENDBRANCH  12  17
ENDBRANCH   7   9
ENDBRANCH   1   7
BRANCH   2  18
ATOM     18  N   UNL     1     -34.813  18.162  -1.150  0.00  0.00    -0.302 N 
ATOM     19  H   UNL     1     -35.031  18.638  -1.984  0.00  0.00    +0.153 HD
BRANCH  18  21
ATOM     20  S   UNL     1     -33.090  16.371  -2.419  0.00  0.00    -0.028 S 
ATOM     21  C   UNL     1     -34.281  16.890  -1.370  0.00  0.00    +0.111 C 
BRANCH  21  22
ATOM     22  S   UNL     1     -35.123  15.710  -0.346  0.00  0.00    -0.092 S 
BRANCH  22  23
ATOM     23  C   UNL     1     -36.751  15.753  -1.133  0.00  0.00    +0.076 C 
BRANCH  23  24
ATOM     24  C   UNL     1     -37.863  16.032  -0.130  0.00  0.00    +0.121 C 
BRANCH  24  26
ATOM     25  O   UNL     1     -40.188  16.088  -0.784  0.00  0.00    -0.250 OA
ATOM     26  C   UNL     1     -39.181  15.430  -0.556  0.00  0.00    +0.315 C 
BRANCH  26  27
ATOM     27  O   UNL     1     -39.143  14.077  -0.640  0.00  0.00    -0.480 OA
ATOM     28  H   UNL     1     -38.595  13.663  -1.279  0.00  0.00    +0.295 HD
ENDBRANCH  26  27
ENDBRANCH  24  26
ENDBRANCH  23  24
ENDBRANCH  22  23
ENDBRANCH  21  22
ENDBRANCH  18  21
ENDBRANCH   2  18
TORSDOF 10
ENDMDL
MODEL 8
REMARK VINA RESULT:      -5.7      4.714      8.538
REMARK  Name = 5492311
REMARK  10 active torsions:
REMARK  status: ('A' for Active; 'I' for Inactive)
REMARK    1  A    between atoms: C_1  and  N_7
REMARK    2  A    between atoms: C_2  and  N_18
REMARK    3  A    between atoms: N_7  and  C_9
REMARK    4  A    between atoms: C_12  and  N_17
REMARK    5  A    between atoms: N_18  and  C_21
REMARK    6  A    between atoms: C_21  and  S_22
REMARK    7  A    between atoms: S_22  and  C_23
REMARK    8  A    between atoms: C_23  and  C_24
REMARK    9  A    between atoms: C_24  and  C_26
REMARK   10  A    between atoms: C_26  and  O_27
REMARK                            x       y       z     vdW  Elec       q    Type
REMARK                         _______ _______ _______ _____ _____    ______ ____
ROOT
ATOM      1  C   UNL     1     -33.116  27.828   4.240  0.00  0.00    +0.048 C 
ATOM      2  C   UNL     1     -35.290  26.086   4.097  0.00  0.00    +0.049 C 
ATOM      3  C   UNL     1     -33.342  26.909   5.264  0.00  0.00    +0.016 C 
ATOM      4  C   UNL     1     -33.978  27.876   3.144  0.00  0.00    +0.016 C 
ATOM      5  C   UNL     1     -34.429  26.038   5.193  0.00  0.00    +0.016 C 
ATOM      6  C   UNL     1     -35.065  27.005   3.073  0.00  0.00    +0.016 C 
ENDROOT
BRANCH   1   7
ATOM      7  N   UNL     1     -32.017  28.708   4.312  0.00  0.00    -0.313 N 
ATOM      8  H   UNL     1     -31.990  29.368   3.583  0.00  0.00    +0.152 HD
BRANCH   7   9
ATOM      9  C   UNL     1     -30.950  28.830   5.225  0.00  0.00    +0.048 C 
ATOM     10  C   UNL     1     -29.707  28.269   4.926  0.00  0.00    +0.016 C 
ATOM     11  C   UNL     1     -31.134  29.514   6.428  0.00  0.00    +0.016 C 
ATOM     12  C   UNL     1     -28.836  29.075   7.031  0.00  0.00    +0.143 C 
ATOM     13  C   UNL     1     -28.651  28.392   5.829  0.00  0.00    +0.025 C 
ATOM     14  C   UNL     1     -30.078  29.637   7.330  0.00  0.00    +0.025 C 
BRANCH  12  17
ATOM     15  O   UNL     1     -27.560  30.306   8.505  0.00  0.00    -0.126 OA
ATOM     16  O   UNL     1     -27.041  28.198   8.182  0.00  0.00    -0.126 OA
ATOM     17  N   UNL     1     -27.761  29.199   7.950  0.00  0.00    +0.058 N 
ENDBRANCH  12  17
ENDBRANCH   7   9
ENDBRANCH   1   7
BRANCH   2  18
ATOM     18  N   UNL     1     -36.377  25.214   4.024  0.00  0.00    -0.302 N 
ATOM     19  H   UNL     1     -36.462  24.636   4.818  0.00  0.00    +0.153 HD
BRANCH  18  21
ATOM     20  S   UNL     1     -38.779  25.811   2.736  0.00  0.00    -0.028 S 
ATOM     21  C   UNL     1     -37.371  24.980   3.072  0.00  0.00    +0.111 C 
BRANCH  21  22
ATOM     22  S   UNL     1     -36.986  23.504   2.164  0.00  0.00    -0.092 S 
BRANCH  22  23
ATOM     23  C   UNL     1     -35.437  23.056   2.983  0.00  0.00    +0.076 C 
BRANCH  23  24
ATOM     24  C   UNL     1     -35.531  21.707   3.685  0.00  0.00    +0.121 C 
BRANCH  24  26
ATOM     25  O   UNL     1     -36.046  22.851   5.748  0.00  0.00    -0.250 OA
ATOM     26  C   UNL     1     -35.627  21.848   5.185  0.00  0.00    +0.315 C 
BRANCH  26  27
ATOM     27  O   UNL     1     -35.181  20.754   5.850  0.00  0.00    -0.480 OA
ATOM     28  H   UNL     1     -35.755  20.293   6.431  0.00  0.00    +0.295 HD
ENDBRANCH  26  27
ENDBRANCH  24  26
ENDBRANCH  23  24
ENDBRANCH  22  23
ENDBRANCH  21  22
ENDBRANCH  18  21
ENDBRANCH   2  18
TORSDOF 10
ENDMDL
MODEL 9
REMARK VINA RESULT:      -5.6      3.869      8.476
REMARK  Name = 5492311
REMARK  10 active torsions:
REMARK  status: ('A' for Active; 'I' for Inactive)
REMARK    1  A    between atoms: C_1  and  N_7
REMARK    2  A    between atoms: C_2  and  N_18
REMARK    3  A    between atoms: N_7  and  C_9
REMARK    4  A    between atoms: C_12  and  N_17
REMARK    5  A    between atoms: N_18  and  C_21
REMARK    6  A    between atoms: C_21  and  S_22
REMARK    7  A    between atoms: S_22  and  C_23
REMARK    8  A    between atoms: C_23  and  C_24
REMARK    9  A    between atoms: C_24  and  C_26
REMARK   10  A    between atoms: C_26  and  O_27
REMARK                            x       y       z     vdW  Elec       q    Type
REMARK                         _______ _______ _______ _____ _____    ______ ____
ROOT
ATOM      1  C   UNL     1     -35.777  20.446   2.343  0.00  0.00    +0.048 C 
ATOM      2  C   UNL     1     -35.171  18.889   0.108  0.00  0.00    +0.049 C 
ATOM      3  C   UNL     1     -34.471  20.001   2.136  0.00  0.00    +0.016 C 
ATOM      4  C   UNL     1     -36.779  20.111   1.433  0.00  0.00    +0.016 C 
ATOM      5  C   UNL     1     -34.168  19.224   1.019  0.00  0.00    +0.016 C 
ATOM      6  C   UNL     1     -36.476  19.333   0.316  0.00  0.00    +0.016 C 
ENDROOT
BRANCH   1   7
ATOM      7  N   UNL     1     -36.083  21.233   3.473  0.00  0.00    -0.313 N 
ATOM      8  H   UNL     1     -36.751  20.825   4.069  0.00  0.00    +0.152 HD
BRANCH   7   9
ATOM      9  C   UNL     1     -35.618  22.486   3.917  0.00  0.00    +0.048 C 
ATOM     10  C   UNL     1     -35.275  23.472   2.990  0.00  0.00    +0.016 C 
ATOM     11  C   UNL     1     -35.503  22.745   5.283  0.00  0.00    +0.016 C 
ATOM     12  C   UNL     1     -34.702  24.972   4.796  0.00  0.00    +0.143 C 
ATOM     13  C   UNL     1     -34.817  24.715   3.430  0.00  0.00    +0.025 C 
ATOM     14  C   UNL     1     -35.045  23.987   5.723  0.00  0.00    +0.025 C 
BRANCH  12  17
ATOM     15  O   UNL     1     -33.767  26.335   6.404  0.00  0.00    -0.126 OA
ATOM     16  O   UNL     1     -34.301  27.219   4.466  0.00  0.00    -0.126 OA
ATOM     17  N   UNL     1     -34.234  26.236   5.243  0.00  0.00    +0.058 N 
ENDBRANCH  12  17
ENDBRANCH   7   9
ENDBRANCH   1   7
BRANCH   2  18
ATOM     18  N   UNL     1     -34.868  18.112  -1.010  0.00  0.00    -0.302 N 
ATOM     19  H   UNL     1     -34.136  18.487  -1.553  0.00  0.00    +0.153 HD
BRANCH  18  21
ATOM     20  S   UNL     1     -36.316  16.626  -2.876  0.00  0.00    -0.028 S 
ATOM     21  C   UNL     1     -35.376  16.919  -1.528  0.00  0.00    +0.111 C 
BRANCH  21  22
ATOM     22  S   UNL     1     -34.922  15.572  -0.465  0.00  0.00    -0.092 S 
BRANCH  22  23
ATOM     23  C   UNL     1     -33.300  15.184  -1.164  0.00  0.00    +0.076 C 
BRANCH  23  24
ATOM     24  C   UNL     1     -32.179  15.376  -0.151  0.00  0.00    +0.121 C 
BRANCH  24  26
ATOM     25  O   UNL     1     -31.801  17.575  -1.078  0.00  0.00    -0.250 OA
ATOM     26  C   UNL     1     -31.644  16.788  -0.152  0.00  0.00    +0.315 C 
BRANCH  26  27
ATOM     27  O   UNL     1     -30.949  17.093   0.972  0.00  0.00    -0.480 OA
ATOM     28  H   UNL     1     -30.150  16.641   1.165  0.00  0.00    +0.295 HD
ENDBRANCH  26  27
ENDBRANCH  24  26
ENDBRANCH  23  24
ENDBRANCH  22  23
ENDBRANCH  21  22
ENDBRANCH  18  21
ENDBRANCH   2  18
TORSDOF 10
ENDMDL
