MODEL 1
REMARK VINA RESULT:      -6.2      0.000      0.000
REMARK  Name = 196507
REMARK  7 active torsions:
REMARK  status: ('A' for Active; 'I' for Inactive)
REMARK    1  A    between atoms: N_3  and  C1*_12
REMARK    2  A    between atoms: C_7  and  O_20
REMARK    3  A    between atoms: C3*_11  and  O3*_15
REMARK    4  A    between atoms: C4*_14  and  C5*_17
REMARK    5  A    between atoms: C5*_17  and  O5*_18
REMARK    6  A    between atoms: O_20  and  C_21
REMARK    7  A    between atoms: C_21  and  C_23
REMARK                            x       y       z     vdW  Elec       q    Type
REMARK                         _______ _______ _______ _____ _____    ______ ____
ROOT
ATOM      1  O   UNL     1     -36.085  20.893   2.753  0.00  0.00    -0.252 OA
ATOM      2  O   UNL     1     -40.468  21.063   1.351  0.00  0.00    -0.266 OA
ATOM      3  N   UNL     1     -37.211  22.933   2.909  0.00  0.00    -0.216 N 
ATOM      4  N   UNL     1     -38.269  20.985   2.057  0.00  0.00    -0.233 N 
ATOM      5  C   UNL     1     -38.402  23.616   2.694  0.00  0.00    +0.113 C 
ATOM      6  C   UNL     1     -37.108  21.561   2.588  0.00  0.00    +0.316 C 
ATOM      7  C   UNL     1     -39.503  23.056   2.186  0.00  0.00    +0.208 C 
ATOM      8  C   UNL     1     -39.480  21.620   1.822  0.00  0.00    +0.288 C 
ATOM      9  H   UNL     1     -38.221  20.030   1.827  0.00  0.00    +0.160 HD
ENDROOT
BRANCH   3  12
ATOM     10  O4* UNL     1     -35.169  22.670   4.020  0.00  0.00    -0.335 OA
ATOM     11  C3* UNL     1     -35.261  24.537   5.479  0.00  0.00    +0.144 C 
ATOM     12  C1* UNL     1     -36.082  23.624   3.459  0.00  0.00    +0.202 C 
ATOM     13  C2* UNL     1     -36.465  24.591   4.568  0.00  0.00    +0.083 C 
ATOM     14  C4* UNL     1     -34.790  23.096   5.344  0.00  0.00    +0.173 C 
BRANCH  11  15
ATOM     15  O3* UNL     1     -34.254  25.424   4.997  0.00  0.00    -0.382 OA
ATOM     16  H3* UNL     1     -34.378  25.568   4.046  0.00  0.00    +0.210 HD
ENDBRANCH  11  15
BRANCH  14  17
ATOM     17  C5* UNL     1     -35.455  22.159   6.344  0.00  0.00    +0.169 C 
BRANCH  17  18
ATOM     18  O5* UNL     1     -35.455  20.845   5.810  0.00  0.00    -0.379 OA
ATOM     19  H5* UNL     1     -36.160  20.764   5.150  0.00  0.00    +0.211 HD
ENDBRANCH  17  18
ENDBRANCH  14  17
ENDBRANCH   3  12
BRANCH   7  20
ATOM     20  O   UNL     1     -40.675  23.747   1.978  0.00  0.00    -0.453 OA
BRANCH  20  21
ATOM     21  C   UNL     1     -40.412  25.066   1.535  0.00  0.00    +0.309 C 
BRANCH  21  23
ATOM     22  N   UNL     1     -41.222  26.809   3.319  0.00  0.00    -0.192 NA
ATOM     23  C   UNL     1     -40.864  26.039   2.530  0.00  0.00    +0.122 C 
ENDBRANCH  21  23
ENDBRANCH  20  21
ENDBRANCH   7  20
TORSDOF 7
ENDMDL
MODEL 2
REMARK VINA RESULT:      -6.0      1.214      1.845
REMARK  Name = 196507
REMARK  7 active torsions:
REMARK  status: ('A' for Active; 'I' for Inactive)
REMARK    1  A    between atoms: N_3  and  C1*_12
REMARK    2  A    between atoms: C_7  and  O_20
REMARK    3  A    between atoms: C3*_11  and  O3*_15
REMARK    4  A    between atoms: C4*_14  and  C5*_17
REMARK    5  A    between atoms: C5*_17  and  O5*_18
REMARK    6  A    between atoms: O_20  and  C_21
REMARK    7  A    between atoms: C_21  and  C_23
REMARK                            x       y       z     vdW  Elec       q    Type
REMARK                         _______ _______ _______ _____ _____    ______ ____
ROOT
ATOM      1  O   UNL     1     -35.772  20.645   2.409  0.00  0.00    -0.252 OA
ATOM      2  O   UNL     1     -40.285  21.116   1.629  0.00  0.00    -0.266 OA
ATOM      3  N   UNL     1     -36.726  22.754   2.715  0.00  0.00    -0.216 N 
ATOM      4  N   UNL     1     -38.020  20.887   2.023  0.00  0.00    -0.233 N 
ATOM      5  C   UNL     1     -37.886  23.517   2.666  0.00  0.00    +0.113 C 
ATOM      6  C   UNL     1     -36.761  21.381   2.387  0.00  0.00    +0.316 C 
ATOM      7  C   UNL     1     -39.083  23.035   2.318  0.00  0.00    +0.208 C 
ATOM      8  C   UNL     1     -39.207  21.603   1.957  0.00  0.00    +0.288 C 
ATOM      9  H   UNL     1     -38.069  19.932   1.791  0.00  0.00    +0.160 HD
ENDROOT
BRANCH   3  12
ATOM     10  O4* UNL     1     -35.410  23.418   4.532  0.00  0.00    -0.335 OA
ATOM     11  C3* UNL     1     -34.542  25.452   3.680  0.00  0.00    +0.144 C 
ATOM     12  C1* UNL     1     -35.488  23.364   3.101  0.00  0.00    +0.202 C 
ATOM     13  C2* UNL     1     -35.347  24.788   2.587  0.00  0.00    +0.083 C 
ATOM     14  C4* UNL     1     -35.020  24.744   4.939  0.00  0.00    +0.173 C 
BRANCH  11  15
ATOM     15  O3* UNL     1     -33.153  25.198   3.477  0.00  0.00    -0.382 OA
ATOM     16  H3* UNL     1     -32.943  24.300   3.778  0.00  0.00    +0.210 HD
ENDBRANCH  11  15
BRANCH  14  17
ATOM     17  C5* UNL     1     -36.233  25.415   5.572  0.00  0.00    +0.169 C 
BRANCH  17  18
ATOM     18  O5* UNL     1     -36.246  26.783   5.198  0.00  0.00    -0.379 OA
ATOM     19  H5* UNL     1     -37.045  26.970   4.681  0.00  0.00    +0.211 HD
ENDBRANCH  17  18
ENDBRANCH  14  17
ENDBRANCH   3  12
BRANCH   7  20
ATOM     20  O   UNL     1     -40.223  23.803   2.272  0.00  0.00    -0.453 OA
BRANCH  20  21
ATOM     21  C   UNL     1     -39.927  25.123   1.853  0.00  0.00    +0.309 C 
BRANCH  21  23
ATOM     22  N   UNL     1     -41.139  26.867   3.391  0.00  0.00    -0.192 NA
ATOM     23  C   UNL     1     -40.603  26.096   2.711  0.00  0.00    +0.122 C 
ENDBRANCH  21  23
ENDBRANCH  20  21
ENDBRANCH   7  20
TORSDOF 7
ENDMDL
MODEL 3
REMARK VINA RESULT:      -5.9      3.583      6.355
REMARK  Name = 196507
REMARK  7 active torsions:
REMARK  status: ('A' for Active; 'I' for Inactive)
REMARK    1  A    between atoms: N_3  and  C1*_12
REMARK    2  A    between atoms: C_7  and  O_20
REMARK    3  A    between atoms: C3*_11  and  O3*_15
REMARK    4  A    between atoms: C4*_14  and  C5*_17
REMARK    5  A    between atoms: C5*_17  and  O5*_18
REMARK    6  A    between atoms: O_20  and  C_21
REMARK    7  A    between atoms: C_21  and  C_23
REMARK                            x       y       z     vdW  Elec       q    Type
REMARK                         _______ _______ _______ _____ _____    ______ ____
ROOT
ATOM      1  O   UNL     1     -37.489  26.452   2.207  0.00  0.00    -0.252 OA
ATOM      2  O   UNL     1     -34.024  29.209   3.472  0.00  0.00    -0.266 OA
ATOM      3  N   UNL     1     -35.659  25.491   3.293  0.00  0.00    -0.216 N 
ATOM      4  N   UNL     1     -35.759  27.820   2.841  0.00  0.00    -0.233 N 
ATOM      5  C   UNL     1     -34.418  25.706   3.880  0.00  0.00    +0.113 C 
ATOM      6  C   UNL     1     -36.384  26.570   2.742  0.00  0.00    +0.316 C 
ATOM      7  C   UNL     1     -33.831  26.903   3.969  0.00  0.00    +0.208 C 
ATOM      8  C   UNL     1     -34.525  28.089   3.415  0.00  0.00    +0.288 C 
ATOM      9  H   UNL     1     -36.247  28.587   2.465  0.00  0.00    +0.160 HD
ENDROOT
BRANCH   3  12
ATOM     10  O4* UNL     1     -36.591  23.764   4.567  0.00  0.00    -0.335 OA
ATOM     11  C3* UNL     1     -35.602  21.894   3.497  0.00  0.00    +0.144 C 
ATOM     12  C1* UNL     1     -36.205  24.166   3.245  0.00  0.00    +0.202 C 
ATOM     13  C2* UNL     1     -35.211  23.137   2.732  0.00  0.00    +0.083 C 
ATOM     14  C4* UNL     1     -36.073  22.447   4.835  0.00  0.00    +0.173 C 
BRANCH  11  15
ATOM     15  O3* UNL     1     -36.683  21.242   2.834  0.00  0.00    -0.382 OA
ATOM     16  H3* UNL     1     -36.550  20.281   2.867  0.00  0.00    +0.210 HD
ENDBRANCH  11  15
BRANCH  14  17
ATOM     17  C5* UNL     1     -34.944  22.586   5.849  0.00  0.00    +0.169 C 
BRANCH  17  18
ATOM     18  O5* UNL     1     -34.518  21.290   6.239  0.00  0.00    -0.379 OA
ATOM     19  H5* UNL     1     -34.963  20.624   5.692  0.00  0.00    +0.211 HD
ENDBRANCH  17  18
ENDBRANCH  14  17
ENDBRANCH   3  12
BRANCH   7  20
ATOM     20  O   UNL     1     -32.601  27.100   4.552  0.00  0.00    -0.453 OA
BRANCH  20  21
ATOM     21  C   UNL     1     -32.719  27.199   5.959  0.00  0.00    +0.309 C 
BRANCH  21  23
ATOM     22  N   UNL     1     -31.490  29.346   6.833  0.00  0.00    -0.192 NA
ATOM     23  C   UNL     1     -32.033  28.396   6.447  0.00  0.00    +0.122 C 
ENDBRANCH  21  23
ENDBRANCH  20  21
ENDBRANCH   7  20
TORSDOF 7
ENDMDL
MODEL 4
REMARK VINA RESULT:      -5.8      1.848      5.519
REMARK  Name = 196507
REMARK  7 active torsions:
REMARK  status: ('A' for Active; 'I' for Inactive)
REMARK    1  A    between atoms: N_3  and  C1*_12
REMARK    2  A    between atoms: C_7  and  O_20
REMARK    3  A    between atoms: C3*_11  and  O3*_15
REMARK    4  A    between atoms: C4*_14  and  C5*_17
REMARK    5  A    between atoms: C5*_17  and  O5*_18
REMARK    6  A    between atoms: O_20  and  C_21
REMARK    7  A    between atoms: C_21  and  C_23
REMARK                            x       y       z     vdW  Elec       q    Type
REMARK                         _______ _______ _______ _____ _____    ______ ____
ROOT
ATOM      1  O   UNL     1     -40.249  21.108   1.549  0.00  0.00    -0.252 OA
ATOM      2  O   UNL     1     -35.846  20.183   2.529  0.00  0.00    -0.266 OA
ATOM      3  N   UNL     1     -38.892  22.863   2.278  0.00  0.00    -0.216 N 
ATOM      4  N   UNL     1     -38.054  20.655   2.039  0.00  0.00    -0.233 N 
ATOM      5  C   UNL     1     -37.625  23.249   2.695  0.00  0.00    +0.113 C 
ATOM      6  C   UNL     1     -39.150  21.519   1.928  0.00  0.00    +0.316 C 
ATOM      7  C   UNL     1     -36.586  22.415   2.797  0.00  0.00    +0.208 C 
ATOM      8  C   UNL     1     -36.771  20.987   2.450  0.00  0.00    +0.288 C 
ATOM      9  H   UNL     1     -38.209  19.713   1.799  0.00  0.00    +0.160 HD
ENDROOT
BRANCH   3  12
ATOM     10  O4* UNL     1     -39.905  24.478   0.921  0.00  0.00    -0.335 OA
ATOM     11  C3* UNL     1     -40.386  26.131   2.551  0.00  0.00    +0.144 C 
ATOM     12  C1* UNL     1     -39.944  23.834   2.202  0.00  0.00    +0.202 C 
ATOM     13  C2* UNL     1     -39.820  24.921   3.258  0.00  0.00    +0.083 C 
ATOM     14  C4* UNL     1     -39.978  25.906   1.102  0.00  0.00    +0.173 C 
BRANCH  11  15
ATOM     15  O3* UNL     1     -41.809  26.129   2.660  0.00  0.00    -0.382 OA
ATOM     16  H3* UNL     1     -42.062  25.925   3.574  0.00  0.00    +0.210 HD
ENDBRANCH  11  15
BRANCH  14  17
ATOM     17  C5* UNL     1     -38.609  26.489   0.775  0.00  0.00    +0.169 C 
BRANCH  17  18
ATOM     18  O5* UNL     1     -38.710  27.904   0.746  0.00  0.00    -0.379 OA
ATOM     19  H5* UNL     1     -37.918  28.275   0.327  0.00  0.00    +0.211 HD
ENDBRANCH  17  18
ENDBRANCH  14  17
ENDBRANCH   3  12
BRANCH   7  20
ATOM     20  O   UNL     1     -35.336  22.812   3.214  0.00  0.00    -0.453 OA
BRANCH  20  21
ATOM     21  C   UNL     1     -35.421  23.601   4.386  0.00  0.00    +0.309 C 
BRANCH  21  23
ATOM     22  N   UNL     1     -35.719  22.077   6.499  0.00  0.00    -0.192 NA
ATOM     23  C   UNL     1     -35.587  22.751   5.565  0.00  0.00    +0.122 C 
ENDBRANCH  21  23
ENDBRANCH  20  21
ENDBRANCH   7  20
TORSDOF 7
ENDMDL
MODEL 5
REMARK VINA RESULT:      -5.7      2.275      5.977
REMARK  Name = 196507
REMARK  7 active torsions:
REMARK  status: ('A' for Active; 'I' for Inactive)
REMARK    1  A    between atoms: N_3  and  C1*_12
REMARK    2  A    between atoms: C_7  and  O_20
REMARK    3  A    between atoms: C3*_11  and  O3*_15
REMARK    4  A    between atoms: C4*_14  and  C5*_17
REMARK    5  A    between atoms: C5*_17  and  O5*_18
REMARK    6  A    between atoms: O_20  and  C_21
REMARK    7  A    between atoms: C_21  and  C_23
REMARK                            x       y       z     vdW  Elec       q    Type
REMARK                         _______ _______ _______ _____ _____    ______ ____
ROOT
ATOM      1  O   UNL     1     -36.156  25.903   5.738  0.00  0.00    -0.252 OA
ATOM      2  O   UNL     1     -34.426  21.645   6.008  0.00  0.00    -0.266 OA
ATOM      3  N   UNL     1     -36.686  24.392   4.038  0.00  0.00    -0.216 N 
ATOM      4  N   UNL     1     -35.299  23.779   5.866  0.00  0.00    -0.233 N 
ATOM      5  C   UNL     1     -36.527  23.102   3.547  0.00  0.00    +0.113 C 
ATOM      6  C   UNL     1     -36.059  24.778   5.244  0.00  0.00    +0.316 C 
ATOM      7  C   UNL     1     -35.799  22.158   4.149  0.00  0.00    +0.208 C 
ATOM      8  C   UNL     1     -35.108  22.480   5.419  0.00  0.00    +0.288 C 
ATOM      9  H   UNL     1     -34.854  24.025   6.708  0.00  0.00    +0.160 HD
ENDROOT
BRANCH   3  12
ATOM     10  O4* UNL     1     -38.873  24.995   3.470  0.00  0.00    -0.335 OA
ATOM     11  C3* UNL     1     -38.533  25.676   1.224  0.00  0.00    +0.144 C 
ATOM     12  C1* UNL     1     -37.488  25.336   3.318  0.00  0.00    +0.202 C 
ATOM     13  C2* UNL     1     -37.187  25.350   1.828  0.00  0.00    +0.083 C 
ATOM     14  C4* UNL     1     -39.510  25.002   2.177  0.00  0.00    +0.173 C 
BRANCH  11  15
ATOM     15  O3* UNL     1     -38.737  27.088   1.239  0.00  0.00    -0.382 OA
ATOM     16  H3* UNL     1     -39.393  27.312   1.917  0.00  0.00    +0.210 HD
ENDBRANCH  11  15
BRANCH  14  17
ATOM     17  C5* UNL     1     -39.809  23.558   1.795  0.00  0.00    +0.169 C 
BRANCH  17  18
ATOM     18  O5* UNL     1     -41.107  23.494   1.227  0.00  0.00    -0.379 OA
ATOM     19  H5* UNL     1     -41.726  23.998   1.778  0.00  0.00    +0.211 HD
ENDBRANCH  17  18
ENDBRANCH  14  17
ENDBRANCH   3  12
BRANCH   7  20
ATOM     20  O   UNL     1     -35.651  20.884   3.649  0.00  0.00    -0.453 OA
BRANCH  20  21
ATOM     21  C   UNL     1     -35.492  20.909   2.243  0.00  0.00    +0.309 C 
BRANCH  21  23
ATOM     22  N   UNL     1     -33.697  19.149   1.492  0.00  0.00    -0.192 NA
ATOM     23  C   UNL     1     -34.491  19.928   1.824  0.00  0.00    +0.122 C 
ENDBRANCH  21  23
ENDBRANCH  20  21
ENDBRANCH   7  20
TORSDOF 7
ENDMDL
MODEL 6
REMARK VINA RESULT:      -5.7      2.021      6.002
REMARK  Name = 196507
REMARK  7 active torsions:
REMARK  status: ('A' for Active; 'I' for Inactive)
REMARK    1  A    between atoms: N_3  and  C1*_12
REMARK    2  A    between atoms: C_7  and  O_20
REMARK    3  A    between atoms: C3*_11  and  O3*_15
REMARK    4  A    between atoms: C4*_14  and  C5*_17
REMARK    5  A    between atoms: C5*_17  and  O5*_18
REMARK    6  A    between atoms: O_20  and  C_21
REMARK    7  A    between atoms: C_21  and  C_23
REMARK                            x       y       z     vdW  Elec       q    Type
REMARK                         _______ _______ _______ _____ _____    ______ ____
ROOT
ATOM      1  O   UNL     1     -40.055  26.390   2.956  0.00  0.00    -0.252 OA
ATOM      2  O   UNL     1     -35.704  26.210   4.451  0.00  0.00    -0.266 OA
ATOM      3  N   UNL     1     -38.834  24.442   2.552  0.00  0.00    -0.216 N 
ATOM      4  N   UNL     1     -37.887  26.293   3.699  0.00  0.00    -0.233 N 
ATOM      5  C   UNL     1     -37.619  23.785   2.707  0.00  0.00    +0.113 C 
ATOM      6  C   UNL     1     -39.007  25.749   3.057  0.00  0.00    +0.316 C 
ATOM      7  C   UNL     1     -36.557  24.314   3.321  0.00  0.00    +0.208 C 
ATOM      8  C   UNL     1     -36.654  25.683   3.880  0.00  0.00    +0.288 C 
ATOM      9  H   UNL     1     -37.985  27.203   4.060  0.00  0.00    +0.160 HD
ENDROOT
BRANCH   3  12
ATOM     10  O4* UNL     1     -39.921  22.397   2.222  0.00  0.00    -0.335 OA
ATOM     11  C3* UNL     1     -40.422  22.575  -0.089  0.00  0.00    +0.144 C 
ATOM     12  C1* UNL     1     -39.916  23.789   1.876  0.00  0.00    +0.202 C 
ATOM     13  C2* UNL     1     -39.806  23.879   0.362  0.00  0.00    +0.083 C 
ATOM     14  C4* UNL     1     -40.034  21.608   1.020  0.00  0.00    +0.173 C 
BRANCH  11  15
ATOM     15  O3* UNL     1     -41.841  22.708  -0.143  0.00  0.00    -0.382 OA
ATOM     16  H3* UNL     1     -42.254  21.931   0.266  0.00  0.00    +0.210 HD
ENDBRANCH  11  15
BRANCH  14  17
ATOM     17  C5* UNL     1     -38.691  20.934   0.775  0.00  0.00    +0.169 C 
BRANCH  17  18
ATOM     18  O5* UNL     1     -38.127  20.569   2.025  0.00  0.00    -0.379 OA
ATOM     19  H5* UNL     1     -37.206  20.292   1.896  0.00  0.00    +0.211 HD
ENDBRANCH  17  18
ENDBRANCH  14  17
ENDBRANCH   3  12
BRANCH   7  20
ATOM     20  O   UNL     1     -35.360  23.651   3.465  0.00  0.00    -0.453 OA
BRANCH  20  21
ATOM     21  C   UNL     1     -35.570  22.312   3.872  0.00  0.00    +0.309 C 
BRANCH  21  23
ATOM     22  N   UNL     1     -35.691  22.155   6.488  0.00  0.00    -0.192 NA
ATOM     23  C   UNL     1     -35.637  22.224   5.331  0.00  0.00    +0.122 C 
ENDBRANCH  21  23
ENDBRANCH  20  21
ENDBRANCH   7  20
TORSDOF 7
ENDMDL
MODEL 7
REMARK VINA RESULT:      -5.7      2.470      3.716
REMARK  Name = 196507
REMARK  7 active torsions:
REMARK  status: ('A' for Active; 'I' for Inactive)
REMARK    1  A    between atoms: N_3  and  C1*_12
REMARK    2  A    between atoms: C_7  and  O_20
REMARK    3  A    between atoms: C3*_11  and  O3*_15
REMARK    4  A    between atoms: C4*_14  and  C5*_17
REMARK    5  A    between atoms: C5*_17  and  O5*_18
REMARK    6  A    between atoms: O_20  and  C_21
REMARK    7  A    between atoms: C_21  and  C_23
REMARK                            x       y       z     vdW  Elec       q    Type
REMARK                         _______ _______ _______ _____ _____    ______ ____
ROOT
ATOM      1  O   UNL     1     -34.886  21.430   5.471  0.00  0.00    -0.252 OA
ATOM      2  O   UNL     1     -36.701  19.917   1.519  0.00  0.00    -0.266 OA
ATOM      3  N   UNL     1     -35.766  23.006   3.991  0.00  0.00    -0.216 N 
ATOM      4  N   UNL     1     -35.792  20.683   3.500  0.00  0.00    -0.233 N 
ATOM      5  C   UNL     1     -36.392  23.223   2.770  0.00  0.00    +0.113 C 
ATOM      6  C   UNL     1     -35.440  21.695   4.402  0.00  0.00    +0.316 C 
ATOM      7  C   UNL     1     -36.724  22.250   1.917  0.00  0.00    +0.208 C 
ATOM      8  C   UNL     1     -36.416  20.844   2.272  0.00  0.00    +0.288 C 
ATOM      9  H   UNL     1     -35.576  19.761   3.766  0.00  0.00    +0.160 HD
ENDROOT
BRANCH   3  12
ATOM     10  O4* UNL     1     -36.371  25.188   4.581  0.00  0.00    -0.335 OA
ATOM     11  C3* UNL     1     -34.219  26.137   4.878  0.00  0.00    +0.144 C 
ATOM     12  C1* UNL     1     -35.450  24.119   4.838  0.00  0.00    +0.202 C 
ATOM     13  C2* UNL     1     -34.050  24.661   4.600  0.00  0.00    +0.083 C 
ATOM     14  C4* UNL     1     -35.638  26.417   4.404  0.00  0.00    +0.173 C 
BRANCH  11  15
ATOM     15  O3* UNL     1     -34.118  26.377   6.280  0.00  0.00    -0.382 OA
ATOM     16  H3* UNL     1     -33.669  27.223   6.432  0.00  0.00    +0.210 HD
ENDBRANCH  11  15
BRANCH  14  17
ATOM     17  C5* UNL     1     -35.707  26.795   2.931  0.00  0.00    +0.169 C 
BRANCH  17  18
ATOM     18  O5* UNL     1     -35.724  28.209   2.822  0.00  0.00    -0.379 OA
ATOM     19  H5* UNL     1     -36.541  28.490   2.382  0.00  0.00    +0.211 HD
ENDBRANCH  17  18
ENDBRANCH  14  17
ENDBRANCH   3  12
BRANCH   7  20
ATOM     20  O   UNL     1     -37.343  22.481   0.710  0.00  0.00    -0.453 OA
BRANCH  20  21
ATOM     21  C   UNL     1     -38.630  23.036   0.901  0.00  0.00    +0.309 C 
BRANCH  21  23
ATOM     22  N   UNL     1     -40.398  21.141   1.304  0.00  0.00    -0.192 NA
ATOM     23  C   UNL     1     -39.616  21.979   1.126  0.00  0.00    +0.122 C 
ENDBRANCH  21  23
ENDBRANCH  20  21
ENDBRANCH   7  20
TORSDOF 7
ENDMDL
MODEL 8
REMARK VINA RESULT:      -5.6      2.242      5.503
REMARK  Name = 196507
REMARK  7 active torsions:
REMARK  status: ('A' for Active; 'I' for Inactive)
REMARK    1  A    between atoms: N_3  and  C1*_12
REMARK    2  A    between atoms: C_7  and  O_20
REMARK    3  A    between atoms: C3*_11  and  O3*_15
REMARK    4  A    between atoms: C4*_14  and  C5*_17
REMARK    5  A    between atoms: C5*_17  and  O5*_18
REMARK    6  A    between atoms: O_20  and  C_21
REMARK    7  A    between atoms: C_21  and  C_23
REMARK                            x       y       z     vdW  Elec       q    Type
REMARK                         _______ _______ _______ _____ _____    ______ ____
ROOT
ATOM      1  O   UNL     1     -36.638  20.524   2.040  0.00  0.00    -0.252 OA
ATOM      2  O   UNL     1     -34.555  21.873   5.918  0.00  0.00    -0.266 OA
ATOM      3  N   UNL     1     -37.023  22.699   2.794  0.00  0.00    -0.216 N 
ATOM      4  N   UNL     1     -35.603  21.203   3.971  0.00  0.00    -0.233 N 
ATOM      5  C   UNL     1     -36.750  23.650   3.770  0.00  0.00    +0.113 C 
ATOM      6  C   UNL     1     -36.441  21.414   2.869  0.00  0.00    +0.316 C 
ATOM      7  C   UNL     1     -35.949  23.437   4.817  0.00  0.00    +0.208 C 
ATOM      8  C   UNL     1     -35.299  22.115   4.971  0.00  0.00    +0.288 C 
ATOM      9  H   UNL     1     -35.186  20.315   4.043  0.00  0.00    +0.160 HD
ENDROOT
BRANCH   3  12
ATOM     10  O4* UNL     1     -37.774  24.419   1.397  0.00  0.00    -0.335 OA
ATOM     11  C3* UNL     1     -40.068  23.841   1.245  0.00  0.00    +0.144 C 
ATOM     12  C1* UNL     1     -37.899  23.024   1.707  0.00  0.00    +0.202 C 
ATOM     13  C2* UNL     1     -39.361  22.761   2.029  0.00  0.00    +0.083 C 
ATOM     14  C4* UNL     1     -39.088  25.004   1.297  0.00  0.00    +0.173 C 
BRANCH  11  15
ATOM     15  O3* UNL     1     -40.246  23.417  -0.106  0.00  0.00    -0.382 OA
ATOM     16  H3* UNL     1     -40.879  22.682  -0.132  0.00  0.00    +0.210 HD
ENDBRANCH  11  15
BRANCH  14  17
ATOM     17  C5* UNL     1     -39.295  25.899   2.511  0.00  0.00    +0.169 C 
BRANCH  17  18
ATOM     18  O5* UNL     1     -38.127  26.680   2.709  0.00  0.00    -0.379 OA
ATOM     19  H5* UNL     1     -37.505  26.521   1.982  0.00  0.00    +0.211 HD
ENDBRANCH  17  18
ENDBRANCH  14  17
ENDBRANCH   3  12
BRANCH   7  20
ATOM     20  O   UNL     1     -35.690  24.389   5.776  0.00  0.00    -0.453 OA
BRANCH  20  21
ATOM     21  C   UNL     1     -35.453  25.653   5.184  0.00  0.00    +0.309 C 
BRANCH  21  23
ATOM     22  N   UNL     1     -33.255  26.718   6.140  0.00  0.00    -0.192 NA
ATOM     23  C   UNL     1     -34.227  26.247   5.717  0.00  0.00    +0.122 C 
ENDBRANCH  21  23
ENDBRANCH  20  21
ENDBRANCH   7  20
TORSDOF 7
ENDMDL
MODEL 9
REMARK VINA RESULT:      -5.6      2.663      5.298
REMARK  Name = 196507
REMARK  7 active torsions:
REMARK  status: ('A' for Active; 'I' for Inactive)
REMARK    1  A    between atoms: N_3  and  C1*_12
REMARK    2  A    between atoms: C_7  and  O_20
REMARK    3  A    between atoms: C3*_11  and  O3*_15
REMARK    4  A    between atoms: C4*_14  and  C5*_17
REMARK    5  A    between atoms: C5*_17  and  O5*_18
REMARK    6  A    between atoms: O_20  and  C_21
REMARK    7  A    between atoms: C_21  and  C_23
REMARK                            x       y       z     vdW  Elec       q    Type
REMARK                         _______ _______ _______ _____ _____    ______ ____
ROOT
ATOM      1  O   UNL     1     -39.021  23.105   2.124  0.00  0.00    -0.252 OA
ATOM      2  O   UNL     1     -36.850  19.155   1.184  0.00  0.00    -0.266 OA
ATOM      3  N   UNL     1     -36.873  22.798   2.987  0.00  0.00    -0.216 N 
ATOM      4  N   UNL     1     -37.933  21.140   1.659  0.00  0.00    -0.233 N 
ATOM      5  C   UNL     1     -35.775  21.952   3.084  0.00  0.00    +0.113 C 
ATOM      6  C   UNL     1     -38.014  22.406   2.252  0.00  0.00    +0.316 C 
ATOM      7  C   UNL     1     -35.710  20.746   2.514  0.00  0.00    +0.208 C 
ATOM      8  C   UNL     1     -36.865  20.257   1.724  0.00  0.00    +0.288 C 
ATOM      9  H   UNL     1     -38.716  20.845   1.140  0.00  0.00    +0.160 HD
ENDROOT
BRANCH   3  12
ATOM     10  O4* UNL     1     -36.312  25.056   2.736  0.00  0.00    -0.335 OA
ATOM     11  C3* UNL     1     -35.439  25.496   4.896  0.00  0.00    +0.144 C 
ATOM     12  C1* UNL     1     -36.848  24.076   3.636  0.00  0.00    +0.202 C 
ATOM     13  C2* UNL     1     -35.980  24.085   4.885  0.00  0.00    +0.083 C 
ATOM     14  C4* UNL     1     -35.300  25.825   3.416  0.00  0.00    +0.173 C 
BRANCH  11  15
ATOM     15  O3* UNL     1     -36.390  26.371   5.501  0.00  0.00    -0.382 OA
ATOM     16  H3* UNL     1     -35.935  26.964   6.119  0.00  0.00    +0.210 HD
ENDBRANCH  11  15
BRANCH  14  17
ATOM     17  C5* UNL     1     -33.946  25.424   2.845  0.00  0.00    +0.169 C 
BRANCH  17  18
ATOM     18  O5* UNL     1     -32.954  25.620   3.840  0.00  0.00    -0.379 OA
ATOM     19  H5* UNL     1     -33.345  26.078   4.600  0.00  0.00    +0.211 HD
ENDBRANCH  17  18
ENDBRANCH  14  17
ENDBRANCH   3  12
BRANCH   7  20
ATOM     20  O   UNL     1     -34.616  19.918   2.620  0.00  0.00    -0.453 OA
BRANCH  20  21
ATOM     21  C   UNL     1     -33.951  19.796   1.376  0.00  0.00    +0.309 C 
BRANCH  21  23
ATOM     22  N   UNL     1     -32.290  17.767   1.418  0.00  0.00    -0.192 NA
ATOM     23  C   UNL     1     -33.025  18.664   1.399  0.00  0.00    +0.122 C 
ENDBRANCH  21  23
ENDBRANCH  20  21
ENDBRANCH   7  20
TORSDOF 7
ENDMDL
