MODEL 1
REMARK VINA RESULT:      -6.2      0.000      0.000
REMARK  Name = 194378
REMARK  6 active torsions:
REMARK  status: ('A' for Active; 'I' for Inactive)
REMARK    1  A    between atoms: C_4  and  C_13
REMARK    2  A    between atoms: C_6  and  C_7
REMARK    3  A    between atoms: C_13  and  C_14
REMARK    4  A    between atoms: C_14  and  C_15
REMARK    5  A    between atoms: C_15  and  N_16
REMARK    6  A    between atoms: N_16  and  C_19
REMARK                            x       y       z     vdW  Elec       q    Type
REMARK                         _______ _______ _______ _____ _____    ______ ____
ROOT
ATOM      1  S   UNL     1     -35.709  19.817   0.132  0.00  0.00    -0.030 S 
ATOM      2  O   UNL     1     -37.977  20.763   1.047  0.00  0.00    -0.282 OA
ATOM      3  N   UNL     1     -34.734  20.263   2.507  0.00  0.00    -0.257 NA
ATOM      4  C   UNL     1     -36.151  20.637   2.641  0.00  0.00    +0.172 C 
ATOM      5  C   UNL     1     -36.817  20.478   1.302  0.00  0.00    +0.226 C 
ATOM      6  C   UNL     1     -34.433  19.841   1.324  0.00  0.00    +0.108 C 
ENDROOT
BRANCH   6   7
ATOM      7  C   UNL     1     -33.060  19.407   0.967  0.00  0.00    +0.023 C 
ATOM      8  C   UNL     1     -32.243  20.227   0.180  0.00  0.00    +0.002 C 
ATOM      9  C   UNL     1     -32.570  18.175   1.413  0.00  0.00    +0.002 C 
ATOM     10  C   UNL     1     -30.952  19.819  -0.156  0.00  0.00    +0.000 C 
ATOM     11  C   UNL     1     -31.279  17.768   1.078  0.00  0.00    +0.000 C 
ATOM     12  C   UNL     1     -30.470  18.590   0.293  0.00  0.00    +0.000 C 
ENDBRANCH   6   7
BRANCH   4  13
ATOM     13  C   UNL     1     -36.239  22.073   3.130  0.00  0.00    +0.035 C 
BRANCH  13  14
ATOM     14  C   UNL     1     -35.498  22.258   4.456  0.00  0.00    +0.029 C 
BRANCH  14  15
ATOM     15  C   UNL     1     -35.731  23.636   5.066  0.00  0.00    +0.129 C 
BRANCH  15  16
ATOM     16  N   UNL     1     -36.939  24.236   4.496  0.00  0.00    -0.240 NA
BRANCH  16  19
ATOM     17  N   UNL     1     -37.827  26.182   3.605  0.00  0.00    -0.370 N 
ATOM     18  N   UNL     1     -36.316  26.413   5.295  0.00  0.00    -0.370 N 
ATOM     19  C   UNL     1     -37.002  25.530   4.490  0.00  0.00    +0.189 C 
ATOM     20  H   UNL     1     -38.375  25.665   2.971  0.00  0.00    +0.159 HD
ATOM     21  H   UNL     1     -37.871  27.165   3.605  0.00  0.00    +0.159 HD
ATOM     22  H   UNL     1     -35.689  26.074   5.976  0.00  0.00    +0.159 HD
ATOM     23  H   UNL     1     -36.453  27.382   5.191  0.00  0.00    +0.159 HD
ENDBRANCH  16  19
ENDBRANCH  15  16
ENDBRANCH  14  15
ENDBRANCH  13  14
ENDBRANCH   4  13
TORSDOF 6
ENDMDL
MODEL 2
REMARK VINA RESULT:      -6.1      0.963      1.663
REMARK  Name = 194378
REMARK  6 active torsions:
REMARK  status: ('A' for Active; 'I' for Inactive)
REMARK    1  A    between atoms: C_4  and  C_13
REMARK    2  A    between atoms: C_6  and  C_7
REMARK    3  A    between atoms: C_13  and  C_14
REMARK    4  A    between atoms: C_14  and  C_15
REMARK    5  A    between atoms: C_15  and  N_16
REMARK    6  A    between atoms: N_16  and  C_19
REMARK                            x       y       z     vdW  Elec       q    Type
REMARK                         _______ _______ _______ _____ _____    ______ ____
ROOT
ATOM      1  S   UNL     1     -35.524  21.153  -0.043  0.00  0.00    -0.030 S 
ATOM      2  O   UNL     1     -37.687  22.349   0.834  0.00  0.00    -0.282 OA
ATOM      3  N   UNL     1     -35.049  20.514   2.437  0.00  0.00    -0.257 NA
ATOM      4  C   UNL     1     -36.346  21.207   2.504  0.00  0.00    +0.172 C 
ATOM      5  C   UNL     1     -36.704  21.683   1.123  0.00  0.00    +0.226 C 
ATOM      6  C   UNL     1     -34.581  20.431   1.237  0.00  0.00    +0.108 C 
ENDROOT
BRANCH   6   7
ATOM      7  C   UNL     1     -33.287  19.769   0.938  0.00  0.00    +0.023 C 
ATOM      8  C   UNL     1     -33.011  18.496   1.450  0.00  0.00    +0.002 C 
ATOM      9  C   UNL     1     -32.332  20.410   0.142  0.00  0.00    +0.002 C 
ATOM     10  C   UNL     1     -31.795  17.873   1.168  0.00  0.00    +0.000 C 
ATOM     11  C   UNL     1     -31.118  19.787  -0.140  0.00  0.00    +0.000 C 
ATOM     12  C   UNL     1     -30.848  18.518   0.374  0.00  0.00    +0.000 C 
ENDBRANCH   6   7
BRANCH   4  13
ATOM     13  C   UNL     1     -36.235  22.371   3.474  0.00  0.00    +0.035 C 
BRANCH  13  14
ATOM     14  C   UNL     1     -35.414  21.994   4.709  0.00  0.00    +0.029 C 
BRANCH  14  15
ATOM     15  C   UNL     1     -35.148  23.187   5.619  0.00  0.00    +0.129 C 
BRANCH  15  16
ATOM     16  N   UNL     1     -36.154  24.226   5.384  0.00  0.00    -0.240 NA
BRANCH  16  19
ATOM     17  N   UNL     1     -34.454  25.742   5.811  0.00  0.00    -0.370 N 
ATOM     18  N   UNL     1     -36.476  26.599   5.205  0.00  0.00    -0.370 N 
ATOM     19  C   UNL     1     -35.750  25.455   5.453  0.00  0.00    +0.189 C 
ATOM     20  H   UNL     1     -33.827  25.011   6.016  0.00  0.00    +0.159 HD
ATOM     21  H   UNL     1     -34.152  26.677   5.861  0.00  0.00    +0.159 HD
ATOM     22  H   UNL     1     -37.422  26.533   4.938  0.00  0.00    +0.159 HD
ATOM     23  H   UNL     1     -36.050  27.482   5.293  0.00  0.00    +0.159 HD
ENDBRANCH  16  19
ENDBRANCH  15  16
ENDBRANCH  14  15
ENDBRANCH  13  14
ENDBRANCH   4  13
TORSDOF 6
ENDMDL
MODEL 3
REMARK VINA RESULT:      -5.6      4.721      7.967
REMARK  Name = 194378
REMARK  6 active torsions:
REMARK  status: ('A' for Active; 'I' for Inactive)
REMARK    1  A    between atoms: C_4  and  C_13
REMARK    2  A    between atoms: C_6  and  C_7
REMARK    3  A    between atoms: C_13  and  C_14
REMARK    4  A    between atoms: C_14  and  C_15
REMARK    5  A    between atoms: C_15  and  N_16
REMARK    6  A    between atoms: N_16  and  C_19
REMARK                            x       y       z     vdW  Elec       q    Type
REMARK                         _______ _______ _______ _____ _____    ______ ____
ROOT
ATOM      1  S   UNL     1     -33.463  26.932   2.740  0.00  0.00    -0.030 S 
ATOM      2  O   UNL     1     -34.594  24.622   2.228  0.00  0.00    -0.282 OA
ATOM      3  N   UNL     1     -33.411  26.187   5.236  0.00  0.00    -0.257 NA
ATOM      4  C   UNL     1     -33.968  25.016   4.540  0.00  0.00    +0.172 C 
ATOM      5  C   UNL     1     -34.106  25.348   3.080  0.00  0.00    +0.226 C 
ATOM      6  C   UNL     1     -33.125  27.160   4.438  0.00  0.00    +0.108 C 
ENDROOT
BRANCH   6   7
ATOM      7  C   UNL     1     -32.547  28.437   4.925  0.00  0.00    +0.023 C 
ATOM      8  C   UNL     1     -32.000  28.519   6.211  0.00  0.00    +0.002 C 
ATOM      9  C   UNL     1     -32.544  29.570   4.104  0.00  0.00    +0.002 C 
ATOM     10  C   UNL     1     -31.456  29.719   6.668  0.00  0.00    +0.000 C 
ATOM     11  C   UNL     1     -32.000  30.769   4.562  0.00  0.00    +0.000 C 
ATOM     12  C   UNL     1     -31.457  30.844   5.845  0.00  0.00    +0.000 C 
ENDBRANCH   6   7
BRANCH   4  13
ATOM     13  C   UNL     1     -35.315  24.672   5.153  0.00  0.00    +0.035 C 
BRANCH  13  14
ATOM     14  C   UNL     1     -35.340  23.235   5.678  0.00  0.00    +0.029 C 
BRANCH  14  15
ATOM     15  C   UNL     1     -35.640  22.219   4.583  0.00  0.00    +0.129 C 
BRANCH  15  16
ATOM     16  N   UNL     1     -36.806  22.651   3.808  0.00  0.00    -0.240 NA
BRANCH  16  19
ATOM     17  N   UNL     1     -36.109  22.137   1.659  0.00  0.00    -0.370 N 
ATOM     18  N   UNL     1     -38.098  21.258   2.340  0.00  0.00    -0.370 N 
ATOM     19  C   UNL     1     -37.019  22.042   2.685  0.00  0.00    +0.189 C 
ATOM     20  H   UNL     1     -35.289  22.670   1.776  0.00  0.00    +0.159 HD
ATOM     21  H   UNL     1     -36.275  21.672   0.808  0.00  0.00    +0.159 HD
ATOM     22  H   UNL     1     -38.825  21.108   2.987  0.00  0.00    +0.159 HD
ATOM     23  H   UNL     1     -38.143  20.848   1.446  0.00  0.00    +0.159 HD
ENDBRANCH  16  19
ENDBRANCH  15  16
ENDBRANCH  14  15
ENDBRANCH  13  14
ENDBRANCH   4  13
TORSDOF 6
ENDMDL
MODEL 4
REMARK VINA RESULT:      -5.5      2.377      3.094
REMARK  Name = 194378
REMARK  6 active torsions:
REMARK  status: ('A' for Active; 'I' for Inactive)
REMARK    1  A    between atoms: C_4  and  C_13
REMARK    2  A    between atoms: C_6  and  C_7
REMARK    3  A    between atoms: C_13  and  C_14
REMARK    4  A    between atoms: C_14  and  C_15
REMARK    5  A    between atoms: C_15  and  N_16
REMARK    6  A    between atoms: N_16  and  C_19
REMARK                            x       y       z     vdW  Elec       q    Type
REMARK                         _______ _______ _______ _____ _____    ______ ____
ROOT
ATOM      1  S   UNL     1     -34.713  22.283  -1.196  0.00  0.00    -0.030 S 
ATOM      2  O   UNL     1     -36.145  24.480  -1.163  0.00  0.00    -0.282 OA
ATOM      3  N   UNL     1     -34.654  22.457   1.403  0.00  0.00    -0.257 NA
ATOM      4  C   UNL     1     -35.509  23.587   1.002  0.00  0.00    +0.172 C 
ATOM      5  C   UNL     1     -35.572  23.630  -0.500  0.00  0.00    +0.226 C 
ATOM      6  C   UNL     1     -34.233  21.762   0.400  0.00  0.00    +0.108 C 
ENDROOT
BRANCH   6   7
ATOM      7  C   UNL     1     -33.360  20.574   0.574  0.00  0.00    +0.023 C 
ATOM      8  C   UNL     1     -33.799  19.481   1.330  0.00  0.00    +0.002 C 
ATOM      9  C   UNL     1     -32.093  20.537  -0.017  0.00  0.00    +0.002 C 
ATOM     10  C   UNL     1     -32.979  18.365   1.493  0.00  0.00    +0.000 C 
ATOM     11  C   UNL     1     -31.274  19.420   0.146  0.00  0.00    +0.000 C 
ATOM     12  C   UNL     1     -31.716  18.334   0.901  0.00  0.00    +0.000 C 
ENDBRANCH   6   7
BRANCH   4  13
ATOM     13  C   UNL     1     -34.924  24.872   1.563  0.00  0.00    +0.035 C 
BRANCH  13  14
ATOM     14  C   UNL     1     -34.389  24.671   2.982  0.00  0.00    +0.029 C 
BRANCH  14  15
ATOM     15  C   UNL     1     -35.485  24.770   4.037  0.00  0.00    +0.129 C 
BRANCH  15  16
ATOM     16  N   UNL     1     -35.191  23.862   5.148  0.00  0.00    -0.240 NA
BRANCH  16  19
ATOM     17  N   UNL     1     -35.911  21.993   6.313  0.00  0.00    -0.370 N 
ATOM     18  N   UNL     1     -36.437  22.097   4.099  0.00  0.00    -0.370 N 
ATOM     19  C   UNL     1     -35.814  22.726   5.154  0.00  0.00    +0.189 C 
ATOM     20  H   UNL     1     -35.506  22.331   7.145  0.00  0.00    +0.159 HD
ATOM     21  H   UNL     1     -36.386  21.131   6.313  0.00  0.00    +0.159 HD
ATOM     22  H   UNL     1     -36.441  22.518   3.208  0.00  0.00    +0.159 HD
ATOM     23  H   UNL     1     -36.879  21.228   4.234  0.00  0.00    +0.159 HD
ENDBRANCH  16  19
ENDBRANCH  15  16
ENDBRANCH  14  15
ENDBRANCH  13  14
ENDBRANCH   4  13
TORSDOF 6
ENDMDL
MODEL 5
REMARK VINA RESULT:      -5.4      4.480      6.685
REMARK  Name = 194378
REMARK  6 active torsions:
REMARK  status: ('A' for Active; 'I' for Inactive)
REMARK    1  A    between atoms: C_4  and  C_13
REMARK    2  A    between atoms: C_6  and  C_7
REMARK    3  A    between atoms: C_13  and  C_14
REMARK    4  A    between atoms: C_14  and  C_15
REMARK    5  A    between atoms: C_15  and  N_16
REMARK    6  A    between atoms: N_16  and  C_19
REMARK                            x       y       z     vdW  Elec       q    Type
REMARK                         _______ _______ _______ _____ _____    ______ ____
ROOT
ATOM      1  S   UNL     1     -36.695  25.481   2.350  0.00  0.00    -0.030 S 
ATOM      2  O   UNL     1     -36.581  27.917   1.384  0.00  0.00    -0.282 OA
ATOM      3  N   UNL     1     -34.885  26.236   4.065  0.00  0.00    -0.257 NA
ATOM      4  C   UNL     1     -35.171  27.464   3.307  0.00  0.00    +0.172 C 
ATOM      5  C   UNL     1     -36.172  27.139   2.232  0.00  0.00    +0.226 C 
ATOM      6  C   UNL     1     -35.588  25.225   3.676  0.00  0.00    +0.108 C 
ENDROOT
BRANCH   6   7
ATOM      7  C   UNL     1     -35.464  23.887   4.306  0.00  0.00    +0.023 C 
ATOM      8  C   UNL     1     -35.510  22.731   3.519  0.00  0.00    +0.002 C 
ATOM      9  C   UNL     1     -35.299  23.771   5.690  0.00  0.00    +0.002 C 
ATOM     10  C   UNL     1     -35.393  21.473   4.111  0.00  0.00    +0.000 C 
ATOM     11  C   UNL     1     -35.182  22.513   6.281  0.00  0.00    +0.000 C 
ATOM     12  C   UNL     1     -35.230  21.364   5.492  0.00  0.00    +0.000 C 
ENDBRANCH   6   7
BRANCH   4  13
ATOM     13  C   UNL     1     -33.877  27.990   2.710  0.00  0.00    +0.035 C 
BRANCH  13  14
ATOM     14  C   UNL     1     -32.662  27.245   3.266  0.00  0.00    +0.029 C 
BRANCH  14  15
ATOM     15  C   UNL     1     -31.789  28.131   4.148  0.00  0.00    +0.129 C 
BRANCH  15  16
ATOM     16  N   UNL     1     -31.942  27.741   5.552  0.00  0.00    -0.240 NA
BRANCH  16  19
ATOM     17  N   UNL     1     -29.902  28.117   6.584  0.00  0.00    -0.370 N 
ATOM     18  N   UNL     1     -31.657  29.402   7.263  0.00  0.00    -0.370 N 
ATOM     19  C   UNL     1     -31.238  28.396   6.420  0.00  0.00    +0.189 C 
ATOM     20  H   UNL     1     -29.475  27.416   6.040  0.00  0.00    +0.159 HD
ATOM     21  H   UNL     1     -29.371  28.618   7.245  0.00  0.00    +0.159 HD
ATOM     22  H   UNL     1     -32.596  29.700   7.246  0.00  0.00    +0.159 HD
ATOM     23  H   UNL     1     -31.019  29.823   7.882  0.00  0.00    +0.159 HD
ENDBRANCH  16  19
ENDBRANCH  15  16
ENDBRANCH  14  15
ENDBRANCH  13  14
ENDBRANCH   4  13
TORSDOF 6
ENDMDL
MODEL 6
REMARK VINA RESULT:      -5.4      1.533      2.047
REMARK  Name = 194378
REMARK  6 active torsions:
REMARK  status: ('A' for Active; 'I' for Inactive)
REMARK    1  A    between atoms: C_4  and  C_13
REMARK    2  A    between atoms: C_6  and  C_7
REMARK    3  A    between atoms: C_13  and  C_14
REMARK    4  A    between atoms: C_14  and  C_15
REMARK    5  A    between atoms: C_15  and  N_16
REMARK    6  A    between atoms: N_16  and  C_19
REMARK                            x       y       z     vdW  Elec       q    Type
REMARK                         _______ _______ _______ _____ _____    ______ ____
ROOT
ATOM      1  S   UNL     1     -36.837  20.742  -0.367  0.00  0.00    -0.030 S 
ATOM      2  O   UNL     1     -38.619  22.539   0.321  0.00  0.00    -0.282 OA
ATOM      3  N   UNL     1     -36.317  20.500   2.175  0.00  0.00    -0.257 NA
ATOM      4  C   UNL     1     -37.427  21.466   2.142  0.00  0.00    +0.172 C 
ATOM      5  C   UNL     1     -37.782  21.738   0.707  0.00  0.00    +0.226 C 
ATOM      6  C   UNL     1     -35.973  20.086   1.002  0.00  0.00    +0.108 C 
ENDROOT
BRANCH   6   7
ATOM      7  C   UNL     1     -34.878  19.105   0.800  0.00  0.00    +0.023 C 
ATOM      8  C   UNL     1     -33.686  19.219   1.525  0.00  0.00    +0.002 C 
ATOM      9  C   UNL     1     -35.027  18.057  -0.115  0.00  0.00    +0.002 C 
ATOM     10  C   UNL     1     -32.657  18.297   1.336  0.00  0.00    +0.000 C 
ATOM     11  C   UNL     1     -33.998  17.136  -0.304  0.00  0.00    +0.000 C 
ATOM     12  C   UNL     1     -32.812  17.255   0.421  0.00  0.00    +0.000 C 
ENDBRANCH   6   7
BRANCH   4  13
ATOM     13  C   UNL     1     -36.995  22.739   2.850  0.00  0.00    +0.035 C 
BRANCH  13  14
ATOM     14  C   UNL     1     -35.590  22.601   3.441  0.00  0.00    +0.029 C 
BRANCH  14  15
ATOM     15  C   UNL     1     -35.537  22.988   4.914  0.00  0.00    +0.129 C 
BRANCH  15  16
ATOM     16  N   UNL     1     -36.416  24.133   5.161  0.00  0.00    -0.240 NA
BRANCH  16  19
ATOM     17  N   UNL     1     -34.502  25.360   5.607  0.00  0.00    -0.370 N 
ATOM     18  N   UNL     1     -36.421  26.533   5.246  0.00  0.00    -0.370 N 
ATOM     19  C   UNL     1     -35.845  25.284   5.322  0.00  0.00    +0.189 C 
ATOM     20  H   UNL     1     -33.970  24.535   5.690  0.00  0.00    +0.159 HD
ATOM     21  H   UNL     1     -34.072  26.237   5.729  0.00  0.00    +0.159 HD
ATOM     22  H   UNL     1     -37.382  26.620   5.046  0.00  0.00    +0.159 HD
ATOM     23  H   UNL     1     -35.874  27.338   5.390  0.00  0.00    +0.159 HD
ENDBRANCH  16  19
ENDBRANCH  15  16
ENDBRANCH  14  15
ENDBRANCH  13  14
ENDBRANCH   4  13
TORSDOF 6
ENDMDL
MODEL 7
REMARK VINA RESULT:      -5.3      2.510      3.500
REMARK  Name = 194378
REMARK  6 active torsions:
REMARK  status: ('A' for Active; 'I' for Inactive)
REMARK    1  A    between atoms: C_4  and  C_13
REMARK    2  A    between atoms: C_6  and  C_7
REMARK    3  A    between atoms: C_13  and  C_14
REMARK    4  A    between atoms: C_14  and  C_15
REMARK    5  A    between atoms: C_15  and  N_16
REMARK    6  A    between atoms: N_16  and  C_19
REMARK                            x       y       z     vdW  Elec       q    Type
REMARK                         _______ _______ _______ _____ _____    ______ ____
ROOT
ATOM      1  S   UNL     1     -36.799  23.072   0.714  0.00  0.00    -0.030 S 
ATOM      2  O   UNL     1     -38.512  24.707   1.840  0.00  0.00    -0.282 OA
ATOM      3  N   UNL     1     -36.021  22.462   3.124  0.00  0.00    -0.257 NA
ATOM      4  C   UNL     1     -37.134  23.398   3.350  0.00  0.00    +0.172 C 
ATOM      5  C   UNL     1     -37.635  23.875   2.014  0.00  0.00    +0.226 C 
ATOM      6  C   UNL     1     -35.795  22.236   1.873  0.00  0.00    +0.108 C 
ENDROOT
BRANCH   6   7
ATOM      7  C   UNL     1     -34.721  21.320   1.417  0.00  0.00    +0.023 C 
ATOM      8  C   UNL     1     -34.643  20.017   1.923  0.00  0.00    +0.002 C 
ATOM      9  C   UNL     1     -33.777  21.750   0.479  0.00  0.00    +0.002 C 
ATOM     10  C   UNL     1     -33.634  19.156   1.493  0.00  0.00    +0.000 C 
ATOM     11  C   UNL     1     -32.768  20.889   0.050  0.00  0.00    +0.000 C 
ATOM     12  C   UNL     1     -32.696  19.591   0.558  0.00  0.00    +0.000 C 
ENDBRANCH   6   7
BRANCH   4  13
ATOM     13  C   UNL     1     -36.640  24.559   4.196  0.00  0.00    +0.035 C 
BRANCH  13  14
ATOM     14  C   UNL     1     -35.259  24.271   4.789  0.00  0.00    +0.029 C 
BRANCH  14  15
ATOM     15  C   UNL     1     -34.330  25.477   4.715  0.00  0.00    +0.129 C 
BRANCH  15  16
ATOM     16  N   UNL     1     -34.084  25.999   6.061  0.00  0.00    -0.240 NA
BRANCH  16  19
ATOM     17  N   UNL     1     -32.564  27.159   7.371  0.00  0.00    -0.370 N 
ATOM     18  N   UNL     1     -32.763  27.808   5.196  0.00  0.00    -0.370 N 
ATOM     19  C   UNL     1     -33.197  26.937   6.171  0.00  0.00    +0.189 C 
ATOM     20  H   UNL     1     -32.784  26.603   8.153  0.00  0.00    +0.159 HD
ATOM     21  H   UNL     1     -31.891  27.873   7.449  0.00  0.00    +0.159 HD
ATOM     22  H   UNL     1     -33.138  27.756   4.286  0.00  0.00    +0.159 HD
ATOM     23  H   UNL     1     -32.078  28.483   5.408  0.00  0.00    +0.159 HD
ENDBRANCH  16  19
ENDBRANCH  15  16
ENDBRANCH  14  15
ENDBRANCH  13  14
ENDBRANCH   4  13
TORSDOF 6
ENDMDL
MODEL 8
REMARK VINA RESULT:      -5.3      3.252      5.444
REMARK  Name = 194378
REMARK  6 active torsions:
REMARK  status: ('A' for Active; 'I' for Inactive)
REMARK    1  A    between atoms: C_4  and  C_13
REMARK    2  A    between atoms: C_6  and  C_7
REMARK    3  A    between atoms: C_13  and  C_14
REMARK    4  A    between atoms: C_14  and  C_15
REMARK    5  A    between atoms: C_15  and  N_16
REMARK    6  A    between atoms: N_16  and  C_19
REMARK                            x       y       z     vdW  Elec       q    Type
REMARK                         _______ _______ _______ _____ _____    ______ ____
ROOT
ATOM      1  S   UNL     1     -34.297  20.154   1.668  0.00  0.00    -0.030 S 
ATOM      2  O   UNL     1     -34.817  18.659  -0.423  0.00  0.00    -0.282 OA
ATOM      3  N   UNL     1     -36.874  20.436   1.924  0.00  0.00    -0.257 NA
ATOM      4  C   UNL     1     -36.741  19.513   0.786  0.00  0.00    +0.172 C 
ATOM      5  C   UNL     1     -35.279  19.316   0.498  0.00  0.00    +0.226 C 
ATOM      6  C   UNL     1     -35.738  20.790   2.423  0.00  0.00    +0.108 C 
ENDROOT
BRANCH   6   7
ATOM      7  C   UNL     1     -35.636  21.713   3.581  0.00  0.00    +0.023 C 
ATOM      8  C   UNL     1     -35.141  21.255   4.807  0.00  0.00    +0.002 C 
ATOM      9  C   UNL     1     -36.035  23.048   3.456  0.00  0.00    +0.002 C 
ATOM     10  C   UNL     1     -35.045  22.123   5.895  0.00  0.00    +0.000 C 
ATOM     11  C   UNL     1     -35.939  23.915   4.544  0.00  0.00    +0.000 C 
ATOM     12  C   UNL     1     -35.444  23.452   5.764  0.00  0.00    +0.000 C 
ENDBRANCH   6   7
BRANCH   4  13
ATOM     13  C   UNL     1     -37.462  20.103  -0.415  0.00  0.00    +0.035 C 
BRANCH  13  14
ATOM     14  C   UNL     1     -37.369  21.630  -0.429  0.00  0.00    +0.029 C 
BRANCH  14  15
ATOM     15  C   UNL     1     -38.713  22.294  -0.702  0.00  0.00    +0.129 C 
BRANCH  15  16
ATOM     16  N   UNL     1     -39.767  21.614   0.055  0.00  0.00    -0.240 NA
BRANCH  16  19
ATOM     17  N   UNL     1     -39.839  21.204   2.334  0.00  0.00    -0.370 N 
ATOM     18  N   UNL     1     -40.392  23.304   1.643  0.00  0.00    -0.370 N 
ATOM     19  C   UNL     1     -39.992  22.043   1.256  0.00  0.00    +0.189 C 
ATOM     20  H   UNL     1     -39.557  20.271   2.195  0.00  0.00    +0.159 HD
ATOM     21  H   UNL     1     -40.012  21.535   3.245  0.00  0.00    +0.159 HD
ATOM     22  H   UNL     1     -40.538  24.004   0.965  0.00  0.00    +0.159 HD
ATOM     23  H   UNL     1     -40.531  23.505   2.596  0.00  0.00    +0.159 HD
ENDBRANCH  16  19
ENDBRANCH  15  16
ENDBRANCH  14  15
ENDBRANCH  13  14
ENDBRANCH   4  13
TORSDOF 6
ENDMDL
MODEL 9
REMARK VINA RESULT:      -5.1      6.717      9.938
REMARK  Name = 194378
REMARK  6 active torsions:
REMARK  status: ('A' for Active; 'I' for Inactive)
REMARK    1  A    between atoms: C_4  and  C_13
REMARK    2  A    between atoms: C_6  and  C_7
REMARK    3  A    between atoms: C_13  and  C_14
REMARK    4  A    between atoms: C_14  and  C_15
REMARK    5  A    between atoms: C_15  and  N_16
REMARK    6  A    between atoms: N_16  and  C_19
REMARK                            x       y       z     vdW  Elec       q    Type
REMARK                         _______ _______ _______ _____ _____    ______ ____
ROOT
ATOM      1  S   UNL     1     -31.222  29.442   3.091  0.00  0.00    -0.030 S 
ATOM      2  O   UNL     1     -29.772  27.950   4.688  0.00  0.00    -0.282 OA
ATOM      3  N   UNL     1     -32.768  29.878   5.142  0.00  0.00    -0.257 NA
ATOM      4  C   UNL     1     -31.683  29.053   5.699  0.00  0.00    +0.172 C 
ATOM      5  C   UNL     1     -30.745  28.681   4.584  0.00  0.00    +0.226 C 
ATOM      6  C   UNL     1     -32.619  30.126   3.884  0.00  0.00    +0.108 C 
ENDROOT
BRANCH   6   7
ATOM      7  C   UNL     1     -33.593  30.944   3.120  0.00  0.00    +0.023 C 
ATOM      8  C   UNL     1     -34.926  30.531   3.008  0.00  0.00    +0.002 C 
ATOM      9  C   UNL     1     -33.188  32.133   2.504  0.00  0.00    +0.002 C 
ATOM     10  C   UNL     1     -35.842  31.300   2.290  0.00  0.00    +0.000 C 
ATOM     11  C   UNL     1     -34.105  32.901   1.787  0.00  0.00    +0.000 C 
ATOM     12  C   UNL     1     -35.432  32.485   1.679  0.00  0.00    +0.000 C 
ENDBRANCH   6   7
BRANCH   4  13
ATOM     13  C   UNL     1     -32.285  27.816   6.345  0.00  0.00    +0.035 C 
BRANCH  13  14
ATOM     14  C   UNL     1     -33.095  26.998   5.338  0.00  0.00    +0.029 C 
BRANCH  14  15
ATOM     15  C   UNL     1     -34.134  26.108   6.011  0.00  0.00    +0.129 C 
BRANCH  15  16
ATOM     16  N   UNL     1     -34.671  25.149   5.044  0.00  0.00    -0.240 NA
BRANCH  16  19
ATOM     17  N   UNL     1     -36.566  23.840   4.792  0.00  0.00    -0.370 N 
ATOM     18  N   UNL     1     -36.883  26.085   5.023  0.00  0.00    -0.370 N 
ATOM     19  C   UNL     1     -35.961  25.063   4.962  0.00  0.00    +0.189 C 
ATOM     20  H   UNL     1     -36.019  23.024   4.732  0.00  0.00    +0.159 HD
ATOM     21  H   UNL     1     -37.547  23.780   4.731  0.00  0.00    +0.159 HD
ATOM     22  H   UNL     1     -36.580  27.015   5.144  0.00  0.00    +0.159 HD
ATOM     23  H   UNL     1     -37.844  25.887   4.947  0.00  0.00    +0.159 HD
ENDBRANCH  16  19
ENDBRANCH  15  16
ENDBRANCH  14  15
ENDBRANCH  13  14
ENDBRANCH   4  13
TORSDOF 6
ENDMDL
