MODEL 1
REMARK VINA RESULT:      -7.0      0.000      0.000
REMARK  Name = 189821
REMARK  5 active torsions:
REMARK  status: ('A' for Active; 'I' for Inactive)
REMARK    1  A    between atoms: C_7  and  C_28
REMARK    2  A    between atoms: C_12  and  O_25
REMARK    3  A    between atoms: C_28  and  C_29
REMARK    4  A    between atoms: C_29  and  O_30
REMARK    5  A    between atoms: O_30  and  C_32
REMARK                            x       y       z     vdW  Elec       q    Type
REMARK                         _______ _______ _______ _____ _____    ______ ____
ROOT
ATOM      1  O   UNL     1     -36.189  22.223   3.831  0.00  0.00    -0.465 OA
ATOM      2  O   UNL     1     -27.600  18.259   0.777  0.00  0.00    -0.287 OA
ATOM      3  N   UNL     1     -34.854  23.667   2.659  0.00  0.00    -0.235 NA
ATOM      4  C   UNL     1     -34.833  22.166   0.627  0.00  0.00    +0.031 C 
ATOM      5  C   UNL     1     -34.422  20.939   1.472  0.00  0.00    +0.006 C 
ATOM      6  C   UNL     1     -33.619  19.894   0.684  0.00  0.00    +0.003 C 
ATOM      7  C   UNL     1     -35.676  22.952   1.665  0.00  0.00    +0.178 C 
ATOM      8  C   UNL     1     -32.304  20.568   0.153  0.00  0.00    +0.034 C 
ATOM      9  C   UNL     1     -35.730  20.522   2.147  0.00  0.00    +0.046 C 
ATOM     10  C   UNL     1     -33.544  22.851   0.135  0.00  0.00    +0.032 C 
ATOM     11  C   UNL     1     -36.414  21.868   2.470  0.00  0.00    +0.194 C 
ATOM     12  C   UNL     1     -32.599  21.892  -0.623  0.00  0.00    +0.111 C 
ATOM     13  C   UNL     1     -31.357  19.534  -0.576  0.00  0.00    +0.036 C 
ATOM     14  C   UNL     1     -33.301  18.679   1.574  0.00  0.00    +0.004 C 
ATOM     15  C   UNL     1     -35.743  21.796  -0.581  0.00  0.00    +0.002 C 
ATOM     16  C   UNL     1     -32.392  17.674   0.877  0.00  0.00    +0.022 C 
ATOM     17  C   UNL     1     -31.144  18.357   0.382  0.00  0.00    -0.038 C 
ATOM     18  C   UNL     1     -31.930  18.979  -1.899  0.00  0.00    +0.009 C 
ATOM     19  C   UNL     1     -30.036  20.199  -0.931  0.00  0.00    -0.020 C 
ATOM     20  C   UNL     1     -35.258  23.200   3.795  0.00  0.00    +0.196 C 
ATOM     21  C   UNL     1     -29.938  17.955   0.814  0.00  0.00    +0.034 C 
ATOM     22  C   UNL     1     -28.832  19.805  -0.504  0.00  0.00    +0.038 C 
ATOM     23  C   UNL     1     -34.760  23.636   5.123  0.00  0.00    +0.094 C 
ATOM     24  C   UNL     1     -28.700  18.641   0.392  0.00  0.00    +0.195 C 
ENDROOT
BRANCH  12  25
ATOM     25  O   UNL     1     -33.128  21.626  -1.915  0.00  0.00    -0.384 OA
ATOM     26  H   UNL     1     -33.764  20.896  -1.859  0.00  0.00    +0.210 HD
ENDBRANCH  12  25
BRANCH   7  28
ATOM     27  O   UNL     1     -36.146  24.999   0.534  0.00  0.00    -0.290 OA
ATOM     28  C   UNL     1     -36.590  23.994   1.086  0.00  0.00    +0.218 C 
BRANCH  28  29
ATOM     29  C   UNL     1     -38.075  23.733   1.224  0.00  0.00    +0.274 C 
BRANCH  29  30
ATOM     30  O   UNL     1     -38.760  24.920   1.567  0.00  0.00    -0.440 OA
BRANCH  30  32
ATOM     31  O   UNL     1     -38.589  24.515   3.835  0.00  0.00    -0.250 OA
ATOM     32  C   UNL     1     -39.145  25.039   2.878  0.00  0.00    +0.318 C 
ATOM     33  C   UNL     1     -40.359  25.910   2.986  0.00  0.00    +0.121 C 
ENDBRANCH  30  32
ENDBRANCH  29  30
ENDBRANCH  28  29
ENDBRANCH   7  28
TORSDOF 5
ENDMDL
MODEL 2
REMARK VINA RESULT:      -7.0      2.623      3.466
REMARK  Name = 189821
REMARK  5 active torsions:
REMARK  status: ('A' for Active; 'I' for Inactive)
REMARK    1  A    between atoms: C_7  and  C_28
REMARK    2  A    between atoms: C_12  and  O_25
REMARK    3  A    between atoms: C_28  and  C_29
REMARK    4  A    between atoms: C_29  and  O_30
REMARK    5  A    between atoms: O_30  and  C_32
REMARK                            x       y       z     vdW  Elec       q    Type
REMARK                         _______ _______ _______ _____ _____    ______ ____
ROOT
ATOM      1  O   UNL     1     -37.227  24.804   4.566  0.00  0.00    -0.465 OA
ATOM      2  O   UNL     1     -30.865  17.906   1.286  0.00  0.00    -0.287 OA
ATOM      3  N   UNL     1     -35.410  25.654   3.463  0.00  0.00    -0.235 NA
ATOM      4  C   UNL     1     -35.952  24.366   1.358  0.00  0.00    +0.031 C 
ATOM      5  C   UNL     1     -36.075  23.038   2.139  0.00  0.00    +0.006 C 
ATOM      6  C   UNL     1     -35.739  21.799   1.297  0.00  0.00    +0.003 C 
ATOM      7  C   UNL     1     -36.431  25.372   2.438  0.00  0.00    +0.178 C 
ATOM      8  C   UNL     1     -34.256  21.920   0.796  0.00  0.00    +0.034 C 
ATOM      9  C   UNL     1     -37.452  23.143   2.797  0.00  0.00    +0.046 C 
ATOM     10  C   UNL     1     -34.488  24.505   0.897  0.00  0.00    +0.032 C 
ATOM     11  C   UNL     1     -37.552  24.632   3.190  0.00  0.00    +0.194 C 
ATOM     12  C   UNL     1     -33.988  23.287   0.088  0.00  0.00    +0.111 C 
ATOM     13  C   UNL     1     -33.785  20.631   0.013  0.00  0.00    +0.036 C 
ATOM     14  C   UNL     1     -35.944  20.516   2.124  0.00  0.00    +0.004 C 
ATOM     15  C   UNL     1     -36.913  24.445   0.137  0.00  0.00    +0.002 C 
ATOM     16  C   UNL     1     -35.497  19.267   1.374  0.00  0.00    +0.022 C 
ATOM     17  C   UNL     1     -34.073  19.421   0.910  0.00  0.00    -0.038 C 
ATOM     18  C   UNL     1     -34.509  20.412  -1.335  0.00  0.00    +0.009 C 
ATOM     19  C   UNL     1     -32.303  20.733  -0.313  0.00  0.00    -0.020 C 
ATOM     20  C   UNL     1     -35.985  25.332   4.576  0.00  0.00    +0.196 C 
ATOM     21  C   UNL     1     -33.133  18.553   1.316  0.00  0.00    +0.034 C 
ATOM     22  C   UNL     1     -31.361  19.873   0.090  0.00  0.00    +0.038 C 
ATOM     23  C   UNL     1     -35.377  25.471   5.923  0.00  0.00    +0.094 C 
ATOM     24  C   UNL     1     -31.717  18.711   0.925  0.00  0.00    +0.195 C 
ENDROOT
BRANCH  12  25
ATOM     25  O   UNL     1     -34.558  23.314  -1.213  0.00  0.00    -0.384 OA
ATOM     26  H   UNL     1     -33.912  23.675  -1.841  0.00  0.00    +0.210 HD
ENDBRANCH  12  25
BRANCH   7  28
ATOM     27  O   UNL     1     -38.032  27.032   1.829  0.00  0.00    -0.290 OA
ATOM     28  C   UNL     1     -36.846  26.717   1.915  0.00  0.00    +0.218 C 
BRANCH  28  29
ATOM     29  C   UNL     1     -35.727  27.651   1.506  0.00  0.00    +0.274 C 
BRANCH  29  30
ATOM     30  O   UNL     1     -36.051  28.988   1.826  0.00  0.00    -0.440 OA
BRANCH  30  32
ATOM     31  O   UNL     1     -34.338  29.090   3.372  0.00  0.00    -0.250 OA
ATOM     32  C   UNL     1     -35.197  29.628   2.687  0.00  0.00    +0.318 C 
ATOM     33  C   UNL     1     -35.460  31.104   2.677  0.00  0.00    +0.121 C 
ENDBRANCH  30  32
ENDBRANCH  29  30
ENDBRANCH  28  29
ENDBRANCH   7  28
TORSDOF 5
ENDMDL
MODEL 3
REMARK VINA RESULT:      -6.9      1.295      1.495
REMARK  Name = 189821
REMARK  5 active torsions:
REMARK  status: ('A' for Active; 'I' for Inactive)
REMARK    1  A    between atoms: C_7  and  C_28
REMARK    2  A    between atoms: C_12  and  O_25
REMARK    3  A    between atoms: C_28  and  C_29
REMARK    4  A    between atoms: C_29  and  O_30
REMARK    5  A    between atoms: O_30  and  C_32
REMARK                            x       y       z     vdW  Elec       q    Type
REMARK                         _______ _______ _______ _____ _____    ______ ____
ROOT
ATOM      1  O   UNL     1     -36.437  23.214   4.518  0.00  0.00    -0.465 OA
ATOM      2  O   UNL     1     -28.642  18.800   0.210  0.00  0.00    -0.287 OA
ATOM      3  N   UNL     1     -35.162  24.612   3.229  0.00  0.00    -0.235 NA
ATOM      4  C   UNL     1     -35.519  23.205   1.161  0.00  0.00    +0.031 C 
ATOM      5  C   UNL     1     -35.094  21.916   1.901  0.00  0.00    +0.006 C 
ATOM      6  C   UNL     1     -34.481  20.853   0.977  0.00  0.00    +0.003 C 
ATOM      7  C   UNL     1     -36.158  24.001   2.329  0.00  0.00    +0.178 C 
ATOM      8  C   UNL     1     -33.200  21.457   0.299  0.00  0.00    +0.034 C 
ATOM      9  C   UNL     1     -36.330  21.562   2.729  0.00  0.00    +0.046 C 
ATOM     10  C   UNL     1     -34.256  23.820   0.526  0.00  0.00    +0.032 C 
ATOM     11  C   UNL     1     -36.863  22.936   3.188  0.00  0.00    +0.194 C 
ATOM     12  C   UNL     1     -33.493  22.831  -0.385  0.00  0.00    +0.111 C 
ATOM     13  C   UNL     1     -32.436  20.393  -0.585  0.00  0.00    +0.036 C 
ATOM     14  C   UNL     1     -34.142  19.581   1.774  0.00  0.00    +0.004 C 
ATOM     15  C   UNL     1     -36.603  22.953   0.073  0.00  0.00    +0.002 C 
ATOM     16  C   UNL     1     -33.410  18.546   0.928  0.00  0.00    +0.022 C 
ATOM     17  C   UNL     1     -32.189  19.162   0.295  0.00  0.00    -0.038 C 
ATOM     18  C   UNL     1     -33.217  19.938  -1.839  0.00  0.00    +0.009 C 
ATOM     19  C   UNL     1     -31.127  20.979  -1.090  0.00  0.00    -0.020 C 
ATOM     20  C   UNL     1     -35.448  24.124   4.392  0.00  0.00    +0.196 C 
ATOM     21  C   UNL     1     -30.971  18.658   0.548  0.00  0.00    +0.034 C 
ATOM     22  C   UNL     1     -29.911  20.483  -0.841  0.00  0.00    +0.038 C 
ATOM     23  C   UNL     1     -34.749  24.465   5.656  0.00  0.00    +0.094 C 
ATOM     24  C   UNL     1     -29.750  19.274  -0.012  0.00  0.00    +0.195 C 
ENDROOT
BRANCH  12  25
ATOM     25  O   UNL     1     -34.204  22.660  -1.602  0.00  0.00    -0.384 OA
ATOM     26  H   UNL     1     -35.055  23.123  -1.547  0.00  0.00    +0.210 HD
ENDBRANCH  12  25
BRANCH   7  28
ATOM     27  O   UNL     1     -36.614  26.129   1.353  0.00  0.00    -0.290 OA
ATOM     28  C   UNL     1     -37.058  25.129   1.914  0.00  0.00    +0.218 C 
BRANCH  28  29
ATOM     29  C   UNL     1     -38.530  24.960   2.226  0.00  0.00    +0.274 C 
BRANCH  29  30
ATOM     30  O   UNL     1     -39.057  26.138   2.799  0.00  0.00    -0.440 OA
BRANCH  30  32
ATOM     31  O   UNL     1     -41.069  27.043   3.485  0.00  0.00    -0.250 OA
ATOM     32  C   UNL     1     -40.424  26.240   2.823  0.00  0.00    +0.318 C 
ATOM     33  C   UNL     1     -41.037  25.218   1.915  0.00  0.00    +0.121 C 
ENDBRANCH  30  32
ENDBRANCH  29  30
ENDBRANCH  28  29
ENDBRANCH   7  28
TORSDOF 5
ENDMDL
MODEL 4
REMARK VINA RESULT:      -6.7      2.505      7.819
REMARK  Name = 189821
REMARK  5 active torsions:
REMARK  status: ('A' for Active; 'I' for Inactive)
REMARK    1  A    between atoms: C_7  and  C_28
REMARK    2  A    between atoms: C_12  and  O_25
REMARK    3  A    between atoms: C_28  and  C_29
REMARK    4  A    between atoms: C_29  and  O_30
REMARK    5  A    between atoms: O_30  and  C_32
REMARK                            x       y       z     vdW  Elec       q    Type
REMARK                         _______ _______ _______ _____ _____    ______ ____
ROOT
ATOM      1  O   UNL     1     -31.944  20.500  -1.725  0.00  0.00    -0.465 OA
ATOM      2  O   UNL     1     -34.348  26.326   5.963  0.00  0.00    -0.287 OA
ATOM      3  N   UNL     1     -32.254  19.374   0.245  0.00  0.00    -0.235 NA
ATOM      4  C   UNL     1     -34.627  20.211   0.473  0.00  0.00    +0.031 C 
ATOM      5  C   UNL     1     -34.187  21.677   0.256  0.00  0.00    +0.006 C 
ATOM      6  C   UNL     1     -35.102  22.700   0.944  0.00  0.00    +0.003 C 
ATOM      7  C   UNL     1     -33.578  19.472  -0.398  0.00  0.00    +0.178 C 
ATOM      8  C   UNL     1     -35.091  22.424   2.490  0.00  0.00    +0.034 C 
ATOM      9  C   UNL     1     -33.976  21.762  -1.257  0.00  0.00    +0.046 C 
ATOM     10  C   UNL     1     -34.581  19.926   1.986  0.00  0.00    +0.032 C 
ATOM     11  C   UNL     1     -33.360  20.392  -1.612  0.00  0.00    +0.194 C 
ATOM     12  C   UNL     1     -35.412  20.930   2.818  0.00  0.00    +0.111 C 
ATOM     13  C   UNL     1     -35.920  23.502   3.294  0.00  0.00    +0.036 C 
ATOM     14  C   UNL     1     -34.636  24.133   0.633  0.00  0.00    +0.004 C 
ATOM     15  C   UNL     1     -36.047  19.913  -0.091  0.00  0.00    +0.002 C 
ATOM     16  C   UNL     1     -35.433  25.181   1.400  0.00  0.00    +0.022 C 
ATOM     17  C   UNL     1     -35.399  24.882   2.875  0.00  0.00    -0.038 C 
ATOM     18  C   UNL     1     -37.441  23.460   3.022  0.00  0.00    +0.009 C 
ATOM     19  C   UNL     1     -35.749  23.281   4.789  0.00  0.00    -0.020 C 
ATOM     20  C   UNL     1     -31.454  19.942  -0.597  0.00  0.00    +0.196 C 
ATOM     21  C   UNL     1     -34.895  25.781   3.735  0.00  0.00    +0.034 C 
ATOM     22  C   UNL     1     -35.246  24.171   5.650  0.00  0.00    +0.038 C 
ATOM     23  C   UNL     1     -29.984  20.066  -0.428  0.00  0.00    +0.094 C 
ATOM     24  C   UNL     1     -34.795  25.494   5.181  0.00  0.00    +0.195 C 
ENDROOT
BRANCH  12  25
ATOM     25  O   UNL     1     -36.795  20.651   2.656  0.00  0.00    -0.384 OA
ATOM     26  H   UNL     1     -36.910  19.724   2.394  0.00  0.00    +0.210 HD
ENDBRANCH  12  25
BRANCH   7  28
ATOM     27  O   UNL     1     -34.374  17.788  -1.889  0.00  0.00    -0.290 OA
ATOM     28  C   UNL     1     -33.940  18.063  -0.771  0.00  0.00    +0.218 C 
BRANCH  28  29
ATOM     29  C   UNL     1     -33.739  17.013   0.302  0.00  0.00    +0.274 C 
BRANCH  29  30
ATOM     30  O   UNL     1     -33.156  15.848  -0.243  0.00  0.00    -0.440 OA
BRANCH  30  32
ATOM     31  O   UNL     1     -30.997  16.156   0.519  0.00  0.00    -0.250 OA
ATOM     32  C   UNL     1     -31.790  15.854  -0.363  0.00  0.00    +0.318 C 
ATOM     33  C   UNL     1     -31.388  15.435  -1.745  0.00  0.00    +0.121 C 
ENDBRANCH  30  32
ENDBRANCH  29  30
ENDBRANCH  28  29
ENDBRANCH   7  28
TORSDOF 5
ENDMDL
MODEL 5
REMARK VINA RESULT:      -6.7      2.888      7.641
REMARK  Name = 189821
REMARK  5 active torsions:
REMARK  status: ('A' for Active; 'I' for Inactive)
REMARK    1  A    between atoms: C_7  and  C_28
REMARK    2  A    between atoms: C_12  and  O_25
REMARK    3  A    between atoms: C_28  and  C_29
REMARK    4  A    between atoms: C_29  and  O_30
REMARK    5  A    between atoms: O_30  and  C_32
REMARK                            x       y       z     vdW  Elec       q    Type
REMARK                         _______ _______ _______ _____ _____    ______ ____
ROOT
ATOM      1  O   UNL     1     -31.944  20.418  -1.802  0.00  0.00    -0.465 OA
ATOM      2  O   UNL     1     -34.280  25.958   6.114  0.00  0.00    -0.287 OA
ATOM      3  N   UNL     1     -32.306  19.214   0.111  0.00  0.00    -0.235 NA
ATOM      4  C   UNL     1     -34.658  20.104   0.352  0.00  0.00    +0.031 C 
ATOM      5  C   UNL     1     -34.177  21.565   0.206  0.00  0.00    +0.006 C 
ATOM      6  C   UNL     1     -35.073  22.581   0.930  0.00  0.00    +0.003 C 
ATOM      7  C   UNL     1     -33.619  19.376  -0.540  0.00  0.00    +0.178 C 
ATOM      8  C   UNL     1     -35.087  22.236   2.461  0.00  0.00    +0.034 C 
ATOM      9  C   UNL     1     -33.947  21.712  -1.299  0.00  0.00    +0.046 C 
ATOM     10  C   UNL     1     -34.637  19.750   1.852  0.00  0.00    +0.032 C 
ATOM     11  C   UNL     1     -33.363  20.343  -1.710  0.00  0.00    +0.194 C 
ATOM     12  C   UNL     1     -35.450  20.738   2.719  0.00  0.00    +0.111 C 
ATOM     13  C   UNL     1     -35.895  23.299   3.305  0.00  0.00    +0.036 C 
ATOM     14  C   UNL     1     -34.565  24.013   0.688  0.00  0.00    +0.004 C 
ATOM     15  C   UNL     1     -36.079  19.869  -0.238  0.00  0.00    +0.002 C 
ATOM     16  C   UNL     1     -35.343  25.047   1.493  0.00  0.00    +0.022 C 
ATOM     17  C   UNL     1     -35.334  24.682   2.954  0.00  0.00    -0.038 C 
ATOM     18  C   UNL     1     -37.414  23.311   3.016  0.00  0.00    +0.009 C 
ATOM     19  C   UNL     1     -35.748  23.007   4.790  0.00  0.00    -0.020 C 
ATOM     20  C   UNL     1     -31.481  19.797  -0.696  0.00  0.00    +0.196 C 
ATOM     21  C   UNL     1     -34.815  25.528   3.858  0.00  0.00    +0.034 C 
ATOM     22  C   UNL     1     -35.231  23.845   5.695  0.00  0.00    +0.038 C 
ATOM     23  C   UNL     1     -30.011  19.874  -0.507  0.00  0.00    +0.094 C 
ATOM     24  C   UNL     1     -34.740  25.174   5.290  0.00  0.00    +0.195 C 
ENDROOT
BRANCH  12  25
ATOM     25  O   UNL     1     -36.839  20.504   2.531  0.00  0.00    -0.384 OA
ATOM     26  H   UNL     1     -37.240  20.240   3.374  0.00  0.00    +0.210 HD
ENDBRANCH  12  25
BRANCH   7  28
ATOM     27  O   UNL     1     -34.422  17.779  -2.119  0.00  0.00    -0.290 OA
ATOM     28  C   UNL     1     -34.014  17.995  -0.980  0.00  0.00    +0.218 C 
BRANCH  28  29
ATOM     29  C   UNL     1     -33.879  16.898   0.056  0.00  0.00    +0.274 C 
BRANCH  29  30
ATOM     30  O   UNL     1     -33.885  15.628  -0.560  0.00  0.00    -0.440 OA
BRANCH  30  32
ATOM     31  O   UNL     1     -36.036  15.203   0.168  0.00  0.00    -0.250 OA
ATOM     32  C   UNL     1     -35.085  14.964  -0.564  0.00  0.00    +0.318 C 
ATOM     33  C   UNL     1     -35.078  13.885  -1.605  0.00  0.00    +0.121 C 
ENDBRANCH  30  32
ENDBRANCH  29  30
ENDBRANCH  28  29
ENDBRANCH   7  28
TORSDOF 5
ENDMDL
MODEL 6
REMARK VINA RESULT:      -6.6      4.503      7.009
REMARK  Name = 189821
REMARK  5 active torsions:
REMARK  status: ('A' for Active; 'I' for Inactive)
REMARK    1  A    between atoms: C_7  and  C_28
REMARK    2  A    between atoms: C_12  and  O_25
REMARK    3  A    between atoms: C_28  and  C_29
REMARK    4  A    between atoms: C_29  and  O_30
REMARK    5  A    between atoms: O_30  and  C_32
REMARK                            x       y       z     vdW  Elec       q    Type
REMARK                         _______ _______ _______ _____ _____    ______ ____
ROOT
ATOM      1  O   UNL     1     -35.363  22.093   3.123  0.00  0.00    -0.465 OA
ATOM      2  O   UNL     1     -28.819  29.209   5.441  0.00  0.00    -0.287 OA
ATOM      3  N   UNL     1     -36.148  23.639   4.619  0.00  0.00    -0.235 NA
ATOM      4  C   UNL     1     -35.768  25.548   3.008  0.00  0.00    +0.031 C 
ATOM      5  C   UNL     1     -34.309  25.108   2.748  0.00  0.00    +0.006 C 
ATOM      6  C   UNL     1     -33.378  26.267   2.364  0.00  0.00    +0.003 C 
ATOM      7  C   UNL     1     -36.432  24.171   3.273  0.00  0.00    +0.178 C 
ATOM      8  C   UNL     1     -33.360  27.306   3.541  0.00  0.00    +0.034 C 
ATOM      9  C   UNL     1     -34.463  23.925   1.790  0.00  0.00    +0.046 C 
ATOM     10  C   UNL     1     -35.757  26.539   4.187  0.00  0.00    +0.032 C 
ATOM     11  C   UNL     1     -35.725  23.203   2.308  0.00  0.00    +0.194 C 
ATOM     12  C   UNL     1     -34.802  27.734   3.966  0.00  0.00    +0.111 C 
ATOM     13  C   UNL     1     -32.337  28.483   3.281  0.00  0.00    +0.036 C 
ATOM     14  C   UNL     1     -31.963  25.743   2.063  0.00  0.00    +0.004 C 
ATOM     15  C   UNL     1     -36.438  26.196   1.762  0.00  0.00    +0.002 C 
ATOM     16  C   UNL     1     -30.971  26.870   1.806  0.00  0.00    +0.022 C 
ATOM     17  C   UNL     1     -30.982  27.845   2.954  0.00  0.00    -0.038 C 
ATOM     18  C   UNL     1     -32.727  29.410   2.108  0.00  0.00    +0.009 C 
ATOM     19  C   UNL     1     -32.243  29.372   4.512  0.00  0.00    -0.020 C 
ATOM     20  C   UNL     1     -35.597  22.491   4.392  0.00  0.00    +0.196 C 
ATOM     21  C   UNL     1     -29.859  28.080   3.651  0.00  0.00    +0.034 C 
ATOM     22  C   UNL     1     -31.129  29.609   5.211  0.00  0.00    +0.038 C 
ATOM     23  C   UNL     1     -35.157  21.534   5.437  0.00  0.00    +0.094 C 
ATOM     24  C   UNL     1     -29.852  28.986   4.818  0.00  0.00    +0.195 C 
ENDROOT
BRANCH  12  25
ATOM     25  O   UNL     1     -35.373  28.630   3.023  0.00  0.00    -0.384 OA
ATOM     26  H   UNL     1     -34.989  29.513   3.143  0.00  0.00    +0.210 HD
ENDBRANCH  12  25
BRANCH   7  28
ATOM     27  O   UNL     1     -38.645  24.728   3.968  0.00  0.00    -0.290 OA
ATOM     28  C   UNL     1     -37.929  24.153   3.151  0.00  0.00    +0.218 C 
BRANCH  28  29
ATOM     29  C   UNL     1     -38.495  23.390   1.971  0.00  0.00    +0.274 C 
BRANCH  29  30
ATOM     30  O   UNL     1     -38.847  22.076   2.350  0.00  0.00    -0.440 OA
BRANCH  30  32
ATOM     31  O   UNL     1     -40.537  21.010   1.190  0.00  0.00    -0.250 OA
ATOM     32  C   UNL     1     -39.355  21.276   1.358  0.00  0.00    +0.318 C 
ATOM     33  C   UNL     1     -38.247  20.761   0.489  0.00  0.00    +0.121 C 
ENDBRANCH  30  32
ENDBRANCH  29  30
ENDBRANCH  28  29
ENDBRANCH   7  28
TORSDOF 5
ENDMDL
MODEL 7
REMARK VINA RESULT:      -6.5      2.919      7.261
REMARK  Name = 189821
REMARK  5 active torsions:
REMARK  status: ('A' for Active; 'I' for Inactive)
REMARK    1  A    between atoms: C_7  and  C_28
REMARK    2  A    between atoms: C_12  and  O_25
REMARK    3  A    between atoms: C_28  and  C_29
REMARK    4  A    between atoms: C_29  and  O_30
REMARK    5  A    between atoms: O_30  and  C_32
REMARK                            x       y       z     vdW  Elec       q    Type
REMARK                         _______ _______ _______ _____ _____    ______ ____
ROOT
ATOM      1  O   UNL     1     -32.344  20.458  -1.585  0.00  0.00    -0.465 OA
ATOM      2  O   UNL     1     -33.869  26.655   6.037  0.00  0.00    -0.287 OA
ATOM      3  N   UNL     1     -32.712  19.410   0.417  0.00  0.00    -0.235 NA
ATOM      4  C   UNL     1     -34.973  20.503   0.695  0.00  0.00    +0.031 C 
ATOM      5  C   UNL     1     -34.385  21.908   0.432  0.00  0.00    +0.006 C 
ATOM      6  C   UNL     1     -35.163  23.037   1.124  0.00  0.00    +0.003 C 
ATOM      7  C   UNL     1     -34.036  19.638  -0.190  0.00  0.00    +0.178 C 
ATOM      8  C   UNL     1     -35.134  22.790   2.674  0.00  0.00    +0.034 C 
ATOM      9  C   UNL     1     -34.213  21.940  -1.087  0.00  0.00    +0.046 C 
ATOM     10  C   UNL     1     -34.911  20.243   2.212  0.00  0.00    +0.032 C 
ATOM     11  C   UNL     1     -33.759  20.506  -1.430  0.00  0.00    +0.194 C 
ATOM     12  C   UNL     1     -35.603  21.346   3.045  0.00  0.00    +0.111 C 
ATOM     13  C   UNL     1     -35.817  23.967   3.477  0.00  0.00    +0.036 C 
ATOM     14  C   UNL     1     -34.556  24.405   0.767  0.00  0.00    +0.004 C 
ATOM     15  C   UNL     1     -36.433  20.349   0.179  0.00  0.00    +0.002 C 
ATOM     16  C   UNL     1     -35.212  25.547   1.533  0.00  0.00    +0.022 C 
ATOM     17  C   UNL     1     -35.164  25.274   3.013  0.00  0.00    -0.038 C 
ATOM     18  C   UNL     1     -37.341  24.084   3.251  0.00  0.00    +0.009 C 
ATOM     19  C   UNL     1     -35.625  23.757   4.972  0.00  0.00    -0.020 C 
ATOM     20  C   UNL     1     -31.882  19.872  -0.460  0.00  0.00    +0.196 C 
ATOM     21  C   UNL     1     -34.540  26.130   3.838  0.00  0.00    +0.034 C 
ATOM     22  C   UNL     1     -35.002  24.604   5.798  0.00  0.00    +0.038 C 
ATOM     23  C   UNL     1     -30.403  19.840  -0.336  0.00  0.00    +0.094 C 
ATOM     24  C   UNL     1     -34.427  25.861   5.286  0.00  0.00    +0.195 C 
ENDROOT
BRANCH  12  25
ATOM     25  O   UNL     1     -37.013  21.215   2.929  0.00  0.00    -0.384 OA
ATOM     26  H   UNL     1     -37.230  20.322   2.619  0.00  0.00    +0.210 HD
ENDBRANCH  12  25
BRANCH   7  28
ATOM     27  O   UNL     1     -34.486  17.344   0.286  0.00  0.00    -0.290 OA
ATOM     28  C   UNL     1     -34.559  18.269  -0.521  0.00  0.00    +0.218 C 
BRANCH  28  29
ATOM     29  C   UNL     1     -35.174  18.101  -1.895  0.00  0.00    +0.274 C 
BRANCH  29  30
ATOM     30  O   UNL     1     -36.078  17.016  -1.907  0.00  0.00    -0.440 OA
BRANCH  30  32
ATOM     31  O   UNL     1     -38.073  18.079  -2.385  0.00  0.00    -0.250 OA
ATOM     32  C   UNL     1     -37.397  17.326  -1.696  0.00  0.00    +0.318 C 
ATOM     33  C   UNL     1     -37.912  16.606  -0.487  0.00  0.00    +0.121 C 
ENDBRANCH  30  32
ENDBRANCH  29  30
ENDBRANCH  28  29
ENDBRANCH   7  28
TORSDOF 5
ENDMDL
MODEL 8
REMARK VINA RESULT:      -6.3      2.411      4.350
REMARK  Name = 189821
REMARK  5 active torsions:
REMARK  status: ('A' for Active; 'I' for Inactive)
REMARK    1  A    between atoms: C_7  and  C_28
REMARK    2  A    between atoms: C_12  and  O_25
REMARK    3  A    between atoms: C_28  and  C_29
REMARK    4  A    between atoms: C_29  and  O_30
REMARK    5  A    between atoms: O_30  and  C_32
REMARK                            x       y       z     vdW  Elec       q    Type
REMARK                         _______ _______ _______ _____ _____    ______ ____
ROOT
ATOM      1  O   UNL     1     -36.289  25.861   0.237  0.00  0.00    -0.465 OA
ATOM      2  O   UNL     1     -33.413  17.019  -3.280  0.00  0.00    -0.287 OA
ATOM      3  N   UNL     1     -37.787  24.170   0.611  0.00  0.00    -0.235 NA
ATOM      4  C   UNL     1     -36.094  22.812   1.903  0.00  0.00    +0.031 C 
ATOM      5  C   UNL     1     -35.047  22.944   0.773  0.00  0.00    +0.006 C 
ATOM      6  C   UNL     1     -34.061  21.768   0.711  0.00  0.00    +0.003 C 
ATOM      7  C   UNL     1     -36.846  24.159   1.746  0.00  0.00    +0.178 C 
ATOM      8  C   UNL     1     -34.871  20.448   0.457  0.00  0.00    +0.034 C 
ATOM      9  C   UNL     1     -34.506  24.363   0.958  0.00  0.00    +0.046 C 
ATOM     10  C   UNL     1     -36.915  21.536   1.636  0.00  0.00    +0.032 C 
ATOM     11  C   UNL     1     -35.755  25.175   1.365  0.00  0.00    +0.194 C 
ATOM     12  C   UNL     1     -36.038  20.272   1.481  0.00  0.00    +0.111 C 
ATOM     13  C   UNL     1     -33.925  19.196   0.265  0.00  0.00    +0.036 C 
ATOM     14  C   UNL     1     -33.017  22.002  -0.395  0.00  0.00    +0.004 C 
ATOM     15  C   UNL     1     -35.454  22.756   3.321  0.00  0.00    +0.002 C 
ATOM     16  C   UNL     1     -32.096  20.802  -0.584  0.00  0.00    +0.022 C 
ATOM     17  C   UNL     1     -32.908  19.556  -0.824  0.00  0.00    -0.038 C 
ATOM     18  C   UNL     1     -33.144  18.795   1.537  0.00  0.00    +0.009 C 
ATOM     19  C   UNL     1     -34.746  17.979  -0.131  0.00  0.00    -0.020 C 
ATOM     20  C   UNL     1     -37.390  25.164  -0.116  0.00  0.00    +0.196 C 
ATOM     21  C   UNL     1     -32.750  18.856  -1.959  0.00  0.00    +0.034 C 
ATOM     22  C   UNL     1     -34.596  17.278  -1.260  0.00  0.00    +0.038 C 
ATOM     23  C   UNL     1     -38.042  25.620  -1.368  0.00  0.00    +0.094 C 
ATOM     24  C   UNL     1     -33.573  17.663  -2.249  0.00  0.00    +0.195 C 
ENDROOT
BRANCH  12  25
ATOM     25  O   UNL     1     -35.552  19.872   2.755  0.00  0.00    -0.384 OA
ATOM     26  H   UNL     1     -34.897  20.517   3.067  0.00  0.00    +0.210 HD
ENDBRANCH  12  25
BRANCH   7  28
ATOM     27  O   UNL     1     -38.590  23.882   3.350  0.00  0.00    -0.290 OA
ATOM     28  C   UNL     1     -37.662  24.575   2.937  0.00  0.00    +0.218 C 
BRANCH  28  29
ATOM     29  C   UNL     1     -37.274  25.886   3.590  0.00  0.00    +0.274 C 
BRANCH  29  30
ATOM     30  O   UNL     1     -36.527  25.655   4.766  0.00  0.00    -0.440 OA
BRANCH  30  32
ATOM     31  O   UNL     1     -34.988  27.281   4.195  0.00  0.00    -0.250 OA
ATOM     32  C   UNL     1     -35.324  26.307   4.856  0.00  0.00    +0.318 C 
ATOM     33  C   UNL     1     -34.458  25.657   5.892  0.00  0.00    +0.121 C 
ENDBRANCH  30  32
ENDBRANCH  29  30
ENDBRANCH  28  29
ENDBRANCH   7  28
TORSDOF 5
ENDMDL
MODEL 9
REMARK VINA RESULT:      -6.3      1.965      2.508
REMARK  Name = 189821
REMARK  5 active torsions:
REMARK  status: ('A' for Active; 'I' for Inactive)
REMARK    1  A    between atoms: C_7  and  C_28
REMARK    2  A    between atoms: C_12  and  O_25
REMARK    3  A    between atoms: C_28  and  C_29
REMARK    4  A    between atoms: C_29  and  O_30
REMARK    5  A    between atoms: O_30  and  C_32
REMARK                            x       y       z     vdW  Elec       q    Type
REMARK                         _______ _______ _______ _____ _____    ______ ____
ROOT
ATOM      1  O   UNL     1     -36.554  23.626   4.619  0.00  0.00    -0.465 OA
ATOM      2  O   UNL     1     -29.066  18.744   0.272  0.00  0.00    -0.287 OA
ATOM      3  N   UNL     1     -35.188  24.948   3.343  0.00  0.00    -0.235 NA
ATOM      4  C   UNL     1     -35.637  23.586   1.263  0.00  0.00    +0.031 C 
ATOM      5  C   UNL     1     -35.299  22.265   1.991  0.00  0.00    +0.006 C 
ATOM      6  C   UNL     1     -34.757  21.172   1.058  0.00  0.00    +0.003 C 
ATOM      7  C   UNL     1     -36.222  24.412   2.438  0.00  0.00    +0.178 C 
ATOM      8  C   UNL     1     -33.438  21.696   0.385  0.00  0.00    +0.034 C 
ATOM      9  C   UNL     1     -36.556  21.986   2.817  0.00  0.00    +0.046 C 
ATOM     10  C   UNL     1     -34.336  24.121   0.633  0.00  0.00    +0.032 C 
ATOM     11  C   UNL     1     -36.997  23.388   3.287  0.00  0.00    +0.194 C 
ATOM     12  C   UNL     1     -33.639  23.093  -0.286  0.00  0.00    +0.111 C 
ATOM     13  C   UNL     1     -32.746  20.591  -0.508  0.00  0.00    +0.036 C 
ATOM     14  C   UNL     1     -34.502  19.873   1.843  0.00  0.00    +0.004 C 
ATOM     15  C   UNL     1     -36.735  23.416   0.173  0.00  0.00    +0.002 C 
ATOM     16  C   UNL     1     -33.840  18.800   0.988  0.00  0.00    +0.022 C 
ATOM     17  C   UNL     1     -32.581  19.339   0.360  0.00  0.00    -0.038 C 
ATOM     18  C   UNL     1     -33.555  20.200  -1.766  0.00  0.00    +0.009 C 
ATOM     19  C   UNL     1     -31.400  21.094  -1.008  0.00  0.00    -0.020 C 
ATOM     20  C   UNL     1     -35.507  24.470   4.501  0.00  0.00    +0.196 C 
ATOM     21  C   UNL     1     -31.399  18.753   0.608  0.00  0.00    +0.034 C 
ATOM     22  C   UNL     1     -30.220  20.517  -0.764  0.00  0.00    +0.038 C 
ATOM     23  C   UNL     1     -34.788  24.753   5.769  0.00  0.00    +0.094 C 
ATOM     24  C   UNL     1     -30.140  19.293   0.054  0.00  0.00    +0.195 C 
ENDROOT
BRANCH  12  25
ATOM     25  O   UNL     1     -34.360  22.980  -1.505  0.00  0.00    -0.384 OA
ATOM     26  H   UNL     1     -34.130  23.722  -2.087  0.00  0.00    +0.210 HD
ENDBRANCH  12  25
BRANCH   7  28
ATOM     27  O   UNL     1     -38.274  25.547   2.001  0.00  0.00    -0.290 OA
ATOM     28  C   UNL     1     -37.046  25.600   2.033  0.00  0.00    +0.218 C 
BRANCH  28  29
ATOM     29  C   UNL     1     -36.278  26.855   1.670  0.00  0.00    +0.274 C 
BRANCH  29  30
ATOM     30  O   UNL     1     -36.442  27.161   0.301  0.00  0.00    -0.440 OA
BRANCH  30  32
ATOM     31  O   UNL     1     -38.228  28.615   0.486  0.00  0.00    -0.250 OA
ATOM     32  C   UNL     1     -37.140  28.307   0.017  0.00  0.00    +0.318 C 
ATOM     33  C   UNL     1     -36.380  29.148  -0.963  0.00  0.00    +0.121 C 
ENDBRANCH  30  32
ENDBRANCH  29  30
ENDBRANCH  28  29
ENDBRANCH   7  28
TORSDOF 5
ENDMDL
