MODEL 1
REMARK VINA RESULT:      -6.5      0.000      0.000
REMARK  Name = 5282210
REMARK  4 active torsions:
REMARK  status: ('A' for Active; 'I' for Inactive)
REMARK    1  A    between atoms: N_2  and  N_5
REMARK    2  A    between atoms: C_3  and  C_16
REMARK    3  A    between atoms: C_19  and  S_22
REMARK    4  A    between atoms: S_22  and  N_25
REMARK                            x       y       z     vdW  Elec       q    Type
REMARK                         _______ _______ _______ _____ _____    ______ ____
ROOT
ATOM      1  O   UNL     1     -35.182  20.265   3.358  0.00  0.00    -0.269 OA
ATOM      2  N   UNL     1     -35.085  21.867   1.683  0.00  0.00    -0.243 N 
ATOM      3  C   UNL     1     -35.076  20.573   2.174  0.00  0.00    +0.259 C 
ATOM      4  H   UNL     1     -34.994  22.038   0.718  0.00  0.00    +0.170 HD
ENDROOT
BRANCH   2   5
ATOM      5  N   UNL     1     -35.221  22.912   2.569  0.00  0.00    -0.206 NA
ATOM      6  C   UNL     1     -36.558  24.703   3.322  0.00  0.00    +0.019 C 
ATOM      7  C   UNL     1     -35.178  25.249   2.891  0.00  0.00    +0.019 C 
ATOM      8  C   UNL     1     -36.532  24.886   4.859  0.00  0.00    +0.001 C 
ATOM      9  C   UNL     1     -34.544  25.671   4.239  0.00  0.00    +0.001 C 
ATOM     10  C   UNL     1     -35.774  26.214   4.975  0.00  0.00    +0.000 C 
ATOM     11  C   UNL     1     -35.550  23.930   5.557  0.00  0.00    +0.000 C 
ATOM     12  C   UNL     1     -34.179  24.472   5.129  0.00  0.00    +0.000 C 
ATOM     13  C   UNL     1     -36.625  23.291   2.751  0.00  0.00    +0.092 C 
ATOM     14  C   UNL     1     -34.532  24.118   2.099  0.00  0.00    +0.092 C 
ENDBRANCH   2   5
BRANCH   3  16
ATOM     15 CL   UNL     1     -34.432  16.272  -1.917  0.00  0.00    -0.081 Cl
ATOM     16  C   UNL     1     -34.903  19.501   1.159  0.00  0.00    +0.056 C 
ATOM     17  C   UNL     1     -33.696  18.835   1.093  0.00  0.00    +0.025 C 
ATOM     18  C   UNL     1     -35.954  19.205   0.317  0.00  0.00    +0.005 C 
ATOM     19  C   UNL     1     -33.533  17.829   0.142  0.00  0.00    +0.132 C 
ATOM     20  C   UNL     1     -35.792  18.197  -0.634  0.00  0.00    +0.013 C 
ATOM     21  C   UNL     1     -34.582  17.510  -0.722  0.00  0.00    +0.076 C 
BRANCH  19  22
ATOM     22  S   UNL     1     -31.991  16.999   0.078  0.00  0.00    +0.058 S 
ATOM     23  O   UNL     1     -32.226  15.587   0.333  0.00  0.00    -0.153 OA
ATOM     24  O   UNL     1     -31.299  17.414  -1.132  0.00  0.00    -0.153 OA
BRANCH  22  25
ATOM     25  N   UNL     1     -31.203  17.684   1.428  0.00  0.00    -0.203 NA
ATOM     26  H   UNL     1     -30.861  18.614   1.186  0.00  0.00    +0.144 HD
ATOM     27  H   UNL     1     -30.417  17.093   1.700  0.00  0.00    +0.144 HD
ENDBRANCH  22  25
ENDBRANCH  19  22
ENDBRANCH   3  16
TORSDOF 4
ENDMDL
MODEL 2
REMARK VINA RESULT:      -6.5      2.549      3.276
REMARK  Name = 5282210
REMARK  4 active torsions:
REMARK  status: ('A' for Active; 'I' for Inactive)
REMARK    1  A    between atoms: N_2  and  N_5
REMARK    2  A    between atoms: C_3  and  C_16
REMARK    3  A    between atoms: C_19  and  S_22
REMARK    4  A    between atoms: S_22  and  N_25
REMARK                            x       y       z     vdW  Elec       q    Type
REMARK                         _______ _______ _______ _____ _____    ______ ____
ROOT
ATOM      1  O   UNL     1     -34.279  21.971   0.957  0.00  0.00    -0.269 OA
ATOM      2  N   UNL     1     -35.427  21.174   2.809  0.00  0.00    -0.243 N 
ATOM      3  C   UNL     1     -34.812  21.052   1.574  0.00  0.00    +0.259 C 
ATOM      4  H   UNL     1     -35.835  20.391   3.245  0.00  0.00    +0.170 HD
ENDROOT
BRANCH   2   5
ATOM      5  N   UNL     1     -35.458  22.409   3.416  0.00  0.00    -0.206 NA
ATOM      6  C   UNL     1     -35.803  23.624   5.409  0.00  0.00    +0.019 C 
ATOM      7  C   UNL     1     -36.790  24.128   4.331  0.00  0.00    +0.019 C 
ATOM      8  C   UNL     1     -34.837  24.822   5.573  0.00  0.00    +0.001 C 
ATOM      9  C   UNL     1     -36.257  25.548   4.021  0.00  0.00    +0.001 C 
ATOM     10  C   UNL     1     -35.810  25.996   5.418  0.00  0.00    +0.000 C 
ATOM     11  C   UNL     1     -33.932  25.031   4.348  0.00  0.00    +0.000 C 
ATOM     12  C   UNL     1     -34.911  25.532   3.277  0.00  0.00    +0.000 C 
ATOM     13  C   UNL     1     -35.257  22.309   4.865  0.00  0.00    +0.092 C 
ATOM     14  C   UNL     1     -36.752  23.074   3.231  0.00  0.00    +0.092 C 
ENDBRANCH   2   5
BRANCH   3  16
ATOM     15 CL   UNL     1     -34.865  15.589  -0.834  0.00  0.00    -0.081 Cl
ATOM     16  C   UNL     1     -34.839  19.694   0.973  0.00  0.00    +0.056 C 
ATOM     17  C   UNL     1     -36.024  19.221   0.448  0.00  0.00    +0.025 C 
ATOM     18  C   UNL     1     -33.678  18.950   0.958  0.00  0.00    +0.005 C 
ATOM     19  C   UNL     1     -36.049  17.947  -0.117  0.00  0.00    +0.132 C 
ATOM     20  C   UNL     1     -33.702  17.675   0.391  0.00  0.00    +0.013 C 
ATOM     21  C   UNL     1     -34.888  17.173  -0.145  0.00  0.00    +0.076 C 
BRANCH  19  22
ATOM     22  S   UNL     1     -37.566  17.369  -0.776  0.00  0.00    +0.058 S 
ATOM     23  O   UNL     1     -37.422  17.265  -2.220  0.00  0.00    -0.153 OA
ATOM     24  O   UNL     1     -37.990  16.212  -0.002  0.00  0.00    -0.153 OA
BRANCH  22  25
ATOM     25  N   UNL     1     -38.594  18.683  -0.413  0.00  0.00    -0.203 NA
ATOM     26  H   UNL     1     -38.602  19.334  -1.198  0.00  0.00    +0.144 HD
ATOM     27  H   UNL     1     -38.254  19.160   0.421  0.00  0.00    +0.144 HD
ENDBRANCH  22  25
ENDBRANCH  19  22
ENDBRANCH   3  16
TORSDOF 4
ENDMDL
MODEL 3
REMARK VINA RESULT:      -6.3      8.976     11.128
REMARK  Name = 5282210
REMARK  4 active torsions:
REMARK  status: ('A' for Active; 'I' for Inactive)
REMARK    1  A    between atoms: N_2  and  N_5
REMARK    2  A    between atoms: C_3  and  C_16
REMARK    3  A    between atoms: C_19  and  S_22
REMARK    4  A    between atoms: S_22  and  N_25
REMARK                            x       y       z     vdW  Elec       q    Type
REMARK                         _______ _______ _______ _____ _____    ______ ____
ROOT
ATOM      1  O   UNL     1     -41.947  28.715   4.505  0.00  0.00    -0.269 OA
ATOM      2  N   UNL     1     -44.065  27.773   4.432  0.00  0.00    -0.243 N 
ATOM      3  C   UNL     1     -42.723  27.853   4.103  0.00  0.00    +0.259 C 
ATOM      4  H   UNL     1     -44.628  27.051   4.070  0.00  0.00    +0.170 HD
ENDROOT
BRANCH   2   5
ATOM      5  N   UNL     1     -44.600  28.721   5.275  0.00  0.00    -0.206 NA
ATOM      6  C   UNL     1     -46.330  29.279   6.779  0.00  0.00    +0.019 C 
ATOM      7  C   UNL     1     -46.303  30.314   5.631  0.00  0.00    +0.019 C 
ATOM      8  C   UNL     1     -45.845  30.106   7.994  0.00  0.00    +0.001 C 
ATOM      9  C   UNL     1     -45.805  31.596   6.342  0.00  0.00    +0.001 C 
ATOM     10  C   UNL     1     -46.504  31.459   7.700  0.00  0.00    +0.000 C 
ATOM     11  C   UNL     1     -44.356  30.482   7.903  0.00  0.00    +0.000 C 
ATOM     12  C   UNL     1     -44.329  31.511   6.764  0.00  0.00    +0.000 C 
ATOM     13  C   UNL     1     -45.470  28.119   6.289  0.00  0.00    +0.092 C 
ATOM     14  C   UNL     1     -45.430  29.688   4.550  0.00  0.00    +0.092 C 
ENDBRANCH   2   5
BRANCH   3  16
ATOM     15 CL   UNL     1     -40.774  23.649   0.338  0.00  0.00    -0.081 Cl
ATOM     16  C   UNL     1     -42.225  26.808   3.171  0.00  0.00    +0.056 C 
ATOM     17  C   UNL     1     -40.913  26.396   3.272  0.00  0.00    +0.025 C 
ATOM     18  C   UNL     1     -43.092  26.282   2.236  0.00  0.00    +0.005 C 
ATOM     19  C   UNL     1     -40.446  25.415   2.399  0.00  0.00    +0.132 C 
ATOM     20  C   UNL     1     -42.625  25.300   1.362  0.00  0.00    +0.013 C 
ATOM     21  C   UNL     1     -41.302  24.867   1.443  0.00  0.00    +0.076 C 
BRANCH  19  22
ATOM     22  S   UNL     1     -38.774  24.909   2.547  0.00  0.00    +0.058 S 
ATOM     23  O   UNL     1     -38.757  23.544   3.049  0.00  0.00    -0.153 OA
ATOM     24  O   UNL     1     -38.086  25.237   1.308  0.00  0.00    -0.153 OA
BRANCH  22  25
ATOM     25  N   UNL     1     -38.230  25.961   3.777  0.00  0.00    -0.203 NA
ATOM     26  H   UNL     1     -37.242  25.785   3.961  0.00  0.00    +0.144 HD
ATOM     27  H   UNL     1     -38.769  25.797   4.627  0.00  0.00    +0.144 HD
ENDBRANCH  22  25
ENDBRANCH  19  22
ENDBRANCH   3  16
TORSDOF 4
ENDMDL
MODEL 4
REMARK VINA RESULT:      -6.3      1.008      1.566
REMARK  Name = 5282210
REMARK  4 active torsions:
REMARK  status: ('A' for Active; 'I' for Inactive)
REMARK    1  A    between atoms: N_2  and  N_5
REMARK    2  A    between atoms: C_3  and  C_16
REMARK    3  A    between atoms: C_19  and  S_22
REMARK    4  A    between atoms: S_22  and  N_25
REMARK                            x       y       z     vdW  Elec       q    Type
REMARK                         _______ _______ _______ _____ _____    ______ ____
ROOT
ATOM      1  O   UNL     1     -34.209  22.071   0.924  0.00  0.00    -0.269 OA
ATOM      2  N   UNL     1     -35.399  21.203   2.716  0.00  0.00    -0.243 N 
ATOM      3  C   UNL     1     -34.755  21.130   1.493  0.00  0.00    +0.259 C 
ATOM      4  H   UNL     1     -35.816  20.404   3.112  0.00  0.00    +0.170 HD
ENDROOT
BRANCH   2   5
ATOM      5  N   UNL     1     -35.448  22.414   3.369  0.00  0.00    -0.206 NA
ATOM      6  C   UNL     1     -35.823  23.550   5.403  0.00  0.00    +0.019 C 
ATOM      7  C   UNL     1     -36.804  24.086   4.335  0.00  0.00    +0.019 C 
ATOM      8  C   UNL     1     -34.869  24.749   5.622  0.00  0.00    +0.001 C 
ATOM      9  C   UNL     1     -36.280  25.521   4.084  0.00  0.00    +0.001 C 
ATOM     10  C   UNL     1     -35.852  25.921   5.501  0.00  0.00    +0.000 C 
ATOM     11  C   UNL     1     -33.954  25.012   4.413  0.00  0.00    +0.000 C 
ATOM     12  C   UNL     1     -34.928  25.545   3.353  0.00  0.00    +0.000 C 
ATOM     13  C   UNL     1     -35.259  22.261   4.815  0.00  0.00    +0.092 C 
ATOM     14  C   UNL     1     -36.746  23.075   3.197  0.00  0.00    +0.092 C 
ENDBRANCH   2   5
BRANCH   3  16
ATOM     15 CL   UNL     1     -34.847  15.771  -1.137  0.00  0.00    -0.081 Cl
ATOM     16  C   UNL     1     -34.764  19.795   0.840  0.00  0.00    +0.056 C 
ATOM     17  C   UNL     1     -33.582  19.089   0.751  0.00  0.00    +0.025 C 
ATOM     18  C   UNL     1     -35.954  19.304   0.345  0.00  0.00    +0.005 C 
ATOM     19  C   UNL     1     -33.591  17.837   0.139  0.00  0.00    +0.132 C 
ATOM     20  C   UNL     1     -35.964  18.050  -0.267  0.00  0.00    +0.013 C 
ATOM     21  C   UNL     1     -34.782  17.317  -0.370  0.00  0.00    +0.076 C 
BRANCH  19  22
ATOM     22  S   UNL     1     -32.077  16.960   0.037  0.00  0.00    +0.058 S 
ATOM     23  O   UNL     1     -32.337  15.568   0.369  0.00  0.00    -0.153 OA
ATOM     24  O   UNL     1     -31.436  17.299  -1.224  0.00  0.00    -0.153 OA
BRANCH  22  25
ATOM     25  N   UNL     1     -31.203  17.682   1.313  0.00  0.00    -0.203 NA
ATOM     26  H   UNL     1     -31.519  17.295   2.202  0.00  0.00    +0.144 HD
ATOM     27  H   UNL     1     -31.361  18.690   1.306  0.00  0.00    +0.144 HD
ENDBRANCH  22  25
ENDBRANCH  19  22
ENDBRANCH   3  16
TORSDOF 4
ENDMDL
MODEL 5
REMARK VINA RESULT:      -6.1      5.933      7.916
REMARK  Name = 5282210
REMARK  4 active torsions:
REMARK  status: ('A' for Active; 'I' for Inactive)
REMARK    1  A    between atoms: N_2  and  N_5
REMARK    2  A    between atoms: C_3  and  C_16
REMARK    3  A    between atoms: C_19  and  S_22
REMARK    4  A    between atoms: S_22  and  N_25
REMARK                            x       y       z     vdW  Elec       q    Type
REMARK                         _______ _______ _______ _____ _____    ______ ____
ROOT
ATOM      1  O   UNL     1     -33.710  26.586   5.966  0.00  0.00    -0.269 OA
ATOM      2  N   UNL     1     -33.417  27.317   3.783  0.00  0.00    -0.243 N 
ATOM      3  C   UNL     1     -33.942  26.492   4.763  0.00  0.00    +0.259 C 
ATOM      4  H   UNL     1     -33.648  27.181   2.836  0.00  0.00    +0.170 HD
ENDROOT
BRANCH   2   5
ATOM      5  N   UNL     1     -32.565  28.332   4.157  0.00  0.00    -0.206 NA
ATOM      6  C   UNL     1     -31.623  30.424   3.608  0.00  0.00    +0.019 C 
ATOM      7  C   UNL     1     -30.487  29.395   3.813  0.00  0.00    +0.019 C 
ATOM      8  C   UNL     1     -31.457  31.362   4.828  0.00  0.00    +0.001 C 
ATOM      9  C   UNL     1     -29.823  29.881   5.124  0.00  0.00    +0.001 C 
ATOM     10  C   UNL     1     -29.929  31.401   4.952  0.00  0.00    +0.000 C 
ATOM     11  C   UNL     1     -31.839  30.687   6.156  0.00  0.00    +0.000 C 
ATOM     12  C   UNL     1     -30.711  29.666   6.360  0.00  0.00    +0.000 C 
ATOM     13  C   UNL     1     -32.896  29.594   3.488  0.00  0.00    +0.092 C 
ATOM     14  C   UNL     1     -31.175  28.035   3.799  0.00  0.00    +0.092 C 
ENDBRANCH   2   5
BRANCH   3  16
ATOM     15 CL   UNL     1     -37.492  22.093   2.840  0.00  0.00    -0.081 Cl
ATOM     16  C   UNL     1     -34.834  25.406   4.280  0.00  0.00    +0.056 C 
ATOM     17  C   UNL     1     -35.992  25.744   3.611  0.00  0.00    +0.025 C 
ATOM     18  C   UNL     1     -34.476  24.095   4.515  0.00  0.00    +0.005 C 
ATOM     19  C   UNL     1     -36.830  24.726   3.157  0.00  0.00    +0.132 C 
ATOM     20  C   UNL     1     -35.313  23.076   4.060  0.00  0.00    +0.013 C 
ATOM     21  C   UNL     1     -36.490  23.391   3.382  0.00  0.00    +0.076 C 
BRANCH  19  22
ATOM     22  S   UNL     1     -38.295  25.181   2.311  0.00  0.00    +0.058 S 
ATOM     23  O   UNL     1     -38.204  24.682   0.947  0.00  0.00    -0.153 OA
ATOM     24  O   UNL     1     -39.433  24.823   3.142  0.00  0.00    -0.153 OA
BRANCH  22  25
ATOM     25  N   UNL     1     -38.138  26.881   2.291  0.00  0.00    -0.203 NA
ATOM     26  H   UNL     1     -39.026  27.307   2.555  0.00  0.00    +0.144 HD
ATOM     27  H   UNL     1     -37.878  27.188   1.354  0.00  0.00    +0.144 HD
ENDBRANCH  22  25
ENDBRANCH  19  22
ENDBRANCH   3  16
TORSDOF 4
ENDMDL
MODEL 6
REMARK VINA RESULT:      -6.0      2.538      3.057
REMARK  Name = 5282210
REMARK  4 active torsions:
REMARK  status: ('A' for Active; 'I' for Inactive)
REMARK    1  A    between atoms: N_2  and  N_5
REMARK    2  A    between atoms: C_3  and  C_16
REMARK    3  A    between atoms: C_19  and  S_22
REMARK    4  A    between atoms: S_22  and  N_25
REMARK                            x       y       z     vdW  Elec       q    Type
REMARK                         _______ _______ _______ _____ _____    ______ ____
ROOT
ATOM      1  O   UNL     1     -35.027  21.582   1.370  0.00  0.00    -0.269 OA
ATOM      2  N   UNL     1     -37.010  22.203   2.402  0.00  0.00    -0.243 N 
ATOM      3  C   UNL     1     -36.238  21.452   1.532  0.00  0.00    +0.259 C 
ATOM      4  H   UNL     1     -37.978  22.042   2.479  0.00  0.00    +0.170 HD
ENDROOT
BRANCH   2   5
ATOM      5  N   UNL     1     -36.400  23.178   3.158  0.00  0.00    -0.206 NA
ATOM      6  C   UNL     1     -35.717  23.877   5.306  0.00  0.00    +0.019 C 
ATOM      7  C   UNL     1     -36.672  24.936   4.708  0.00  0.00    +0.019 C 
ATOM      8  C   UNL     1     -34.354  24.610   5.309  0.00  0.00    +0.001 C 
ATOM      9  C   UNL     1     -35.728  26.135   4.448  0.00  0.00    +0.001 C 
ATOM     10  C   UNL     1     -34.798  26.035   5.663  0.00  0.00    +0.000 C 
ATOM     11  C   UNL     1     -33.789  24.825   3.895  0.00  0.00    +0.000 C 
ATOM     12  C   UNL     1     -34.737  25.877   3.301  0.00  0.00    +0.000 C 
ATOM     13  C   UNL     1     -35.887  22.645   4.424  0.00  0.00    +0.092 C 
ATOM     14  C   UNL     1     -37.333  24.251   3.518  0.00  0.00    +0.092 C 
ENDBRANCH   2   5
BRANCH   3  16
ATOM     15 CL   UNL     1     -39.226  17.397  -1.673  0.00  0.00    -0.081 Cl
ATOM     16  C   UNL     1     -36.970  20.435   0.735  0.00  0.00    +0.056 C 
ATOM     17  C   UNL     1     -36.364  19.221   0.486  0.00  0.00    +0.025 C 
ATOM     18  C   UNL     1     -38.233  20.736   0.270  0.00  0.00    +0.005 C 
ATOM     19  C   UNL     1     -37.052  18.266  -0.261  0.00  0.00    +0.132 C 
ATOM     20  C   UNL     1     -38.922  19.780  -0.477  0.00  0.00    +0.013 C 
ATOM     21  C   UNL     1     -38.331  18.546  -0.743  0.00  0.00    +0.076 C 
BRANCH  19  22
ATOM     22  S   UNL     1     -36.260  16.732  -0.565  0.00  0.00    +0.058 S 
ATOM     23  O   UNL     1     -37.025  15.689   0.101  0.00  0.00    -0.153 OA
ATOM     24  O   UNL     1     -35.983  16.634  -1.989  0.00  0.00    -0.153 OA
BRANCH  22  25
ATOM     25  N   UNL     1     -34.789  16.961   0.270  0.00  0.00    -0.203 NA
ATOM     26  H   UNL     1     -34.122  16.244  -0.014  0.00  0.00    +0.144 HD
ATOM     27  H   UNL     1     -34.953  16.894   1.274  0.00  0.00    +0.144 HD
ENDBRANCH  22  25
ENDBRANCH  19  22
ENDBRANCH   3  16
TORSDOF 4
ENDMDL
MODEL 7
REMARK VINA RESULT:      -6.0      8.254     11.419
REMARK  Name = 5282210
REMARK  4 active torsions:
REMARK  status: ('A' for Active; 'I' for Inactive)
REMARK    1  A    between atoms: N_2  and  N_5
REMARK    2  A    between atoms: C_3  and  C_16
REMARK    3  A    between atoms: C_19  and  S_22
REMARK    4  A    between atoms: S_22  and  N_25
REMARK                            x       y       z     vdW  Elec       q    Type
REMARK                         _______ _______ _______ _____ _____    ______ ____
ROOT
ATOM      1  O   UNL     1     -34.066  29.762   3.871  0.00  0.00    -0.269 OA
ATOM      2  N   UNL     1     -35.618  28.715   2.500  0.00  0.00    -0.243 N 
ATOM      3  C   UNL     1     -34.888  29.799   2.958  0.00  0.00    +0.259 C 
ATOM      4  H   UNL     1     -36.262  28.820   1.763  0.00  0.00    +0.170 HD
ENDROOT
BRANCH   2   5
ATOM      5  N   UNL     1     -35.430  27.488   3.095  0.00  0.00    -0.206 NA
ATOM      6  C   UNL     1     -34.404  25.368   2.969  0.00  0.00    +0.019 C 
ATOM      7  C   UNL     1     -35.935  25.184   3.076  0.00  0.00    +0.019 C 
ATOM      8  C   UNL     1     -33.902  24.845   4.337  0.00  0.00    +0.001 C 
ATOM      9  C   UNL     1     -36.106  24.582   4.491  0.00  0.00    +0.001 C 
ATOM     10  C   UNL     1     -34.870  23.679   4.569  0.00  0.00    +0.000 C 
ATOM     11  C   UNL     1     -34.280  25.772   5.504  0.00  0.00    +0.000 C 
ATOM     12  C   UNL     1     -35.801  25.590   5.611  0.00  0.00    +0.000 C 
ATOM     13  C   UNL     1     -34.202  26.839   2.625  0.00  0.00    +0.092 C 
ATOM     14  C   UNL     1     -36.523  26.560   2.788  0.00  0.00    +0.092 C 
ENDBRANCH   2   5
BRANCH   3  16
ATOM     15 CL   UNL     1     -35.941  35.012   0.245  0.00  0.00    -0.081 Cl
ATOM     16  C   UNL     1     -35.163  31.093   2.282  0.00  0.00    +0.056 C 
ATOM     17  C   UNL     1     -36.469  31.421   1.978  0.00  0.00    +0.025 C 
ATOM     18  C   UNL     1     -34.106  31.925   1.981  0.00  0.00    +0.005 C 
ATOM     19  C   UNL     1     -36.727  32.636   1.345  0.00  0.00    +0.132 C 
ATOM     20  C   UNL     1     -34.364  33.141   1.348  0.00  0.00    +0.013 C 
ATOM     21  C   UNL     1     -35.675  33.496   1.030  0.00  0.00    +0.076 C 
BRANCH  19  22
ATOM     22  S   UNL     1     -38.393  33.029   0.969  0.00  0.00    +0.058 S 
ATOM     23  O   UNL     1     -38.442  33.531  -0.396  0.00  0.00    -0.153 OA
ATOM     24  O   UNL     1     -39.228  31.905   1.361  0.00  0.00    -0.153 OA
BRANCH  22  25
ATOM     25  N   UNL     1     -38.666  34.325   2.046  0.00  0.00    -0.203 NA
ATOM     26  H   UNL     1     -37.803  34.540   2.545  0.00  0.00    +0.144 HD
ATOM     27  H   UNL     1     -39.390  34.064   2.716  0.00  0.00    +0.144 HD
ENDBRANCH  22  25
ENDBRANCH  19  22
ENDBRANCH   3  16
TORSDOF 4
ENDMDL
MODEL 8
REMARK VINA RESULT:      -5.9      6.202      8.317
REMARK  Name = 5282210
REMARK  4 active torsions:
REMARK  status: ('A' for Active; 'I' for Inactive)
REMARK    1  A    between atoms: N_2  and  N_5
REMARK    2  A    between atoms: C_3  and  C_16
REMARK    3  A    between atoms: C_19  and  S_22
REMARK    4  A    between atoms: S_22  and  N_25
REMARK                            x       y       z     vdW  Elec       q    Type
REMARK                         _______ _______ _______ _____ _____    ______ ____
ROOT
ATOM      1  O   UNL     1     -32.255  26.138   3.187  0.00  0.00    -0.269 OA
ATOM      2  N   UNL     1     -33.475  27.597   4.515  0.00  0.00    -0.243 N 
ATOM      3  C   UNL     1     -33.310  26.478   3.717  0.00  0.00    +0.259 C 
ATOM      4  H   UNL     1     -34.353  27.808   4.907  0.00  0.00    +0.170 HD
ENDROOT
BRANCH   2   5
ATOM      5  N   UNL     1     -32.390  28.411   4.750  0.00  0.00    -0.206 NA
ATOM      6  C   UNL     1     -31.187  29.698   6.320  0.00  0.00    +0.019 C 
ATOM      7  C   UNL     1     -31.611  30.604   5.141  0.00  0.00    +0.019 C 
ATOM      8  C   UNL     1     -29.653  29.606   6.144  0.00  0.00    +0.001 C 
ATOM      9  C   UNL     1     -30.262  30.908   4.445  0.00  0.00    +0.001 C 
ATOM     10  C   UNL     1     -29.335  31.026   5.661  0.00  0.00    +0.000 C 
ATOM     11  C   UNL     1     -29.242  28.782   4.911  0.00  0.00    +0.000 C 
ATOM     12  C   UNL     1     -29.662  29.681   3.740  0.00  0.00    +0.000 C 
ATOM     13  C   UNL     1     -32.022  28.432   6.169  0.00  0.00    +0.092 C 
ATOM     14  C   UNL     1     -32.663  29.804   4.382  0.00  0.00    +0.092 C 
ENDBRANCH   2   5
BRANCH   3  16
ATOM     15 CL   UNL     1     -38.191  23.157   2.829  0.00  0.00    -0.081 Cl
ATOM     16  C   UNL     1     -34.531  25.662   3.492  0.00  0.00    +0.056 C 
ATOM     17  C   UNL     1     -35.625  26.253   2.893  0.00  0.00    +0.025 C 
ATOM     18  C   UNL     1     -34.532  24.341   3.886  0.00  0.00    +0.005 C 
ATOM     19  C   UNL     1     -36.771  25.488   2.681  0.00  0.00    +0.132 C 
ATOM     20  C   UNL     1     -35.678  23.575   3.673  0.00  0.00    +0.013 C 
ATOM     21  C   UNL     1     -36.797  24.148   3.070  0.00  0.00    +0.076 C 
BRANCH  19  22
ATOM     22  S   UNL     1     -38.147  26.261   1.920  0.00  0.00    +0.058 S 
ATOM     23  O   UNL     1     -37.752  27.605   1.530  0.00  0.00    -0.153 OA
ATOM     24  O   UNL     1     -38.695  25.347   0.930  0.00  0.00    -0.153 OA
BRANCH  22  25
ATOM     25  N   UNL     1     -39.227  26.360   3.239  0.00  0.00    -0.203 NA
ATOM     26  H   UNL     1     -39.375  27.339   3.484  0.00  0.00    +0.144 HD
ATOM     27  H   UNL     1     -38.834  25.865   4.039  0.00  0.00    +0.144 HD
ENDBRANCH  22  25
ENDBRANCH  19  22
ENDBRANCH   3  16
TORSDOF 4
ENDMDL
MODEL 9
REMARK VINA RESULT:      -5.8      5.134      7.488
REMARK  Name = 5282210
REMARK  4 active torsions:
REMARK  status: ('A' for Active; 'I' for Inactive)
REMARK    1  A    between atoms: N_2  and  N_5
REMARK    2  A    between atoms: C_3  and  C_16
REMARK    3  A    between atoms: C_19  and  S_22
REMARK    4  A    between atoms: S_22  and  N_25
REMARK                            x       y       z     vdW  Elec       q    Type
REMARK                         _______ _______ _______ _____ _____    ______ ____
ROOT
ATOM      1  O   UNL     1     -34.109  26.785   1.826  0.00  0.00    -0.269 OA
ATOM      2  N   UNL     1     -34.124  28.010   3.797  0.00  0.00    -0.243 N 
ATOM      3  C   UNL     1     -34.247  26.854   3.045  0.00  0.00    +0.259 C 
ATOM      4  H   UNL     1     -34.250  27.989   4.773  0.00  0.00    +0.170 HD
ENDROOT
BRANCH   2   5
ATOM      5  N   UNL     1     -33.823  29.190   3.155  0.00  0.00    -0.206 NA
ATOM      6  C   UNL     1     -33.042  31.407   3.358  0.00  0.00    +0.019 C 
ATOM      7  C   UNL     1     -34.452  31.423   2.726  0.00  0.00    +0.019 C 
ATOM      8  C   UNL     1     -32.137  31.850   2.183  0.00  0.00    +0.001 C 
ATOM      9  C   UNL     1     -34.168  31.872   1.272  0.00  0.00    +0.001 C 
ATOM     10  C   UNL     1     -33.040  32.885   1.502  0.00  0.00    +0.000 C 
ATOM     11  C   UNL     1     -32.032  30.786   1.077  0.00  0.00    +0.000 C 
ATOM     12  C   UNL     1     -33.433  30.802   0.449  0.00  0.00    +0.000 C 
ATOM     13  C   UNL     1     -32.874  30.001   3.924  0.00  0.00    +0.092 C 
ATOM     14  C   UNL     1     -35.012  30.026   2.966  0.00  0.00    +0.092 C 
ENDBRANCH   2   5
BRANCH   3  16
ATOM     15 CL   UNL     1     -35.636  21.945   6.147  0.00  0.00    -0.081 Cl
ATOM     16  C   UNL     1     -34.596  25.626   3.805  0.00  0.00    +0.056 C 
ATOM     17  C   UNL     1     -34.921  24.480   3.108  0.00  0.00    +0.025 C 
ATOM     18  C   UNL     1     -34.582  25.669   5.183  0.00  0.00    +0.005 C 
ATOM     19  C   UNL     1     -35.247  23.328   3.821  0.00  0.00    +0.132 C 
ATOM     20  C   UNL     1     -34.908  24.516   5.898  0.00  0.00    +0.013 C 
ATOM     21  C   UNL     1     -35.240  23.346   5.216  0.00  0.00    +0.076 C 
BRANCH  19  22
ATOM     22  S   UNL     1     -35.657  21.887   2.912  0.00  0.00    +0.058 S 
ATOM     23  O   UNL     1     -35.245  22.089   1.532  0.00  0.00    -0.153 OA
ATOM     24  O   UNL     1     -35.179  20.729   3.652  0.00  0.00    -0.153 OA
BRANCH  22  25
ATOM     25  N   UNL     1     -37.362  21.930   2.996  0.00  0.00    -0.203 NA
ATOM     26  H   UNL     1     -37.693  21.165   3.582  0.00  0.00    +0.144 HD
ATOM     27  H   UNL     1     -37.751  21.833   2.058  0.00  0.00    +0.144 HD
ENDBRANCH  22  25
ENDBRANCH  19  22
ENDBRANCH   3  16
TORSDOF 4
ENDMDL
