MODEL 1
REMARK VINA RESULT:      -5.8      0.000      0.000
REMARK  Name = 195681
REMARK  6 active torsions:
REMARK  status: ('A' for Active; 'I' for Inactive)
REMARK    1  A    between atoms: O_1  and  C_8
REMARK    2  A    between atoms: O_1  and  C_20
REMARK    3  A    between atoms: C_6  and  O_10
REMARK    4  A    between atoms: C_7  and  O_12
REMARK    5  A    between atoms: C_18  and  O_22
REMARK    6  A    between atoms: C_19  and  O_24
REMARK                            x       y       z     vdW  Elec       q    Type
REMARK                         _______ _______ _______ _____ _____    ______ ____
ROOT
ATOM      1  O   UNL     1     -33.266  27.729   4.704  0.00  0.00    -0.302 OA
ENDROOT
BRANCH   1   8
ATOM      2  O   UNL     1     -33.282  25.484   3.953  0.00  0.00    -0.326 OA
ATOM      3  O   UNL     1     -35.737  26.433   5.490  0.00  0.00    -0.348 OA
ATOM      4  C   UNL     1     -35.995  26.150   4.094  0.00  0.00    +0.176 C 
ATOM      5  C   UNL     1     -34.275  24.759   4.699  0.00  0.00    +0.176 C 
ATOM      6  C   UNL     1     -35.558  24.707   3.901  0.00  0.00    +0.170 C 
ATOM      7  C   UNL     1     -35.074  27.023   3.233  0.00  0.00    +0.197 C 
ATOM      8  C   UNL     1     -33.598  26.849   3.630  0.00  0.00    +0.268 C 
ATOM      9  C   UNL     1     -34.726  25.506   5.948  0.00  0.00    +0.174 C 
BRANCH   6  10
ATOM     10  O   UNL     1     -36.486  23.813   4.492  0.00  0.00    -0.379 OA
ATOM     11  H   UNL     1     -36.028  22.999   4.756  0.00  0.00    +0.211 HD
ENDBRANCH   6  10
BRANCH   7  12
ATOM     12  O   UNL     1     -35.474  28.384   3.311  0.00  0.00    -0.378 OA
ATOM     13  H   UNL     1     -35.005  28.898   2.635  0.00  0.00    +0.211 HD
ENDBRANCH   7  12
ENDBRANCH   1   8
BRANCH   1  20
ATOM     14  O   UNL     1     -31.277  28.520   3.693  0.00  0.00    -0.326 OA
ATOM     15  O   UNL     1     -32.824  30.506   5.411  0.00  0.00    -0.348 OA
ATOM     16  C   UNL     1     -31.542  30.126   5.968  0.00  0.00    +0.176 C 
ATOM     17  C   UNL     1     -31.304  29.958   3.693  0.00  0.00    +0.176 C 
ATOM     18  C   UNL     1     -30.530  30.471   4.887  0.00  0.00    +0.170 C 
ATOM     19  C   UNL     1     -31.512  28.604   6.149  0.00  0.00    +0.197 C 
ATOM     20  C   UNL     1     -31.852  27.872   4.840  0.00  0.00    +0.268 C 
ATOM     21  C   UNL     1     -32.694  30.515   3.972  0.00  0.00    +0.174 C 
BRANCH  18  22
ATOM     22  O   UNL     1     -30.338  31.873   4.801  0.00  0.00    -0.379 OA
ATOM     23  H   UNL     1     -30.744  32.303   5.570  0.00  0.00    +0.211 HD
ENDBRANCH  18  22
BRANCH  19  24
ATOM     24  O   UNL     1     -32.387  28.218   7.201  0.00  0.00    -0.378 OA
ATOM     25  H   UNL     1     -32.334  27.258   7.330  0.00  0.00    +0.211 HD
ENDBRANCH  19  24
ENDBRANCH   1  20
TORSDOF 6
ENDMDL
MODEL 2
REMARK VINA RESULT:      -5.8      0.008      5.886
REMARK  Name = 195681
REMARK  6 active torsions:
REMARK  status: ('A' for Active; 'I' for Inactive)
REMARK    1  A    between atoms: O_1  and  C_8
REMARK    2  A    between atoms: O_1  and  C_20
REMARK    3  A    between atoms: C_6  and  O_10
REMARK    4  A    between atoms: C_7  and  O_12
REMARK    5  A    between atoms: C_18  and  O_22
REMARK    6  A    between atoms: C_19  and  O_24
REMARK                            x       y       z     vdW  Elec       q    Type
REMARK                         _______ _______ _______ _____ _____    ______ ____
ROOT
ATOM      1  O   UNL     1     -33.261  27.732   4.708  0.00  0.00    -0.302 OA
ENDROOT
BRANCH   1   8
ATOM      2  O   UNL     1     -31.272  28.523   3.697  0.00  0.00    -0.326 OA
ATOM      3  O   UNL     1     -32.824  30.512   5.407  0.00  0.00    -0.348 OA
ATOM      4  C   UNL     1     -31.541  30.136   5.966  0.00  0.00    +0.176 C 
ATOM      5  C   UNL     1     -31.301  29.961   3.692  0.00  0.00    +0.176 C 
ATOM      6  C   UNL     1     -30.530  30.478   4.885  0.00  0.00    +0.170 C 
ATOM      7  C   UNL     1     -31.510  28.614   6.152  0.00  0.00    +0.197 C 
ATOM      8  C   UNL     1     -31.848  27.877   4.845  0.00  0.00    +0.268 C 
ATOM      9  C   UNL     1     -32.692  30.517   3.968  0.00  0.00    +0.174 C 
BRANCH   6  10
ATOM     10  O   UNL     1     -30.339  31.880   4.795  0.00  0.00    -0.379 OA
ATOM     11  H   UNL     1     -29.591  32.068   4.207  0.00  0.00    +0.211 HD
ENDBRANCH   6  10
BRANCH   7  12
ATOM     12  O   UNL     1     -32.385  28.230   7.204  0.00  0.00    -0.378 OA
ATOM     13  H   UNL     1     -33.187  27.833   6.829  0.00  0.00    +0.211 HD
ENDBRANCH   7  12
ENDBRANCH   1   8
BRANCH   1  20
ATOM     14  O   UNL     1     -33.277  25.487   3.958  0.00  0.00    -0.326 OA
ATOM     15  O   UNL     1     -35.735  26.437   5.489  0.00  0.00    -0.348 OA
ATOM     16  C   UNL     1     -35.990  26.154   4.092  0.00  0.00    +0.176 C 
ATOM     17  C   UNL     1     -34.273  24.763   4.701  0.00  0.00    +0.176 C 
ATOM     18  C   UNL     1     -35.554  24.712   3.900  0.00  0.00    +0.170 C 
ATOM     19  C   UNL     1     -35.066  27.027   3.233  0.00  0.00    +0.197 C 
ATOM     20  C   UNL     1     -33.591  26.852   3.634  0.00  0.00    +0.268 C 
ATOM     21  C   UNL     1     -34.726  25.510   5.949  0.00  0.00    +0.174 C 
BRANCH  18  22
ATOM     22  O   UNL     1     -36.484  23.818   4.489  0.00  0.00    -0.379 OA
ATOM     23  H   UNL     1     -37.237  24.319   4.839  0.00  0.00    +0.211 HD
ENDBRANCH  18  22
BRANCH  19  24
ATOM     24  O   UNL     1     -35.466  28.388   3.310  0.00  0.00    -0.378 OA
ATOM     25  H   UNL     1     -36.410  28.461   3.095  0.00  0.00    +0.211 HD
ENDBRANCH  19  24
ENDBRANCH   1  20
TORSDOF 6
ENDMDL
MODEL 3
REMARK VINA RESULT:      -5.4      1.355      5.868
REMARK  Name = 195681
REMARK  6 active torsions:
REMARK  status: ('A' for Active; 'I' for Inactive)
REMARK    1  A    between atoms: O_1  and  C_8
REMARK    2  A    between atoms: O_1  and  C_20
REMARK    3  A    between atoms: C_6  and  O_10
REMARK    4  A    between atoms: C_7  and  O_12
REMARK    5  A    between atoms: C_18  and  O_22
REMARK    6  A    between atoms: C_19  and  O_24
REMARK                            x       y       z     vdW  Elec       q    Type
REMARK                         _______ _______ _______ _____ _____    ______ ____
ROOT
ATOM      1  O   UNL     1     -33.862  27.780   3.790  0.00  0.00    -0.302 OA
ENDROOT
BRANCH   1   8
ATOM      2  O   UNL     1     -32.574  28.915   2.160  0.00  0.00    -0.326 OA
ATOM      3  O   UNL     1     -34.019  30.645   4.212  0.00  0.00    -0.348 OA
ATOM      4  C   UNL     1     -32.576  30.672   4.336  0.00  0.00    +0.176 C 
ATOM      5  C   UNL     1     -33.000  30.288   2.115  0.00  0.00    +0.176 C 
ATOM      6  C   UNL     1     -32.076  31.124   2.973  0.00  0.00    +0.170 C 
ATOM      7  C   UNL     1     -32.070  29.241   4.554  0.00  0.00    +0.197 C 
ATOM      8  C   UNL     1     -32.572  28.290   3.455  0.00  0.00    +0.268 C 
ATOM      9  C   UNL     1     -34.338  30.507   2.809  0.00  0.00    +0.174 C 
BRANCH   6  10
ATOM     10  O   UNL     1     -32.317  32.507   2.778  0.00  0.00    -0.379 OA
ATOM     11  H   UNL     1     -31.526  32.923   2.401  0.00  0.00    +0.211 HD
ENDBRANCH   6  10
BRANCH   7  12
ATOM     12  O   UNL     1     -32.442  28.782   5.846  0.00  0.00    -0.378 OA
ATOM     13  H   UNL     1     -32.057  27.904   6.001  0.00  0.00    +0.211 HD
ENDBRANCH   7  12
ENDBRANCH   1   8
BRANCH   1  20
ATOM     14  O   UNL     1     -33.463  25.447   3.768  0.00  0.00    -0.326 OA
ATOM     15  O   UNL     1     -35.842  26.414   5.409  0.00  0.00    -0.348 OA
ATOM     16  C   UNL     1     -36.213  25.639   4.243  0.00  0.00    +0.176 C 
ATOM     17  C   UNL     1     -34.155  24.854   4.880  0.00  0.00    +0.176 C 
ATOM     18  C   UNL     1     -35.487  24.315   4.408  0.00  0.00    +0.170 C 
ATOM     19  C   UNL     1     -35.640  26.319   2.994  0.00  0.00    +0.197 C 
ATOM     20  C   UNL     1     -34.124  26.548   3.120  0.00  0.00    +0.268 C 
ATOM     21  C   UNL     1     -34.594  25.885   5.910  0.00  0.00    +0.174 C 
BRANCH  18  22
ATOM     22  O   UNL     1     -36.098  23.524   5.414  0.00  0.00    -0.379 OA
ATOM     23  H   UNL     1     -36.330  24.085   6.170  0.00  0.00    +0.211 HD
ENDBRANCH  18  22
BRANCH  19  24
ATOM     24  O   UNL     1     -36.328  27.536   2.738  0.00  0.00    -0.378 OA
ATOM     25  H   UNL     1     -37.122  27.582   3.294  0.00  0.00    +0.211 HD
ENDBRANCH  19  24
ENDBRANCH   1  20
TORSDOF 6
ENDMDL
MODEL 4
REMARK VINA RESULT:      -5.2      4.138      6.889
REMARK  Name = 195681
REMARK  6 active torsions:
REMARK  status: ('A' for Active; 'I' for Inactive)
REMARK    1  A    between atoms: O_1  and  C_8
REMARK    2  A    between atoms: O_1  and  C_20
REMARK    3  A    between atoms: C_6  and  O_10
REMARK    4  A    between atoms: C_7  and  O_12
REMARK    5  A    between atoms: C_18  and  O_22
REMARK    6  A    between atoms: C_19  and  O_24
REMARK                            x       y       z     vdW  Elec       q    Type
REMARK                         _______ _______ _______ _____ _____    ______ ____
ROOT
ATOM      1  O   UNL     1     -36.338  22.904   2.435  0.00  0.00    -0.302 OA
ENDROOT
BRANCH   1   8
ATOM      2  O   UNL     1     -37.253  21.678   0.628  0.00  0.00    -0.326 OA
ATOM      3  O   UNL     1     -34.274  21.317   1.160  0.00  0.00    -0.348 OA
ATOM      4  C   UNL     1     -35.063  20.133   1.429  0.00  0.00    +0.176 C 
ATOM      5  C   UNL     1     -36.178  21.257  -0.230  0.00  0.00    +0.176 C 
ATOM      6  C   UNL     1     -35.784  19.841   0.124  0.00  0.00    +0.170 C 
ATOM      7  C   UNL     1     -36.133  20.478   2.472  0.00  0.00    +0.197 C 
ATOM      8  C   UNL     1     -36.975  21.690   2.039  0.00  0.00    +0.268 C 
ATOM      9  C   UNL     1     -34.883  22.009   0.047  0.00  0.00    +0.174 C 
BRANCH   6  10
ATOM     10  O   UNL     1     -34.892  19.308  -0.840  0.00  0.00    -0.379 OA
ATOM     11  H   UNL     1     -34.004  19.239  -0.456  0.00  0.00    +0.211 HD
ENDBRANCH   6  10
BRANCH   7  12
ATOM     12  O   UNL     1     -35.530  20.693   3.741  0.00  0.00    -0.378 OA
ATOM     13  H   UNL     1     -35.346  21.639   3.856  0.00  0.00    +0.211 HD
ENDBRANCH   7  12
ENDBRANCH   1   8
BRANCH   1  20
ATOM     14  O   UNL     1     -36.705  23.343   4.732  0.00  0.00    -0.326 OA
ATOM     15  O   UNL     1     -34.697  25.132   3.299  0.00  0.00    -0.348 OA
ATOM     16  C   UNL     1     -35.904  25.820   3.709  0.00  0.00    +0.176 C 
ATOM     17  C   UNL     1     -35.608  24.129   5.229  0.00  0.00    +0.176 C 
ATOM     18  C   UNL     1     -35.993  25.591   5.209  0.00  0.00    +0.170 C 
ATOM     19  C   UNL     1     -37.112  25.124   3.070  0.00  0.00    +0.197 C 
ATOM     20  C   UNL     1     -37.128  23.618   3.385  0.00  0.00    +0.268 C 
ATOM     21  C   UNL     1     -34.411  24.118   4.288  0.00  0.00    +0.174 C 
BRANCH  18  22
ATOM     22  O   UNL     1     -35.035  26.376   5.899  0.00  0.00    -0.379 OA
ATOM     23  H   UNL     1     -34.489  25.802   6.459  0.00  0.00    +0.211 HD
ENDBRANCH  18  22
BRANCH  19  24
ATOM     24  O   UNL     1     -37.130  25.360   1.670  0.00  0.00    -0.378 OA
ATOM     25  H   UNL     1     -36.943  26.296   1.497  0.00  0.00    +0.211 HD
ENDBRANCH  19  24
ENDBRANCH   1  20
TORSDOF 6
ENDMDL
MODEL 5
REMARK VINA RESULT:      -5.2      3.594      7.679
REMARK  Name = 195681
REMARK  6 active torsions:
REMARK  status: ('A' for Active; 'I' for Inactive)
REMARK    1  A    between atoms: O_1  and  C_8
REMARK    2  A    between atoms: O_1  and  C_20
REMARK    3  A    between atoms: C_6  and  O_10
REMARK    4  A    between atoms: C_7  and  O_12
REMARK    5  A    between atoms: C_18  and  O_22
REMARK    6  A    between atoms: C_19  and  O_24
REMARK                            x       y       z     vdW  Elec       q    Type
REMARK                         _______ _______ _______ _____ _____    ______ ____
ROOT
ATOM      1  O   UNL     1     -37.319  24.369   3.008  0.00  0.00    -0.302 OA
ENDROOT
BRANCH   1   8
ATOM      2  O   UNL     1     -35.154  25.199   2.528  0.00  0.00    -0.326 OA
ATOM      3  O   UNL     1     -36.011  25.217   5.453  0.00  0.00    -0.348 OA
ATOM      4  C   UNL     1     -34.938  24.288   5.163  0.00  0.00    +0.176 C 
ATOM      5  C   UNL     1     -34.710  25.990   3.644  0.00  0.00    +0.176 C 
ATOM      6  C   UNL     1     -33.842  25.138   4.544  0.00  0.00    +0.170 C 
ATOM      7  C   UNL     1     -35.414  23.303   4.088  0.00  0.00    +0.197 C 
ATOM      8  C   UNL     1     -35.940  24.037   2.843  0.00  0.00    +0.268 C 
ATOM      9  C   UNL     1     -35.848  26.362   4.585  0.00  0.00    +0.174 C 
BRANCH   6  10
ATOM     10  O   UNL     1     -33.199  25.932   5.526  0.00  0.00    -0.379 OA
ATOM     11  H   UNL     1     -32.672  26.621   5.092  0.00  0.00    +0.211 HD
ENDBRANCH   6  10
BRANCH   7  12
ATOM     12  O   UNL     1     -36.393  22.425   4.625  0.00  0.00    -0.378 OA
ATOM     13  H   UNL     1     -36.386  21.591   4.129  0.00  0.00    +0.211 HD
ENDBRANCH   7  12
ENDBRANCH   1   8
BRANCH   1  20
ATOM     14  O   UNL     1     -38.042  23.990   0.786  0.00  0.00    -0.326 OA
ATOM     15  O   UNL     1     -40.130  23.661   2.982  0.00  0.00    -0.348 OA
ATOM     16  C   UNL     1     -40.373  24.791   2.109  0.00  0.00    +0.176 C 
ATOM     17  C   UNL     1     -39.271  23.243   0.826  0.00  0.00    +0.176 C 
ATOM     18  C   UNL     1     -40.438  24.197   0.712  0.00  0.00    +0.170 C 
ATOM     19  C   UNL     1     -39.154  25.720   2.152  0.00  0.00    +0.197 C 
ATOM     20  C   UNL     1     -37.855  24.964   1.827  0.00  0.00    +0.268 C 
ATOM     21  C   UNL     1     -39.526  22.614   2.189  0.00  0.00    +0.174 C 
BRANCH  18  22
ATOM     22  O   UNL     1     -41.652  23.492   0.517  0.00  0.00    -0.379 OA
ATOM     23  H   UNL     1     -41.704  22.757   1.148  0.00  0.00    +0.211 HD
ENDBRANCH  18  22
BRANCH  19  24
ATOM     24  O   UNL     1     -39.075  26.368   3.415  0.00  0.00    -0.378 OA
ATOM     25  H   UNL     1     -38.295  26.046   3.895  0.00  0.00    +0.211 HD
ENDBRANCH  19  24
ENDBRANCH   1  20
TORSDOF 6
ENDMDL
MODEL 6
REMARK VINA RESULT:      -5.2      4.161      7.841
REMARK  Name = 195681
REMARK  6 active torsions:
REMARK  status: ('A' for Active; 'I' for Inactive)
REMARK    1  A    between atoms: O_1  and  C_8
REMARK    2  A    between atoms: O_1  and  C_20
REMARK    3  A    between atoms: C_6  and  O_10
REMARK    4  A    between atoms: C_7  and  O_12
REMARK    5  A    between atoms: C_18  and  O_22
REMARK    6  A    between atoms: C_19  and  O_24
REMARK                            x       y       z     vdW  Elec       q    Type
REMARK                         _______ _______ _______ _____ _____    ______ ____
ROOT
ATOM      1  O   UNL     1     -36.305  22.875   2.416  0.00  0.00    -0.302 OA
ENDROOT
BRANCH   1   8
ATOM      2  O   UNL     1     -36.719  23.316   4.704  0.00  0.00    -0.326 OA
ATOM      3  O   UNL     1     -34.690  25.112   3.309  0.00  0.00    -0.348 OA
ATOM      4  C   UNL     1     -35.908  25.795   3.695  0.00  0.00    +0.176 C 
ATOM      5  C   UNL     1     -35.634  24.106   5.222  0.00  0.00    +0.176 C 
ATOM      6  C   UNL     1     -36.025  25.567   5.192  0.00  0.00    +0.170 C 
ATOM      7  C   UNL     1     -37.100  25.092   3.033  0.00  0.00    +0.197 C 
ATOM      8  C   UNL     1     -37.116  23.587   3.350  0.00  0.00    +0.268 C 
ATOM      9  C   UNL     1     -34.419  24.100   4.304  0.00  0.00    +0.174 C 
BRANCH   6  10
ATOM     10  O   UNL     1     -35.084  26.356   5.900  0.00  0.00    -0.379 OA
ATOM     11  H   UNL     1     -35.506  27.180   6.191  0.00  0.00    +0.211 HD
ENDBRANCH   6  10
BRANCH   7  12
ATOM     12  O   UNL     1     -37.092  25.327   1.632  0.00  0.00    -0.378 OA
ATOM     13  H   UNL     1     -37.191  26.277   1.462  0.00  0.00    +0.211 HD
ENDBRANCH   7  12
ENDBRANCH   1   8
BRANCH   1  20
ATOM     14  O   UNL     1     -37.178  21.661   0.580  0.00  0.00    -0.326 OA
ATOM     15  O   UNL     1     -34.214  21.289   1.184  0.00  0.00    -0.348 OA
ATOM     16  C   UNL     1     -35.013  20.106   1.427  0.00  0.00    +0.176 C 
ATOM     17  C   UNL     1     -36.084  21.241  -0.253  0.00  0.00    +0.176 C 
ATOM     18  C   UNL     1     -35.702  19.822   0.103  0.00  0.00    +0.170 C 
ATOM     19  C   UNL     1     -36.106  20.448   2.446  0.00  0.00    +0.197 C 
ATOM     20  C   UNL     1     -36.935  21.665   1.998  0.00  0.00    +0.268 C 
ATOM     21  C   UNL     1     -34.793  21.988   0.059  0.00  0.00    +0.174 C 
BRANCH  18  22
ATOM     22  O   UNL     1     -34.788  19.291  -0.841  0.00  0.00    -0.379 OA
ATOM     23  H   UNL     1     -33.979  19.827  -0.845  0.00  0.00    +0.211 HD
ENDBRANCH  18  22
BRANCH  19  24
ATOM     24  O   UNL     1     -35.534  20.656   3.729  0.00  0.00    -0.378 OA
ATOM     25  H   UNL     1     -34.776  21.256   3.653  0.00  0.00    +0.211 HD
ENDBRANCH  19  24
ENDBRANCH   1  20
TORSDOF 6
ENDMDL
MODEL 7
REMARK VINA RESULT:      -5.2      3.629      5.951
REMARK  Name = 195681
REMARK  6 active torsions:
REMARK  status: ('A' for Active; 'I' for Inactive)
REMARK    1  A    between atoms: O_1  and  C_8
REMARK    2  A    between atoms: O_1  and  C_20
REMARK    3  A    between atoms: C_6  and  O_10
REMARK    4  A    between atoms: C_7  and  O_12
REMARK    5  A    between atoms: C_18  and  O_22
REMARK    6  A    between atoms: C_19  and  O_24
REMARK                            x       y       z     vdW  Elec       q    Type
REMARK                         _______ _______ _______ _____ _____    ______ ____
ROOT
ATOM      1  O   UNL     1     -37.258  24.326   3.008  0.00  0.00    -0.302 OA
ENDROOT
BRANCH   1   8
ATOM      2  O   UNL     1     -37.916  23.920   0.771  0.00  0.00    -0.326 OA
ATOM      3  O   UNL     1     -40.037  23.502   2.919  0.00  0.00    -0.348 OA
ATOM      4  C   UNL     1     -40.307  24.622   2.041  0.00  0.00    +0.176 C 
ATOM      5  C   UNL     1     -39.112  23.122   0.783  0.00  0.00    +0.176 C 
ATOM      6  C   UNL     1     -40.316  24.027   0.643  0.00  0.00    +0.170 C 
ATOM      7  C   UNL     1     -39.129  25.601   2.111  0.00  0.00    +0.197 C 
ATOM      8  C   UNL     1     -37.792  24.900   1.815  0.00  0.00    +0.268 C 
ATOM      9  C   UNL     1     -39.372  22.482   2.140  0.00  0.00    +0.174 C 
BRANCH   6  10
ATOM     10  O   UNL     1     -41.494  23.272   0.420  0.00  0.00    -0.379 OA
ATOM     11  H   UNL     1     -42.271  23.839   0.544  0.00  0.00    +0.211 HD
ENDBRANCH   6  10
BRANCH   7  12
ATOM     12  O   UNL     1     -39.105  26.250   3.375  0.00  0.00    -0.378 OA
ATOM     13  H   UNL     1     -39.474  25.658   4.050  0.00  0.00    +0.211 HD
ENDBRANCH   7  12
ENDBRANCH   1   8
BRANCH   1  20
ATOM     14  O   UNL     1     -35.116  25.277   2.677  0.00  0.00    -0.326 OA
ATOM     15  O   UNL     1     -36.085  25.053   5.558  0.00  0.00    -0.348 OA
ATOM     16  C   UNL     1     -34.963  24.191   5.250  0.00  0.00    +0.176 C 
ATOM     17  C   UNL     1     -34.750  26.004   3.863  0.00  0.00    +0.176 C 
ATOM     18  C   UNL     1     -33.881  25.127   4.737  0.00  0.00    +0.170 C 
ATOM     19  C   UNL     1     -35.352  23.266   4.091  0.00  0.00    +0.197 C 
ATOM     20  C   UNL     1     -35.862  24.064   2.878  0.00  0.00    +0.268 C 
ATOM     21  C   UNL     1     -35.939  26.261   4.779  0.00  0.00    +0.174 C 
BRANCH  18  22
ATOM     22  O   UNL     1     -33.313  25.875   5.798  0.00  0.00    -0.379 OA
ATOM     23  H   UNL     1     -32.659  26.497   5.442  0.00  0.00    +0.211 HD
ENDBRANCH  18  22
BRANCH  19  24
ATOM     24  O   UNL     1     -36.312  22.313   4.524  0.00  0.00    -0.378 OA
ATOM     25  H   UNL     1     -35.978  21.850   5.309  0.00  0.00    +0.211 HD
ENDBRANCH  19  24
ENDBRANCH   1  20
TORSDOF 6
ENDMDL
MODEL 8
REMARK VINA RESULT:      -5.2      1.941      2.578
REMARK  Name = 195681
REMARK  6 active torsions:
REMARK  status: ('A' for Active; 'I' for Inactive)
REMARK    1  A    between atoms: O_1  and  C_8
REMARK    2  A    between atoms: O_1  and  C_20
REMARK    3  A    between atoms: C_6  and  O_10
REMARK    4  A    between atoms: C_7  and  O_12
REMARK    5  A    between atoms: C_18  and  O_22
REMARK    6  A    between atoms: C_19  and  O_24
REMARK                            x       y       z     vdW  Elec       q    Type
REMARK                         _______ _______ _______ _____ _____    ______ ____
ROOT
ATOM      1  O   UNL     1     -34.691  27.311   3.349  0.00  0.00    -0.302 OA
ENDROOT
BRANCH   1   8
ATOM      2  O   UNL     1     -34.122  25.014   3.366  0.00  0.00    -0.326 OA
ATOM      3  O   UNL     1     -36.032  25.969   5.540  0.00  0.00    -0.348 OA
ATOM      4  C   UNL     1     -36.642  25.076   4.577  0.00  0.00    +0.176 C 
ATOM      5  C   UNL     1     -34.431  24.476   4.664  0.00  0.00    +0.176 C 
ATOM      6  C   UNL     1     -35.791  23.817   4.619  0.00  0.00    +0.170 C 
ATOM      7  C   UNL     1     -36.491  25.681   3.176  0.00  0.00    +0.197 C 
ATOM      8  C   UNL     1     -35.023  26.013   2.859  0.00  0.00    +0.268 C 
ATOM      9  C   UNL     1     -34.655  25.563   5.707  0.00  0.00    +0.174 C 
BRANCH   6  10
ATOM     10  O   UNL     1     -36.036  23.079   5.804  0.00  0.00    -0.379 OA
ATOM     11  H   UNL     1     -36.819  22.520   5.681  0.00  0.00    +0.211 HD
ENDBRANCH   6  10
BRANCH   7  12
ATOM     12  O   UNL     1     -37.321  26.827   3.044  0.00  0.00    -0.378 OA
ATOM     13  H   UNL     1     -36.781  27.629   3.124  0.00  0.00    +0.211 HD
ENDBRANCH   7  12
ENDBRANCH   1   8
BRANCH   1  20
ATOM     14  O   UNL     1     -33.799  28.301   1.392  0.00  0.00    -0.326 OA
ATOM     15  O   UNL     1     -34.905  30.199   3.505  0.00  0.00    -0.348 OA
ATOM     16  C   UNL     1     -33.468  30.281   3.339  0.00  0.00    +0.176 C 
ATOM     17  C   UNL     1     -34.292  29.649   1.295  0.00  0.00    +0.176 C 
ATOM     18  C   UNL     1     -33.263  30.598   1.867  0.00  0.00    +0.170 C 
ATOM     19  C   UNL     1     -32.860  28.898   3.596  0.00  0.00    +0.197 C 
ATOM     20  C   UNL     1     -33.516  27.819   2.717  0.00  0.00    +0.268 C 
ATOM     21  C   UNL     1     -35.480  29.902   2.213  0.00  0.00    +0.174 C 
BRANCH  18  22
ATOM     22  O   UNL     1     -33.605  31.945   1.586  0.00  0.00    -0.379 OA
ATOM     23  H   UNL     1     -34.480  31.976   1.169  0.00  0.00    +0.211 HD
ENDBRANCH  18  22
BRANCH  19  24
ATOM     24  O   UNL     1     -32.953  28.569   4.975  0.00  0.00    -0.378 OA
ATOM     25  H   UNL     1     -32.067  28.572   5.370  0.00  0.00    +0.211 HD
ENDBRANCH  19  24
ENDBRANCH   1  20
TORSDOF 6
ENDMDL
MODEL 9
REMARK VINA RESULT:      -5.1      3.434      4.773
REMARK  Name = 195681
REMARK  6 active torsions:
REMARK  status: ('A' for Active; 'I' for Inactive)
REMARK    1  A    between atoms: O_1  and  C_8
REMARK    2  A    between atoms: O_1  and  C_20
REMARK    3  A    between atoms: C_6  and  O_10
REMARK    4  A    between atoms: C_7  and  O_12
REMARK    5  A    between atoms: C_18  and  O_22
REMARK    6  A    between atoms: C_19  and  O_24
REMARK                            x       y       z     vdW  Elec       q    Type
REMARK                         _______ _______ _______ _____ _____    ______ ____
ROOT
ATOM      1  O   UNL     1     -35.340  25.569   2.517  0.00  0.00    -0.302 OA
ENDROOT
BRANCH   1   8
ATOM      2  O   UNL     1     -34.079  24.504   4.213  0.00  0.00    -0.326 OA
ATOM      3  O   UNL     1     -37.081  23.978   4.204  0.00  0.00    -0.348 OA
ATOM      4  C   UNL     1     -36.283  22.815   3.875  0.00  0.00    +0.176 C 
ATOM      5  C   UNL     1     -34.975  24.092   5.260  0.00  0.00    +0.176 C 
ATOM      6  C   UNL     1     -35.344  22.640   5.057  0.00  0.00    +0.170 C 
ATOM      7  C   UNL     1     -35.418  23.139   2.651  0.00  0.00    +0.197 C 
ATOM      8  C   UNL     1     -34.583  24.412   2.870  0.00  0.00    +0.268 C 
ATOM      9  C   UNL     1     -36.337  24.767   5.160  0.00  0.00    +0.174 C 
BRANCH   6  10
ATOM     10  O   UNL     1     -36.038  22.131   6.184  0.00  0.00    -0.379 OA
ATOM     11  H   UNL     1     -36.307  21.215   6.012  0.00  0.00    +0.211 HD
ENDBRANCH   6  10
BRANCH   7  12
ATOM     12  O   UNL     1     -36.230  23.245   1.490  0.00  0.00    -0.378 OA
ATOM     13  H   UNL     1     -37.019  23.772   1.694  0.00  0.00    +0.211 HD
ENDBRANCH   7  12
ENDBRANCH   1   8
BRANCH   1  20
ATOM     14  O   UNL     1     -34.549  26.555   0.515  0.00  0.00    -0.326 OA
ATOM     15  O   UNL     1     -37.142  27.675   1.663  0.00  0.00    -0.348 OA
ATOM     16  C   UNL     1     -36.030  28.602   1.716  0.00  0.00    +0.176 C 
ATOM     17  C   UNL     1     -35.635  27.266  -0.105  0.00  0.00    +0.176 C 
ATOM     18  C   UNL     1     -35.557  28.727   0.277  0.00  0.00    +0.170 C 
ATOM     19  C   UNL     1     -34.890  27.962   2.516  0.00  0.00    +0.197 C 
ATOM     20  C   UNL     1     -34.508  26.582   1.953  0.00  0.00    +0.268 C 
ATOM     21  C   UNL     1     -36.990  26.875   0.468  0.00  0.00    +0.174 C 
BRANCH  18  22
ATOM     22  O   UNL     1     -36.465  29.500  -0.490  0.00  0.00    -0.379 OA
ATOM     23  H   UNL     1     -36.433  30.424  -0.196  0.00  0.00    +0.211 HD
ENDBRANCH  18  22
BRANCH  19  24
ATOM     24  O   UNL     1     -35.239  27.882   3.891  0.00  0.00    -0.378 OA
ATOM     25  H   UNL     1     -34.961  28.693   4.344  0.00  0.00    +0.211 HD
ENDBRANCH  19  24
ENDBRANCH   1  20
TORSDOF 6
ENDMDL
