MODEL 1
REMARK VINA RESULT:      -7.2      0.000      0.000
REMARK  Name = 54737729
REMARK  5 active torsions:
REMARK  status: ('A' for Active; 'I' for Inactive)
REMARK    1  A    between atoms: C_1  and  C_4
REMARK    2  A    between atoms: C_2  and  C_19
REMARK    3  A    between atoms: C_4  and  C_10
REMARK    4  A    between atoms: C_20  and  C_24
REMARK    5  A    between atoms: C_24  and  O_30
REMARK                            x       y       z     vdW  Elec       q    Type
REMARK                         _______ _______ _______ _____ _____    ______ ____
ROOT
ATOM      1  C   UNL     1     -33.140  26.470   3.426  0.00  0.00    -0.028 C 
ATOM      2  C   UNL     1     -33.044  27.731   3.903  0.00  0.00    -0.026 C 
ATOM      3  C   UNL     1     -33.731  28.921   3.288  0.00  0.00    +0.031 C 
ENDROOT
BRANCH   1   4
ATOM      4  C   UNL     1     -33.905  25.969   2.221  0.00  0.00    +0.049 C 
ATOM      5  C   UNL     1     -32.970  25.176   1.306  0.00  0.00    +0.007 C 
BRANCH   4  10
ATOM      6  O   UNL     1     -34.582  24.248   3.715  0.00  0.00    -0.333 OA
ATOM      7  O   UNL     1     -36.623  24.327   4.932  0.00  0.00    -0.326 OA
ATOM      8  O   UNL     1     -39.104  24.304   2.499  0.00  0.00    -0.289 OA
ATOM      9  C   UNL     1     -36.284  25.930   3.161  0.00  0.00    +0.062 C 
ATOM     10  C   UNL     1     -35.076  25.099   2.669  0.00  0.00    +0.125 C 
ATOM     11  C   UNL     1     -37.298  25.050   3.911  0.00  0.00    +0.181 C 
ATOM     12  C   UNL     1     -35.602  23.483   4.374  0.00  0.00    +0.204 C 
ATOM     13  C   UNL     1     -36.227  22.463   3.430  0.00  0.00    +0.009 C 
ATOM     14  C   UNL     1     -36.943  26.738   2.046  0.00  0.00    +0.005 C 
ATOM     15  C   UNL     1     -38.038  24.038   3.049  0.00  0.00    +0.200 C 
ATOM     16  C   UNL     1     -34.935  22.823   5.584  0.00  0.00    +0.066 C 
ATOM     17  C   UNL     1     -37.408  22.709   2.840  0.00  0.00    +0.036 C 
ATOM     18  C   UNL     1     -35.471  21.200   3.128  0.00  0.00    +0.031 C 
ENDBRANCH   4  10
ENDBRANCH   1   4
BRANCH   2  19
ATOM     19  C   UNL     1     -32.223  27.964   5.096  0.00  0.00    -0.001 C 
ATOM     20  C   UNL     1     -31.090  28.686   5.162  0.00  0.00    +0.037 C 
BRANCH  20  24
ATOM     21  O   UNL     1     -28.732  27.345   4.369  0.00  0.00    -0.289 OA
ATOM     22  O   UNL     1     -28.459  29.193   8.695  0.00  0.00    -0.270 OA
ATOM     23  N   UNL     1     -26.998  27.961   7.318  0.00  0.00    -0.294 N 
ATOM     24  C   UNL     1     -30.297  28.900   6.360  0.00  0.00    +0.141 C 
ATOM     25  C   UNL     1     -29.045  28.436   6.486  0.00  0.00    +0.123 C 
ATOM     26  C   UNL     1     -28.305  27.665   5.466  0.00  0.00    +0.200 C 
ATOM     27  C   UNL     1     -26.938  27.338   6.002  0.00  0.00    +0.160 C 
ATOM     28  C   UNL     1     -28.180  28.610   7.664  0.00  0.00    +0.252 C 
ATOM     29  H   UNL     1     -26.233  27.924   7.937  0.00  0.00    +0.150 HD
BRANCH  24  30
ATOM     30  O   UNL     1     -30.911  29.614   7.370  0.00  0.00    -0.505 OA
ATOM     31  H   UNL     1     -30.401  30.158   7.936  0.00  0.00    +0.292 HD
ENDBRANCH  24  30
ENDBRANCH  20  24
ENDBRANCH   2  19
TORSDOF 5
ENDMDL
MODEL 2
REMARK VINA RESULT:      -6.9      3.309      5.561
REMARK  Name = 54737729
REMARK  5 active torsions:
REMARK  status: ('A' for Active; 'I' for Inactive)
REMARK    1  A    between atoms: C_1  and  C_4
REMARK    2  A    between atoms: C_2  and  C_19
REMARK    3  A    between atoms: C_4  and  C_10
REMARK    4  A    between atoms: C_20  and  C_24
REMARK    5  A    between atoms: C_24  and  O_30
REMARK                            x       y       z     vdW  Elec       q    Type
REMARK                         _______ _______ _______ _____ _____    ______ ____
ROOT
ATOM      1  C   UNL     1     -35.307  22.861   3.651  0.00  0.00    -0.028 C 
ATOM      2  C   UNL     1     -35.134  23.036   4.979  0.00  0.00    -0.026 C 
ATOM      3  C   UNL     1     -35.438  21.988   6.016  0.00  0.00    +0.031 C 
ENDROOT
BRANCH   1   4
ATOM      4  C   UNL     1     -35.831  21.647   2.916  0.00  0.00    +0.049 C 
ATOM      5  C   UNL     1     -37.198  21.961   2.305  0.00  0.00    +0.007 C 
BRANCH   4  10
ATOM      6  O   UNL     1     -35.175  19.876   1.473  0.00  0.00    -0.333 OA
ATOM      7  O   UNL     1     -34.656  20.208  -0.823  0.00  0.00    -0.326 OA
ATOM      8  O   UNL     1     -31.884  22.304  -0.808  0.00  0.00    -0.289 OA
ATOM      9  C   UNL     1     -34.895  22.150   0.589  0.00  0.00    +0.062 C 
ATOM     10  C   UNL     1     -34.846  21.227   1.829  0.00  0.00    +0.125 C 
ATOM     11  C   UNL     1     -34.156  21.520  -0.603  0.00  0.00    +0.181 C 
ATOM     12  C   UNL     1     -34.454  19.381   0.334  0.00  0.00    +0.204 C 
ATOM     13  C   UNL     1     -32.965  19.256   0.633  0.00  0.00    +0.009 C 
ATOM     14  C   UNL     1     -34.405  23.566   0.884  0.00  0.00    +0.005 C 
ATOM     15  C   UNL     1     -32.646  21.411  -0.444  0.00  0.00    +0.200 C 
ATOM     16  C   UNL     1     -35.089  18.036  -0.030  0.00  0.00    +0.066 C 
ATOM     17  C   UNL     1     -32.103  20.198   0.218  0.00  0.00    +0.036 C 
ATOM     18  C   UNL     1     -32.487  18.087   1.446  0.00  0.00    +0.031 C 
ENDBRANCH   4  10
ENDBRANCH   1   4
BRANCH   2  19
ATOM     19  C   UNL     1     -34.614  24.325   5.450  0.00  0.00    -0.001 C 
ATOM     20  C   UNL     1     -33.983  25.255   4.711  0.00  0.00    +0.037 C 
BRANCH  20  24
ATOM     21  O   UNL     1     -32.979  26.301   2.286  0.00  0.00    -0.289 OA
ATOM     22  O   UNL     1     -32.356  29.186   5.959  0.00  0.00    -0.270 OA
ATOM     23  N   UNL     1     -31.835  29.281   3.663  0.00  0.00    -0.294 N 
ATOM     24  C   UNL     1     -33.478  26.523   5.206  0.00  0.00    +0.141 C 
ATOM     25  C   UNL     1     -32.882  27.420   4.408  0.00  0.00    +0.123 C 
ATOM     26  C   UNL     1     -32.655  27.267   2.956  0.00  0.00    +0.200 C 
ATOM     27  C   UNL     1     -31.958  28.496   2.441  0.00  0.00    +0.160 C 
ATOM     28  C   UNL     1     -32.345  28.724   4.833  0.00  0.00    +0.252 C 
ATOM     29  H   UNL     1     -31.410  30.168   3.661  0.00  0.00    +0.150 HD
BRANCH  24  30
ATOM     30  O   UNL     1     -33.648  26.754   6.558  0.00  0.00    -0.505 OA
ATOM     31  H   UNL     1     -34.500  26.687   6.941  0.00  0.00    +0.292 HD
ENDBRANCH  24  30
ENDBRANCH  20  24
ENDBRANCH   2  19
TORSDOF 5
ENDMDL
MODEL 3
REMARK VINA RESULT:      -6.8      7.803     11.495
REMARK  Name = 54737729
REMARK  5 active torsions:
REMARK  status: ('A' for Active; 'I' for Inactive)
REMARK    1  A    between atoms: C_1  and  C_4
REMARK    2  A    between atoms: C_2  and  C_19
REMARK    3  A    between atoms: C_4  and  C_10
REMARK    4  A    between atoms: C_20  and  C_24
REMARK    5  A    between atoms: C_24  and  O_30
REMARK                            x       y       z     vdW  Elec       q    Type
REMARK                         _______ _______ _______ _____ _____    ______ ____
ROOT
ATOM      1  C   UNL     1     -43.698  27.305   4.416  0.00  0.00    -0.028 C 
ATOM      2  C   UNL     1     -42.959  26.856   3.378  0.00  0.00    -0.026 C 
ATOM      3  C   UNL     1     -43.475  26.726   1.969  0.00  0.00    +0.031 C 
ENDROOT
BRANCH   1   4
ATOM      4  C   UNL     1     -45.144  27.748   4.429  0.00  0.00    +0.049 C 
ATOM      5  C   UNL     1     -45.972  26.793   5.291  0.00  0.00    +0.007 C 
BRANCH   4  10
ATOM      6  O   UNL     1     -44.658  29.171   6.269  0.00  0.00    -0.333 OA
ATOM      7  O   UNL     1     -43.736  31.347   6.008  0.00  0.00    -0.326 OA
ATOM      8  O   UNL     1     -46.141  33.119   4.234  0.00  0.00    -0.289 OA
ATOM      9  C   UNL     1     -44.553  30.207   4.045  0.00  0.00    +0.062 C 
ATOM     10  C   UNL     1     -45.250  29.174   4.961  0.00  0.00    +0.125 C 
ATOM     11  C   UNL     1     -44.380  31.558   4.759  0.00  0.00    +0.181 C 
ATOM     12  C   UNL     1     -44.514  30.478   6.846  0.00  0.00    +0.204 C 
ATOM     13  C   UNL     1     -45.872  31.108   7.135  0.00  0.00    +0.009 C 
ATOM     14  C   UNL     1     -45.242  30.359   2.691  0.00  0.00    +0.005 C 
ATOM     15  C   UNL     1     -45.672  32.314   5.034  0.00  0.00    +0.200 C 
ATOM     16  C   UNL     1     -43.674  30.301   8.114  0.00  0.00    +0.066 C 
ATOM     17  C   UNL     1     -46.396  32.017   6.296  0.00  0.00    +0.036 C 
ATOM     18  C   UNL     1     -46.637  30.655   8.346  0.00  0.00    +0.031 C 
ENDBRANCH   4  10
ENDBRANCH   1   4
BRANCH   2  19
ATOM     19  C   UNL     1     -41.565  26.474   3.627  0.00  0.00    -0.001 C 
ATOM     20  C   UNL     1     -40.752  25.809   2.787  0.00  0.00    +0.037 C 
BRANCH  20  24
ATOM     21  O   UNL     1     -40.786  23.178   1.755  0.00  0.00    -0.289 OA
ATOM     22  O   UNL     1     -36.599  24.437   3.513  0.00  0.00    -0.270 OA
ATOM     23  N   UNL     1     -37.459  22.494   2.497  0.00  0.00    -0.294 N 
ATOM     24  C   UNL     1     -39.374  25.443   3.062  0.00  0.00    +0.141 C 
ATOM     25  C   UNL     1     -38.873  24.240   2.747  0.00  0.00    +0.123 C 
ATOM     26  C   UNL     1     -39.615  23.140   2.095  0.00  0.00    +0.200 C 
ATOM     27  C   UNL     1     -38.690  21.968   1.921  0.00  0.00    +0.160 C 
ATOM     28  C   UNL     1     -37.492  23.794   2.992  0.00  0.00    +0.252 C 
ATOM     29  H   UNL     1     -36.638  21.952   2.535  0.00  0.00    +0.150 HD
BRANCH  24  30
ATOM     30  O   UNL     1     -38.603  26.413   3.672  0.00  0.00    -0.505 OA
ATOM     31  H   UNL     1     -38.839  27.316   3.595  0.00  0.00    +0.292 HD
ENDBRANCH  24  30
ENDBRANCH  20  24
ENDBRANCH   2  19
TORSDOF 5
ENDMDL
MODEL 4
REMARK VINA RESULT:      -6.8      5.433      9.275
REMARK  Name = 54737729
REMARK  5 active torsions:
REMARK  status: ('A' for Active; 'I' for Inactive)
REMARK    1  A    between atoms: C_1  and  C_4
REMARK    2  A    between atoms: C_2  and  C_19
REMARK    3  A    between atoms: C_4  and  C_10
REMARK    4  A    between atoms: C_20  and  C_24
REMARK    5  A    between atoms: C_24  and  O_30
REMARK                            x       y       z     vdW  Elec       q    Type
REMARK                         _______ _______ _______ _____ _____    ______ ____
ROOT
ATOM      1  C   UNL     1     -33.789  21.673   0.550  0.00  0.00    -0.028 C 
ATOM      2  C   UNL     1     -32.639  21.446  -0.122  0.00  0.00    -0.026 C 
ATOM      3  C   UNL     1     -31.846  22.517  -0.823  0.00  0.00    +0.031 C 
ENDROOT
BRANCH   1   4
ATOM      4  C   UNL     1     -34.532  22.976   0.743  0.00  0.00    +0.049 C 
ATOM      5  C   UNL     1     -35.796  22.985  -0.119  0.00  0.00    +0.007 C 
BRANCH   4  10
ATOM      6  O   UNL     1     -35.417  24.490   2.348  0.00  0.00    -0.333 OA
ATOM      7  O   UNL     1     -37.009  23.842   3.991  0.00  0.00    -0.326 OA
ATOM      8  O   UNL     1     -35.360  21.480   5.935  0.00  0.00    -0.289 OA
ATOM      9  C   UNL     1     -35.907  22.112   2.719  0.00  0.00    +0.062 C 
ATOM     10  C   UNL     1     -34.889  23.162   2.215  0.00  0.00    +0.125 C 
ATOM     11  C   UNL     1     -36.498  22.519   4.080  0.00  0.00    +0.181 C 
ATOM     12  C   UNL     1     -35.969  24.771   3.643  0.00  0.00    +0.204 C 
ATOM     13  C   UNL     1     -34.888  24.771   4.717  0.00  0.00    +0.009 C 
ATOM     14  C   UNL     1     -35.337  20.696   2.743  0.00  0.00    +0.005 C 
ATOM     15  C   UNL     1     -35.520  22.485   5.246  0.00  0.00    +0.200 C 
ATOM     16  C   UNL     1     -36.675  26.124   3.528  0.00  0.00    +0.066 C 
ATOM     17  C   UNL     1     -34.711  23.701   5.510  0.00  0.00    +0.036 C 
ATOM     18  C   UNL     1     -33.989  25.969   4.838  0.00  0.00    +0.031 C 
ENDBRANCH   4  10
ENDBRANCH   1   4
BRANCH   2  19
ATOM     19  C   UNL     1     -32.120  20.075  -0.174  0.00  0.00    -0.001 C 
ATOM     20  C   UNL     1     -32.400  19.078   0.684  0.00  0.00    +0.037 C 
BRANCH  20  24
ATOM     21  O   UNL     1     -34.639  17.794  -0.465  0.00  0.00    -0.289 OA
ATOM     22  O   UNL     1     -31.028  14.875   0.338  0.00  0.00    -0.270 OA
ATOM     23  N   UNL     1     -33.192  14.635  -0.562  0.00  0.00    -0.294 N 
ATOM     24  C   UNL     1     -31.869  17.728   0.607  0.00  0.00    +0.141 C 
ATOM     25  C   UNL     1     -32.580  16.704   0.114  0.00  0.00    +0.123 C 
ATOM     26  C   UNL     1     -33.959  16.783  -0.411  0.00  0.00    +0.200 C 
ATOM     27  C   UNL     1     -34.385  15.415  -0.865  0.00  0.00    +0.160 C 
ATOM     28  C   UNL     1     -32.114  15.311   0.003  0.00  0.00    +0.252 C 
ATOM     29  H   UNL     1     -33.150  13.669  -0.749  0.00  0.00    +0.150 HD
BRANCH  24  30
ATOM     30  O   UNL     1     -30.581  17.559   1.077  0.00  0.00    -0.505 OA
ATOM     31  H   UNL     1     -30.086  18.300   1.364  0.00  0.00    +0.292 HD
ENDBRANCH  24  30
ENDBRANCH  20  24
ENDBRANCH   2  19
TORSDOF 5
ENDMDL
MODEL 5
REMARK VINA RESULT:      -6.4      2.722      4.734
REMARK  Name = 54737729
REMARK  5 active torsions:
REMARK  status: ('A' for Active; 'I' for Inactive)
REMARK    1  A    between atoms: C_1  and  C_4
REMARK    2  A    between atoms: C_2  and  C_19
REMARK    3  A    between atoms: C_4  and  C_10
REMARK    4  A    between atoms: C_20  and  C_24
REMARK    5  A    between atoms: C_24  and  O_30
REMARK                            x       y       z     vdW  Elec       q    Type
REMARK                         _______ _______ _______ _____ _____    ______ ____
ROOT
ATOM      1  C   UNL     1     -36.303  24.570   4.068  0.00  0.00    -0.028 C 
ATOM      2  C   UNL     1     -35.553  24.368   5.173  0.00  0.00    -0.026 C 
ATOM      3  C   UNL     1     -35.383  23.032   5.846  0.00  0.00    +0.031 C 
ENDROOT
BRANCH   1   4
ATOM      4  C   UNL     1     -37.122  23.568   3.284  0.00  0.00    +0.049 C 
ATOM      5  C   UNL     1     -38.505  24.151   2.983  0.00  0.00    +0.007 C 
BRANCH   4  10
ATOM      6  O   UNL     1     -35.873  24.428   1.453  0.00  0.00    -0.333 OA
ATOM      7  O   UNL     1     -33.909  23.376   0.626  0.00  0.00    -0.326 OA
ATOM      8  O   UNL     1     -34.981  20.275  -0.517  0.00  0.00    -0.289 OA
ATOM      9  C   UNL     1     -35.279  22.165   2.199  0.00  0.00    +0.062 C 
ATOM     10  C   UNL     1     -36.404  23.206   1.987  0.00  0.00    +0.125 C 
ATOM     11  C   UNL     1     -34.365  22.074   0.966  0.00  0.00    +0.181 C 
ATOM     12  C   UNL     1     -35.012  24.243   0.320  0.00  0.00    +0.204 C 
ATOM     13  C   UNL     1     -35.783  23.704  -0.880  0.00  0.00    +0.009 C 
ATOM     14  C   UNL     1     -35.809  20.796   2.621  0.00  0.00    +0.005 C 
ATOM     15  C   UNL     1     -35.013  21.479  -0.277  0.00  0.00    +0.200 C 
ATOM     16  C   UNL     1     -34.374  25.605   0.034  0.00  0.00    +0.066 C 
ATOM     17  C   UNL     1     -35.741  22.398  -1.188  0.00  0.00    +0.036 C 
ATOM     18  C   UNL     1     -36.635  24.650  -1.677  0.00  0.00    +0.031 C 
ENDBRANCH   4  10
ENDBRANCH   1   4
BRANCH   2  19
ATOM     19  C   UNL     1     -34.854  25.517   5.761  0.00  0.00    -0.001 C 
ATOM     20  C   UNL     1     -33.618  25.947   5.451  0.00  0.00    +0.037 C 
BRANCH  20  24
ATOM     21  O   UNL     1     -33.110  27.437   3.104  0.00  0.00    -0.289 OA
ATOM     22  O   UNL     1     -31.550  29.542   7.020  0.00  0.00    -0.270 OA
ATOM     23  N   UNL     1     -31.536  30.078   4.726  0.00  0.00    -0.294 N 
ATOM     24  C   UNL     1     -32.950  27.089   6.050  0.00  0.00    +0.141 C 
ATOM     25  C   UNL     1     -32.494  28.119   5.323  0.00  0.00    +0.123 C 
ATOM     26  C   UNL     1     -32.597  28.250   3.854  0.00  0.00    +0.200 C 
ATOM     27  C   UNL     1     -31.963  29.548   3.438  0.00  0.00    +0.160 C 
ATOM     28  C   UNL     1     -31.809  29.308   5.854  0.00  0.00    +0.252 C 
ATOM     29  H   UNL     1     -31.075  30.944   4.797  0.00  0.00    +0.150 HD
BRANCH  24  30
ATOM     30  O   UNL     1     -32.809  27.053   7.424  0.00  0.00    -0.505 OA
ATOM     31  H   UNL     1     -32.068  27.456   7.830  0.00  0.00    +0.292 HD
ENDBRANCH  24  30
ENDBRANCH  20  24
ENDBRANCH   2  19
TORSDOF 5
ENDMDL
MODEL 6
REMARK VINA RESULT:      -6.3      3.590      8.922
REMARK  Name = 54737729
REMARK  5 active torsions:
REMARK  status: ('A' for Active; 'I' for Inactive)
REMARK    1  A    between atoms: C_1  and  C_4
REMARK    2  A    between atoms: C_2  and  C_19
REMARK    3  A    between atoms: C_4  and  C_10
REMARK    4  A    between atoms: C_20  and  C_24
REMARK    5  A    between atoms: C_24  and  O_30
REMARK                            x       y       z     vdW  Elec       q    Type
REMARK                         _______ _______ _______ _____ _____    ______ ____
ROOT
ATOM      1  C   UNL     1     -33.636  26.481   3.282  0.00  0.00    -0.028 C 
ATOM      2  C   UNL     1     -34.450  26.078   4.283  0.00  0.00    -0.026 C 
ATOM      3  C   UNL     1     -34.067  26.089   5.739  0.00  0.00    +0.031 C 
ENDROOT
BRANCH   1   4
ATOM      4  C   UNL     1     -32.218  27.001   3.366  0.00  0.00    +0.049 C 
ATOM      5  C   UNL     1     -31.423  26.538   2.143  0.00  0.00    +0.007 C 
BRANCH   4  10
ATOM      6  O   UNL     1     -33.519  28.959   3.015  0.00  0.00    -0.333 OA
ATOM      7  O   UNL     1     -33.599  30.751   4.575  0.00  0.00    -0.326 OA
ATOM      8  O   UNL     1     -30.343  31.959   4.701  0.00  0.00    -0.289 OA
ATOM      9  C   UNL     1     -31.923  29.042   4.880  0.00  0.00    +0.062 C 
ATOM     10  C   UNL     1     -32.223  28.524   3.453  0.00  0.00    +0.125 C 
ATOM     11  C   UNL     1     -32.264  30.535   5.014  0.00  0.00    +0.181 C 
ATOM     12  C   UNL     1     -33.756  30.362   3.201  0.00  0.00    +0.204 C 
ATOM     13  C   UNL     1     -32.844  31.201   2.313  0.00  0.00    +0.009 C 
ATOM     14  C   UNL     1     -30.497  28.737   5.335  0.00  0.00    +0.005 C 
ATOM     15  C   UNL     1     -31.366  31.477   4.223  0.00  0.00    +0.200 C 
ATOM     16  C   UNL     1     -35.238  30.595   2.896  0.00  0.00    +0.066 C 
ATOM     17  C   UNL     1     -31.736  31.770   2.815  0.00  0.00    +0.036 C 
ATOM     18  C   UNL     1     -33.179  31.335   0.855  0.00  0.00    +0.031 C 
ENDBRANCH   4  10
ENDBRANCH   1   4
BRANCH   2  19
ATOM     19  C   UNL     1     -35.794  25.601   3.939  0.00  0.00    -0.001 C 
ATOM     20  C   UNL     1     -36.148  24.336   3.651  0.00  0.00    +0.037 C 
BRANCH  20  24
ATOM     21  O   UNL     1     -35.484  22.012   2.187  0.00  0.00    -0.289 OA
ATOM     22  O   UNL     1     -40.126  22.765   2.483  0.00  0.00    -0.270 OA
ATOM     23  N   UNL     1     -38.769  21.119   1.483  0.00  0.00    -0.294 N 
ATOM     24  C   UNL     1     -37.489  23.893   3.313  0.00  0.00    +0.141 C 
ATOM     25  C   UNL     1     -37.721  22.786   2.594  0.00  0.00    +0.123 C 
ATOM     26  C   UNL     1     -36.689  21.877   2.053  0.00  0.00    +0.200 C 
ATOM     27  C   UNL     1     -37.368  20.761   1.308  0.00  0.00    +0.160 C 
ATOM     28  C   UNL     1     -39.046  22.273   2.211  0.00  0.00    +0.252 C 
ATOM     29  H   UNL     1     -39.490  20.569   1.101  0.00  0.00    +0.150 HD
BRANCH  24  30
ATOM     30  O   UNL     1     -38.521  24.685   3.780  0.00  0.00    -0.505 OA
ATOM     31  H   UNL     1     -39.373  24.614   3.400  0.00  0.00    +0.292 HD
ENDBRANCH  24  30
ENDBRANCH  20  24
ENDBRANCH   2  19
TORSDOF 5
ENDMDL
MODEL 7
REMARK VINA RESULT:      -6.3      5.906     10.232
REMARK  Name = 54737729
REMARK  5 active torsions:
REMARK  status: ('A' for Active; 'I' for Inactive)
REMARK    1  A    between atoms: C_1  and  C_4
REMARK    2  A    between atoms: C_2  and  C_19
REMARK    3  A    between atoms: C_4  and  C_10
REMARK    4  A    between atoms: C_20  and  C_24
REMARK    5  A    between atoms: C_24  and  O_30
REMARK                            x       y       z     vdW  Elec       q    Type
REMARK                         _______ _______ _______ _____ _____    ______ ____
ROOT
ATOM      1  C   UNL     1     -39.580  26.298   2.288  0.00  0.00    -0.028 C 
ATOM      2  C   UNL     1     -40.911  26.106   2.416  0.00  0.00    -0.026 C 
ATOM      3  C   UNL     1     -41.732  25.239   1.498  0.00  0.00    +0.031 C 
ENDROOT
BRANCH   1   4
ATOM      4  C   UNL     1     -38.638  25.735   1.246  0.00  0.00    +0.049 C 
ATOM      5  C   UNL     1     -37.956  26.879   0.493  0.00  0.00    +0.007 C 
BRANCH   4  10
ATOM      6  O   UNL     1     -37.165  25.520   3.099  0.00  0.00    -0.333 OA
ATOM      7  O   UNL     1     -36.938  23.504   4.338  0.00  0.00    -0.326 OA
ATOM      8  O   UNL     1     -35.701  21.196   2.053  0.00  0.00    -0.289 OA
ATOM      9  C   UNL     1     -38.148  23.435   2.252  0.00  0.00    +0.062 C 
ATOM     10  C   UNL     1     -37.597  24.839   1.911  0.00  0.00    +0.125 C 
ATOM     11  C   UNL     1     -37.207  22.684   3.209  0.00  0.00    +0.181 C 
ATOM     12  C   UNL     1     -36.310  24.734   3.942  0.00  0.00    +0.204 C 
ATOM     13  C   UNL     1     -34.976  24.443   3.263  0.00  0.00    +0.009 C 
ATOM     14  C   UNL     1     -38.479  22.610   1.010  0.00  0.00    +0.005 C 
ATOM     15  C   UNL     1     -35.866  22.278   2.611  0.00  0.00    +0.200 C 
ATOM     16  C   UNL     1     -36.140  25.523   5.243  0.00  0.00    +0.066 C 
ATOM     17  C   UNL     1     -34.752  23.258   2.675  0.00  0.00    +0.036 C 
ATOM     18  C   UNL     1     -33.938  25.528   3.217  0.00  0.00    +0.031 C 
ENDBRANCH   4  10
ENDBRANCH   1   4
BRANCH   2  19
ATOM     19  C   UNL     1     -41.610  26.777   3.518  0.00  0.00    -0.001 C 
ATOM     20  C   UNL     1     -42.576  27.706   3.408  0.00  0.00    +0.037 C 
BRANCH  20  24
ATOM     21  O   UNL     1     -44.952  26.175   3.430  0.00  0.00    -0.289 OA
ATOM     22  O   UNL     1     -44.853  29.508   6.759  0.00  0.00    -0.270 OA
ATOM     23  N   UNL     1     -46.399  27.856   6.106  0.00  0.00    -0.294 N 
ATOM     24  C   UNL     1     -43.251  28.354   4.518  0.00  0.00    +0.141 C 
ATOM     25  C   UNL     1     -44.466  27.976   4.941  0.00  0.00    +0.123 C 
ATOM     26  C   UNL     1     -45.277  26.883   4.368  0.00  0.00    +0.200 C 
ATOM     27  C   UNL     1     -46.570  26.787   5.130  0.00  0.00    +0.160 C 
ATOM     28  C   UNL     1     -45.213  28.582   6.056  0.00  0.00    +0.252 C 
ATOM     29  H   UNL     1     -47.095  28.056   6.774  0.00  0.00    +0.150 HD
BRANCH  24  30
ATOM     30  O   UNL     1     -42.564  29.392   5.118  0.00  0.00    -0.505 OA
ATOM     31  H   UNL     1     -41.880  29.831   4.653  0.00  0.00    +0.292 HD
ENDBRANCH  24  30
ENDBRANCH  20  24
ENDBRANCH   2  19
TORSDOF 5
ENDMDL
MODEL 8
REMARK VINA RESULT:      -6.3      4.495      8.259
REMARK  Name = 54737729
REMARK  5 active torsions:
REMARK  status: ('A' for Active; 'I' for Inactive)
REMARK    1  A    between atoms: C_1  and  C_4
REMARK    2  A    between atoms: C_2  and  C_19
REMARK    3  A    between atoms: C_4  and  C_10
REMARK    4  A    between atoms: C_20  and  C_24
REMARK    5  A    between atoms: C_24  and  O_30
REMARK                            x       y       z     vdW  Elec       q    Type
REMARK                         _______ _______ _______ _____ _____    ______ ____
ROOT
ATOM      1  C   UNL     1     -35.364  24.137   4.200  0.00  0.00    -0.028 C 
ATOM      2  C   UNL     1     -35.422  22.929   4.802  0.00  0.00    -0.026 C 
ATOM      3  C   UNL     1     -35.450  22.729   6.295  0.00  0.00    +0.031 C 
ENDROOT
BRANCH   1   4
ATOM      4  C   UNL     1     -35.301  25.509   4.834  0.00  0.00    +0.049 C 
ATOM      5  C   UNL     1     -34.059  25.614   5.720  0.00  0.00    +0.007 C 
BRANCH   4  10
ATOM      6  O   UNL     1     -33.896  26.827   3.441  0.00  0.00    -0.333 OA
ATOM      7  O   UNL     1     -34.333  27.177   1.131  0.00  0.00    -0.326 OA
ATOM      8  O   UNL     1     -37.364  28.875   1.053  0.00  0.00    -0.289 OA
ATOM      9  C   UNL     1     -36.061  26.174   2.484  0.00  0.00    +0.062 C 
ATOM     10  C   UNL     1     -35.277  26.585   3.752  0.00  0.00    +0.125 C 
ATOM     11  C   UNL     1     -35.742  27.108   1.304  0.00  0.00    +0.181 C 
ATOM     12  C   UNL     1     -33.695  27.689   2.312  0.00  0.00    +0.204 C 
ATOM     13  C   UNL     1     -34.188  29.103   2.600  0.00  0.00    +0.009 C 
ATOM     14  C   UNL     1     -37.564  26.053   2.728  0.00  0.00    +0.005 C 
ATOM     15  C   UNL     1     -36.254  28.535   1.452  0.00  0.00    +0.200 C 
ATOM     16  C   UNL     1     -32.198  27.649   1.997  0.00  0.00    +0.066 C 
ATOM     17  C   UNL     1     -35.383  29.516   2.148  0.00  0.00    +0.036 C 
ATOM     18  C   UNL     1     -33.337  30.007   3.445  0.00  0.00    +0.031 C 
ENDBRANCH   4  10
ENDBRANCH   1   4
BRANCH   2  19
ATOM     19  C   UNL     1     -35.466  21.730   3.958  0.00  0.00    -0.001 C 
ATOM     20  C   UNL     1     -35.861  21.666   2.674  0.00  0.00    +0.037 C 
BRANCH  20  24
ATOM     21  O   UNL     1     -33.992  22.425   0.694  0.00  0.00    -0.289 OA
ATOM     22  O   UNL     1     -35.772  18.114   0.022  0.00  0.00    -0.270 OA
ATOM     23  N   UNL     1     -34.213  19.465  -1.116  0.00  0.00    -0.294 N 
ATOM     24  C   UNL     1     -35.893  20.463   1.862  0.00  0.00    +0.141 C 
ATOM     25  C   UNL     1     -35.149  20.321   0.756  0.00  0.00    +0.123 C 
ATOM     26  C   UNL     1     -34.213  21.327   0.211  0.00  0.00    +0.200 C 
ATOM     27  C   UNL     1     -33.580  20.776  -1.037  0.00  0.00    +0.160 C 
ATOM     28  C   UNL     1     -35.127  19.137  -0.118  0.00  0.00    +0.252 C 
ATOM     29  H   UNL     1     -34.003  18.838  -1.845  0.00  0.00    +0.150 HD
BRANCH  24  30
ATOM     30  O   UNL     1     -36.744  19.465   2.297  0.00  0.00    -0.505 OA
ATOM     31  H   UNL     1     -37.262  19.594   3.066  0.00  0.00    +0.292 HD
ENDBRANCH  24  30
ENDBRANCH  20  24
ENDBRANCH   2  19
TORSDOF 5
ENDMDL
MODEL 9
REMARK VINA RESULT:      -6.3      5.356      8.770
REMARK  Name = 54737729
REMARK  5 active torsions:
REMARK  status: ('A' for Active; 'I' for Inactive)
REMARK    1  A    between atoms: C_1  and  C_4
REMARK    2  A    between atoms: C_2  and  C_19
REMARK    3  A    between atoms: C_4  and  C_10
REMARK    4  A    between atoms: C_20  and  C_24
REMARK    5  A    between atoms: C_24  and  O_30
REMARK                            x       y       z     vdW  Elec       q    Type
REMARK                         _______ _______ _______ _____ _____    ______ ____
ROOT
ATOM      1  C   UNL     1     -34.045  22.736   0.221  0.00  0.00    -0.028 C 
ATOM      2  C   UNL     1     -32.822  22.430  -0.263  0.00  0.00    -0.026 C 
ATOM      3  C   UNL     1     -31.861  23.442  -0.830  0.00  0.00    +0.031 C 
ENDROOT
BRANCH   1   4
ATOM      4  C   UNL     1     -34.723  24.087   0.298  0.00  0.00    +0.049 C 
ATOM      5  C   UNL     1     -35.515  24.343  -0.986  0.00  0.00    +0.007 C 
BRANCH   4  10
ATOM      6  O   UNL     1     -36.652  23.138   1.313  0.00  0.00    -0.333 OA
ATOM      7  O   UNL     1     -36.751  22.580   3.621  0.00  0.00    -0.326 OA
ATOM      8  O   UNL     1     -36.377  25.610   5.280  0.00  0.00    -0.289 OA
ATOM      9  C   UNL     1     -34.893  23.907   2.844  0.00  0.00    +0.062 C 
ATOM     10  C   UNL     1     -35.645  24.141   1.513  0.00  0.00    +0.125 C 
ATOM     11  C   UNL     1     -35.873  23.632   3.997  0.00  0.00    +0.181 C 
ATOM     12  C   UNL     1     -37.504  22.933   2.449  0.00  0.00    +0.204 C 
ATOM     13  C   UNL     1     -38.360  24.162   2.729  0.00  0.00    +0.009 C 
ATOM     14  C   UNL     1     -33.916  25.032   3.179  0.00  0.00    +0.005 C 
ATOM     15  C   UNL     1     -36.733  24.818   4.411  0.00  0.00    +0.200 C 
ATOM     16  C   UNL     1     -38.349  21.694   2.139  0.00  0.00    +0.066 C 
ATOM     17  C   UNL     1     -38.016  25.029   3.696  0.00  0.00    +0.036 C 
ATOM     18  C   UNL     1     -39.565  24.415   1.869  0.00  0.00    +0.031 C 
ENDBRANCH   4  10
ENDBRANCH   1   4
BRANCH   2  19
ATOM     19  C   UNL     1     -32.391  21.028  -0.235  0.00  0.00    -0.001 C 
ATOM     20  C   UNL     1     -32.911  20.044   0.520  0.00  0.00    +0.037 C 
BRANCH  20  24
ATOM     21  O   UNL     1     -35.324  18.799  -0.265  0.00  0.00    -0.289 OA
ATOM     22  O   UNL     1     -31.805  15.750   0.462  0.00  0.00    -0.270 OA
ATOM     23  N   UNL     1     -34.062  15.561  -0.188  0.00  0.00    -0.294 N 
ATOM     24  C   UNL     1     -32.463  18.662   0.526  0.00  0.00    +0.141 C 
ATOM     25  C   UNL     1     -33.274  17.642   0.211  0.00  0.00    +0.123 C 
ATOM     26  C   UNL     1     -34.695  17.758  -0.178  0.00  0.00    +0.200 C 
ATOM     27  C   UNL     1     -35.238  16.382  -0.447  0.00  0.00    +0.160 C 
ATOM     28  C   UNL     1     -32.897  16.219   0.195  0.00  0.00    +0.252 C 
ATOM     29  H   UNL     1     -34.090  14.582  -0.281  0.00  0.00    +0.150 HD
BRANCH  24  30
ATOM     30  O   UNL     1     -31.143  18.458   0.879  0.00  0.00    -0.505 OA
ATOM     31  H   UNL     1     -30.713  17.660   0.643  0.00  0.00    +0.292 HD
ENDBRANCH  24  30
ENDBRANCH  20  24
ENDBRANCH   2  19
TORSDOF 5
ENDMDL
