MODEL 1
REMARK VINA RESULT:      -5.4      0.000      0.000
REMARK  Name = 194490
REMARK  10 active torsions:
REMARK  status: ('A' for Active; 'I' for Inactive)
REMARK    1  A    between atoms: N_2  and  C_15
REMARK    2  A    between atoms: C_3  and  C_5
REMARK    3  A    between atoms: C_8  and  C_12
REMARK    4  A    between atoms: C_12  and  C_14
REMARK    5  A    between atoms: C_15  and  C_16
REMARK    6  A    between atoms: C_16  and  S_17
REMARK    7  A    between atoms: S_17  and  S_18
REMARK    8  A    between atoms: S_18  and  C_19
REMARK    9  A    between atoms: C_19  and  C_20
REMARK   10  A    between atoms: C_20  and  N_22
REMARK                            x       y       z     vdW  Elec       q    Type
REMARK                         _______ _______ _______ _____ _____    ______ ____
ROOT
ATOM      1  O   UNL     1     -35.280  20.134   2.488  0.00  0.00    -0.270 OA
ATOM      2  N   UNL     1     -35.876  19.712   0.286  0.00  0.00    -0.300 N 
ATOM      3  C   UNL     1     -34.952  19.801   1.334  0.00  0.00    +0.246 C 
ATOM      4  H   UNL     1     -35.549  19.442  -0.601  0.00  0.00    +0.150 HD
ENDROOT
BRANCH   3   5
ATOM      5  C   UNL     1     -33.564  19.507   1.016  0.00  0.00    +0.053 C 
ATOM      6  C   UNL     1     -32.813  20.410   0.265  0.00  0.00    +0.005 C 
ATOM      7  C   UNL     1     -32.983  18.320   1.464  0.00  0.00    +0.005 C 
ATOM      8  C   UNL     1     -30.901  18.941   0.406  0.00  0.00    +0.042 C 
ATOM      9  C   UNL     1     -31.482  20.127  -0.041  0.00  0.00    +0.003 C 
ATOM     10  C   UNL     1     -31.651  18.037   1.159  0.00  0.00    +0.003 C 
BRANCH   8  12
ATOM     11  O   UNL     1     -28.866  19.226  -0.791  0.00  0.00    -0.283 OA
ATOM     12  C   UNL     1     -29.514  18.647   0.088  0.00  0.00    +0.238 C 
BRANCH  12  14
ATOM     13  O   UNL     1     -27.978  17.906   1.724  0.00  0.00    -0.280 OA
ATOM     14  C   UNL     1     -28.751  17.585   0.840  0.00  0.00    +0.276 C 
ENDBRANCH  12  14
ENDBRANCH   8  12
ENDBRANCH   3   5
BRANCH   2  15
ATOM     15  C   UNL     1     -37.285  19.996   0.438  0.00  0.00    +0.102 C 
BRANCH  15  16
ATOM     16  C   UNL     1     -37.814  20.963  -0.613  0.00  0.00    +0.090 C 
BRANCH  16  17
ATOM     17  S   UNL     1     -38.988  22.163   0.086  0.00  0.00    -0.080 S 
BRANCH  17  18
ATOM     18  S   UNL     1     -38.674  21.917   2.101  0.00  0.00    -0.080 S 
BRANCH  18  19
ATOM     19  C   UNL     1     -38.227  23.595   2.612  0.00  0.00    +0.090 C 
BRANCH  19  20
ATOM     20  C   UNL     1     -36.806  23.673   3.153  0.00  0.00    +0.102 C 
BRANCH  20  22
ATOM     21  O   UNL     1     -34.551  23.601   4.979  0.00  0.00    -0.275 OA
ATOM     22  N   UNL     1     -36.539  22.695   4.173  0.00  0.00    -0.303 N 
ATOM     23  C   UNL     1     -35.427  22.741   5.003  0.00  0.00    +0.223 C 
ATOM     24  C   UNL     1     -35.404  21.610   5.997  0.00  0.00    +0.095 C 
ATOM     25  H   UNL     1     -37.176  21.953   4.287  0.00  0.00    +0.149 HD
ENDBRANCH  20  22
ENDBRANCH  19  20
ENDBRANCH  18  19
ENDBRANCH  17  18
ENDBRANCH  16  17
ENDBRANCH  15  16
ENDBRANCH   2  15
TORSDOF 10
ENDMDL
MODEL 2
REMARK VINA RESULT:      -5.4      1.701      1.884
REMARK  Name = 194490
REMARK  10 active torsions:
REMARK  status: ('A' for Active; 'I' for Inactive)
REMARK    1  A    between atoms: N_2  and  C_15
REMARK    2  A    between atoms: C_3  and  C_5
REMARK    3  A    between atoms: C_8  and  C_12
REMARK    4  A    between atoms: C_12  and  C_14
REMARK    5  A    between atoms: C_15  and  C_16
REMARK    6  A    between atoms: C_16  and  S_17
REMARK    7  A    between atoms: S_17  and  S_18
REMARK    8  A    between atoms: S_18  and  C_19
REMARK    9  A    between atoms: C_19  and  C_20
REMARK   10  A    between atoms: C_20  and  N_22
REMARK                            x       y       z     vdW  Elec       q    Type
REMARK                         _______ _______ _______ _____ _____    ______ ____
ROOT
ATOM      1  O   UNL     1     -34.778  21.647  -0.096  0.00  0.00    -0.270 OA
ATOM      2  N   UNL     1     -35.154  21.013   2.104  0.00  0.00    -0.300 N 
ATOM      3  C   UNL     1     -34.451  20.967   0.894  0.00  0.00    +0.246 C 
ATOM      4  H   UNL     1     -34.840  20.450   2.846  0.00  0.00    +0.150 HD
ENDROOT
BRANCH   3   5
ATOM      5  C   UNL     1     -33.316  20.061   0.825  0.00  0.00    +0.053 C 
ATOM      6  C   UNL     1     -32.167  20.433   0.129  0.00  0.00    +0.005 C 
ATOM      7  C   UNL     1     -33.378  18.818   1.455  0.00  0.00    +0.005 C 
ATOM      8  C   UNL     1     -31.140  18.319   0.692  0.00  0.00    +0.042 C 
ATOM      9  C   UNL     1     -31.079  19.562   0.062  0.00  0.00    +0.003 C 
ATOM     10  C   UNL     1     -32.290  17.947   1.390  0.00  0.00    +0.003 C 
BRANCH   8  12
ATOM     11  O   UNL     1     -28.943  17.586   1.230  0.00  0.00    -0.283 OA
ATOM     12  C   UNL     1     -30.006  17.413   0.624  0.00  0.00    +0.238 C 
BRANCH  12  14
ATOM     13  O   UNL     1     -30.361  15.100   0.299  0.00  0.00    -0.280 OA
ATOM     14  C   UNL     1     -30.059  16.162  -0.216  0.00  0.00    +0.276 C 
ENDBRANCH  12  14
ENDBRANCH   8  12
ENDBRANCH   3   5
BRANCH   2  15
ATOM     15  C   UNL     1     -36.316  21.845   2.321  0.00  0.00    +0.102 C 
BRANCH  15  16
ATOM     16  C   UNL     1     -37.606  21.209   1.816  0.00  0.00    +0.090 C 
BRANCH  16  17
ATOM     17  S   UNL     1     -39.019  22.349   1.919  0.00  0.00    -0.080 S 
BRANCH  17  18
ATOM     18  S   UNL     1     -38.093  24.171   1.714  0.00  0.00    -0.080 S 
BRANCH  18  19
ATOM     19  C   UNL     1     -38.352  24.902   3.349  0.00  0.00    +0.090 C 
BRANCH  19  20
ATOM     20  C   UNL     1     -37.048  25.073   4.116  0.00  0.00    +0.102 C 
BRANCH  20  22
ATOM     21  O   UNL     1     -34.531  24.577   5.476  0.00  0.00    -0.275 OA
ATOM     22  N   UNL     1     -36.665  23.892   4.843  0.00  0.00    -0.303 N 
ATOM     23  C   UNL     1     -35.432  23.743   5.464  0.00  0.00    +0.223 C 
ATOM     24  C   UNL     1     -35.301  22.422   6.174  0.00  0.00    +0.095 C 
ATOM     25  H   UNL     1     -37.310  23.151   4.903  0.00  0.00    +0.149 HD
ENDBRANCH  20  22
ENDBRANCH  19  20
ENDBRANCH  18  19
ENDBRANCH  17  18
ENDBRANCH  16  17
ENDBRANCH  15  16
ENDBRANCH   2  15
TORSDOF 10
ENDMDL
MODEL 3
REMARK VINA RESULT:      -5.2      1.960      2.402
REMARK  Name = 194490
REMARK  10 active torsions:
REMARK  status: ('A' for Active; 'I' for Inactive)
REMARK    1  A    between atoms: N_2  and  C_15
REMARK    2  A    between atoms: C_3  and  C_5
REMARK    3  A    between atoms: C_8  and  C_12
REMARK    4  A    between atoms: C_12  and  C_14
REMARK    5  A    between atoms: C_15  and  C_16
REMARK    6  A    between atoms: C_16  and  S_17
REMARK    7  A    between atoms: S_17  and  S_18
REMARK    8  A    between atoms: S_18  and  C_19
REMARK    9  A    between atoms: C_19  and  C_20
REMARK   10  A    between atoms: C_20  and  N_22
REMARK                            x       y       z     vdW  Elec       q    Type
REMARK                         _______ _______ _______ _____ _____    ______ ____
ROOT
ATOM      1  O   UNL     1     -34.616  22.018  -0.120  0.00  0.00    -0.270 OA
ATOM      2  N   UNL     1     -35.250  21.243   1.972  0.00  0.00    -0.300 N 
ATOM      3  C   UNL     1     -34.438  21.236   0.832  0.00  0.00    +0.246 C 
ATOM      4  H   UNL     1     -35.053  20.598   2.688  0.00  0.00    +0.150 HD
ENDROOT
BRANCH   3   5
ATOM      5  C   UNL     1     -33.372  20.249   0.787  0.00  0.00    +0.053 C 
ATOM      6  C   UNL     1     -33.524  19.027   1.441  0.00  0.00    +0.005 C 
ATOM      7  C   UNL     1     -32.196  20.524   0.088  0.00  0.00    +0.005 C 
ATOM      8  C   UNL     1     -31.324  18.355   0.701  0.00  0.00    +0.042 C 
ATOM      9  C   UNL     1     -32.500  18.080   1.399  0.00  0.00    +0.003 C 
ATOM     10  C   UNL     1     -31.172  19.577   0.044  0.00  0.00    +0.003 C 
BRANCH   8  12
ATOM     11  O   UNL     1     -30.439  16.162   0.454  0.00  0.00    -0.283 OA
ATOM     12  C   UNL     1     -30.259  17.368   0.655  0.00  0.00    +0.238 C 
BRANCH  12  14
ATOM     13  O   UNL     1     -28.283  17.591   1.932  0.00  0.00    -0.280 OA
ATOM     14  C   UNL     1     -28.818  17.768   0.853  0.00  0.00    +0.276 C 
ENDBRANCH  12  14
ENDBRANCH   8  12
ENDBRANCH   3   5
BRANCH   2  15
ATOM     15  C   UNL     1     -36.363  22.147   2.155  0.00  0.00    +0.102 C 
BRANCH  15  16
ATOM     16  C   UNL     1     -37.713  21.488   1.903  0.00  0.00    +0.090 C 
BRANCH  16  17
ATOM     17  S   UNL     1     -39.039  22.708   1.659  0.00  0.00    -0.080 S 
BRANCH  17  18
ATOM     18  S   UNL     1     -38.012  24.259   0.787  0.00  0.00    -0.080 S 
BRANCH  18  19
ATOM     19  C   UNL     1     -38.373  25.623   1.920  0.00  0.00    +0.090 C 
BRANCH  19  20
ATOM     20  C   UNL     1     -38.354  25.181   3.377  0.00  0.00    +0.102 C 
BRANCH  20  22
ATOM     21  O   UNL     1     -36.436  23.856   5.106  0.00  0.00    -0.275 OA
ATOM     22  N   UNL     1     -37.294  25.790   4.135  0.00  0.00    -0.303 N 
ATOM     23  C   UNL     1     -36.421  25.072   4.940  0.00  0.00    +0.223 C 
ATOM     24  C   UNL     1     -35.393  25.951   5.601  0.00  0.00    +0.095 C 
ATOM     25  H   UNL     1     -37.183  26.767   4.081  0.00  0.00    +0.149 HD
ENDBRANCH  20  22
ENDBRANCH  19  20
ENDBRANCH  18  19
ENDBRANCH  17  18
ENDBRANCH  16  17
ENDBRANCH  15  16
ENDBRANCH   2  15
TORSDOF 10
ENDMDL
MODEL 4
REMARK VINA RESULT:      -5.1      3.657      4.352
REMARK  Name = 194490
REMARK  10 active torsions:
REMARK  status: ('A' for Active; 'I' for Inactive)
REMARK    1  A    between atoms: N_2  and  C_15
REMARK    2  A    between atoms: C_3  and  C_5
REMARK    3  A    between atoms: C_8  and  C_12
REMARK    4  A    between atoms: C_12  and  C_14
REMARK    5  A    between atoms: C_15  and  C_16
REMARK    6  A    between atoms: C_16  and  S_17
REMARK    7  A    between atoms: S_17  and  S_18
REMARK    8  A    between atoms: S_18  and  C_19
REMARK    9  A    between atoms: C_19  and  C_20
REMARK   10  A    between atoms: C_20  and  N_22
REMARK                            x       y       z     vdW  Elec       q    Type
REMARK                         _______ _______ _______ _____ _____    ______ ____
ROOT
ATOM      1  O   UNL     1     -35.581  22.268   0.199  0.00  0.00    -0.270 OA
ATOM      2  N   UNL     1     -35.870  21.500   2.368  0.00  0.00    -0.300 N 
ATOM      3  C   UNL     1     -35.208  21.538   1.135  0.00  0.00    +0.246 C 
ATOM      4  H   UNL     1     -35.521  20.901   3.065  0.00  0.00    +0.150 HD
ENDROOT
BRANCH   3   5
ATOM      5  C   UNL     1     -34.061  20.659   0.975  0.00  0.00    +0.053 C 
ATOM      6  C   UNL     1     -34.051  19.405   1.584  0.00  0.00    +0.005 C 
ATOM      7  C   UNL     1     -32.968  21.073   0.212  0.00  0.00    +0.005 C 
ATOM      8  C   UNL     1     -31.857  18.976   0.668  0.00  0.00    +0.042 C 
ATOM      9  C   UNL     1     -32.949  18.564   1.431  0.00  0.00    +0.003 C 
ATOM     10  C   UNL     1     -31.866  20.231   0.058  0.00  0.00    +0.003 C 
BRANCH   8  12
ATOM     11  O   UNL     1     -30.643  16.953   0.970  0.00  0.00    -0.283 OA
ATOM     12  C   UNL     1     -30.710  18.098   0.508  0.00  0.00    +0.238 C 
BRANCH  12  14
ATOM     13  O   UNL     1     -29.250  18.055  -1.350  0.00  0.00    -0.280 OA
ATOM     14  C   UNL     1     -29.490  18.543  -0.260  0.00  0.00    +0.276 C 
ENDBRANCH  12  14
ENDBRANCH   8  12
ENDBRANCH   3   5
BRANCH   2  15
ATOM     15  C   UNL     1     -37.038  22.295   2.672  0.00  0.00    +0.102 C 
BRANCH  15  16
ATOM     16  C   UNL     1     -36.695  23.712   3.117  0.00  0.00    +0.090 C 
BRANCH  16  17
ATOM     17  S   UNL     1     -35.584  23.730   4.556  0.00  0.00    -0.080 S 
BRANCH  17  18
ATOM     18  S   UNL     1     -35.810  25.660   5.223  0.00  0.00    -0.080 S 
BRANCH  18  19
ATOM     19  C   UNL     1     -34.139  26.049   5.798  0.00  0.00    +0.090 C 
BRANCH  19  20
ATOM     20  C   UNL     1     -33.350  26.852   4.772  0.00  0.00    +0.102 C 
BRANCH  20  22
ATOM     21  O   UNL     1     -30.996  27.606   6.293  0.00  0.00    -0.275 OA
ATOM     22  N   UNL     1     -32.996  28.165   5.240  0.00  0.00    -0.303 N 
ATOM     23  C   UNL     1     -31.843  28.432   5.965  0.00  0.00    +0.223 C 
ATOM     24  C   UNL     1     -31.703  29.892   6.307  0.00  0.00    +0.095 C 
ATOM     25  H   UNL     1     -33.602  28.914   5.036  0.00  0.00    +0.149 HD
ENDBRANCH  20  22
ENDBRANCH  19  20
ENDBRANCH  18  19
ENDBRANCH  17  18
ENDBRANCH  16  17
ENDBRANCH  15  16
ENDBRANCH   2  15
TORSDOF 10
ENDMDL
MODEL 5
REMARK VINA RESULT:      -5.0      2.493      3.055
REMARK  Name = 194490
REMARK  10 active torsions:
REMARK  status: ('A' for Active; 'I' for Inactive)
REMARK    1  A    between atoms: N_2  and  C_15
REMARK    2  A    between atoms: C_3  and  C_5
REMARK    3  A    between atoms: C_8  and  C_12
REMARK    4  A    between atoms: C_12  and  C_14
REMARK    5  A    between atoms: C_15  and  C_16
REMARK    6  A    between atoms: C_16  and  S_17
REMARK    7  A    between atoms: S_17  and  S_18
REMARK    8  A    between atoms: S_18  and  C_19
REMARK    9  A    between atoms: C_19  and  C_20
REMARK   10  A    between atoms: C_20  and  N_22
REMARK                            x       y       z     vdW  Elec       q    Type
REMARK                         _______ _______ _______ _____ _____    ______ ____
ROOT
ATOM      1  O   UNL     1     -35.799  21.074   1.863  0.00  0.00    -0.270 OA
ATOM      2  N   UNL     1     -34.884  22.584   0.359  0.00  0.00    -0.300 N 
ATOM      3  C   UNL     1     -34.883  21.383   1.078  0.00  0.00    +0.246 C 
ATOM      4  H   UNL     1     -34.129  22.766  -0.245  0.00  0.00    +0.150 HD
ENDROOT
BRANCH   3   5
ATOM      5  C   UNL     1     -33.742  20.503   0.891  0.00  0.00    +0.053 C 
ATOM      6  C   UNL     1     -33.729  19.241   1.482  0.00  0.00    +0.005 C 
ATOM      7  C   UNL     1     -32.658  20.923   0.119  0.00  0.00    +0.005 C 
ATOM      8  C   UNL     1     -31.548  18.816   0.532  0.00  0.00    +0.042 C 
ATOM      9  C   UNL     1     -32.632  18.397   1.303  0.00  0.00    +0.003 C 
ATOM     10  C   UNL     1     -31.561  20.079  -0.061  0.00  0.00    +0.003 C 
BRANCH   8  12
ATOM     11  O   UNL     1     -30.122  17.000   1.098  0.00  0.00    -0.283 OA
ATOM     12  C   UNL     1     -30.407  17.937   0.344  0.00  0.00    +0.238 C 
BRANCH  12  14
ATOM     13  O   UNL     1     -28.352  18.565  -0.640  0.00  0.00    -0.280 OA
ATOM     14  C   UNL     1     -29.470  18.116  -0.824  0.00  0.00    +0.276 C 
ENDBRANCH  12  14
ENDBRANCH   8  12
ENDBRANCH   3   5
BRANCH   2  15
ATOM     15  C   UNL     1     -35.935  23.572   0.455  0.00  0.00    +0.102 C 
BRANCH  15  16
ATOM     16  C   UNL     1     -35.676  24.614   1.537  0.00  0.00    +0.090 C 
BRANCH  16  17
ATOM     17  S   UNL     1     -33.928  25.110   1.609  0.00  0.00    -0.080 S 
BRANCH  17  18
ATOM     18  S   UNL     1     -33.716  25.571   3.599  0.00  0.00    -0.080 S 
BRANCH  18  19
ATOM     19  C   UNL     1     -35.263  26.444   3.943  0.00  0.00    +0.090 C 
BRANCH  19  20
ATOM     20  C   UNL     1     -36.072  25.771   5.044  0.00  0.00    +0.102 C 
BRANCH  20  22
ATOM     21  O   UNL     1     -36.723  22.997   4.490  0.00  0.00    -0.275 OA
ATOM     22  N   UNL     1     -35.429  24.599   5.576  0.00  0.00    -0.303 N 
ATOM     23  C   UNL     1     -35.812  23.305   5.253  0.00  0.00    +0.223 C 
ATOM     24  C   UNL     1     -34.958  22.266   5.930  0.00  0.00    +0.095 C 
ATOM     25  H   UNL     1     -34.680  24.722   6.203  0.00  0.00    +0.149 HD
ENDBRANCH  20  22
ENDBRANCH  19  20
ENDBRANCH  18  19
ENDBRANCH  17  18
ENDBRANCH  16  17
ENDBRANCH  15  16
ENDBRANCH   2  15
TORSDOF 10
ENDMDL
MODEL 6
REMARK VINA RESULT:      -5.0      7.289      9.803
REMARK  Name = 194490
REMARK  10 active torsions:
REMARK  status: ('A' for Active; 'I' for Inactive)
REMARK    1  A    between atoms: N_2  and  C_15
REMARK    2  A    between atoms: C_3  and  C_5
REMARK    3  A    between atoms: C_8  and  C_12
REMARK    4  A    between atoms: C_12  and  C_14
REMARK    5  A    between atoms: C_15  and  C_16
REMARK    6  A    between atoms: C_16  and  S_17
REMARK    7  A    between atoms: S_17  and  S_18
REMARK    8  A    between atoms: S_18  and  C_19
REMARK    9  A    between atoms: C_19  and  C_20
REMARK   10  A    between atoms: C_20  and  N_22
REMARK                            x       y       z     vdW  Elec       q    Type
REMARK                         _______ _______ _______ _____ _____    ______ ____
ROOT
ATOM      1  O   UNL     1     -32.592  28.558   3.669  0.00  0.00    -0.270 OA
ATOM      2  N   UNL     1     -32.275  28.288   5.950  0.00  0.00    -0.300 N 
ATOM      3  C   UNL     1     -32.777  27.893   4.704  0.00  0.00    +0.246 C 
ATOM      4  H   UNL     1     -32.458  27.714   6.728  0.00  0.00    +0.150 HD
ENDROOT
BRANCH   3   5
ATOM      5  C   UNL     1     -33.556  26.666   4.665  0.00  0.00    +0.053 C 
ATOM      6  C   UNL     1     -34.249  26.243   5.799  0.00  0.00    +0.005 C 
ATOM      7  C   UNL     1     -33.611  25.913   3.493  0.00  0.00    +0.005 C 
ATOM      8  C   UNL     1     -35.050  24.311   4.589  0.00  0.00    +0.042 C 
ATOM      9  C   UNL     1     -34.996  25.065   5.761  0.00  0.00    +0.003 C 
ATOM     10  C   UNL     1     -34.358  24.735   3.454  0.00  0.00    +0.003 C 
BRANCH   8  12
ATOM     11  O   UNL     1     -36.789  22.897   3.793  0.00  0.00    -0.283 OA
ATOM     12  C   UNL     1     -35.829  23.085   4.550  0.00  0.00    +0.238 C 
BRANCH  12  14
ATOM     13  O   UNL     1     -35.948  21.898   6.590  0.00  0.00    -0.280 OA
ATOM     14  C   UNL     1     -35.502  21.925   5.457  0.00  0.00    +0.276 C 
ENDBRANCH  12  14
ENDBRANCH   8  12
ENDBRANCH   3   5
BRANCH   2  15
ATOM     15  C   UNL     1     -31.503  29.493   6.155  0.00  0.00    +0.102 C 
BRANCH  15  16
ATOM     16  C   UNL     1     -30.033  29.327   5.792  0.00  0.00    +0.090 C 
BRANCH  16  17
ATOM     17  S   UNL     1     -29.553  30.364   4.378  0.00  0.00    -0.080 S 
BRANCH  17  18
ATOM     18  S   UNL     1     -31.036  31.786   4.391  0.00  0.00    -0.080 S 
BRANCH  18  19
ATOM     19  C   UNL     1     -31.613  31.732   2.677  0.00  0.00    +0.090 C 
BRANCH  19  20
ATOM     20  C   UNL     1     -32.898  32.524   2.476  0.00  0.00    +0.102 C 
BRANCH  20  22
ATOM     21  O   UNL     1     -34.792  30.937   4.000  0.00  0.00    -0.275 OA
ATOM     22  N   UNL     1     -33.977  31.723   1.965  0.00  0.00    -0.303 N 
ATOM     23  C   UNL     1     -34.837  30.993   2.774  0.00  0.00    +0.223 C 
ATOM     24  C   UNL     1     -35.891  30.264   1.984  0.00  0.00    +0.095 C 
ATOM     25  H   UNL     1     -34.113  31.690   0.990  0.00  0.00    +0.149 HD
ENDBRANCH  20  22
ENDBRANCH  19  20
ENDBRANCH  18  19
ENDBRANCH  17  18
ENDBRANCH  16  17
ENDBRANCH  15  16
ENDBRANCH   2  15
TORSDOF 10
ENDMDL
MODEL 7
REMARK VINA RESULT:      -5.0      6.207      8.733
REMARK  Name = 194490
REMARK  10 active torsions:
REMARK  status: ('A' for Active; 'I' for Inactive)
REMARK    1  A    between atoms: N_2  and  C_15
REMARK    2  A    between atoms: C_3  and  C_5
REMARK    3  A    between atoms: C_8  and  C_12
REMARK    4  A    between atoms: C_12  and  C_14
REMARK    5  A    between atoms: C_15  and  C_16
REMARK    6  A    between atoms: C_16  and  S_17
REMARK    7  A    between atoms: S_17  and  S_18
REMARK    8  A    between atoms: S_18  and  C_19
REMARK    9  A    between atoms: C_19  and  C_20
REMARK   10  A    between atoms: C_20  and  N_22
REMARK                            x       y       z     vdW  Elec       q    Type
REMARK                         _______ _______ _______ _____ _____    ______ ____
ROOT
ATOM      1  O   UNL     1     -35.334  27.674   1.209  0.00  0.00    -0.270 OA
ATOM      2  N   UNL     1     -35.223  28.814   3.226  0.00  0.00    -0.300 N 
ATOM      3  C   UNL     1     -35.299  27.650   2.453  0.00  0.00    +0.246 C 
ATOM      4  H   UNL     1     -35.198  28.723   4.205  0.00  0.00    +0.150 HD
ENDROOT
BRANCH   3   5
ATOM      5  C   UNL     1     -35.360  26.386   3.169  0.00  0.00    +0.053 C 
ATOM      6  C   UNL     1     -35.772  26.357   4.501  0.00  0.00    +0.005 C 
ATOM      7  C   UNL     1     -35.004  25.202   2.523  0.00  0.00    +0.005 C 
ATOM      8  C   UNL     1     -35.474  23.959   4.542  0.00  0.00    +0.042 C 
ATOM      9  C   UNL     1     -35.829  25.144   5.187  0.00  0.00    +0.003 C 
ATOM     10  C   UNL     1     -35.062  23.988   3.209  0.00  0.00    +0.003 C 
BRANCH   8  12
ATOM     11  O   UNL     1     -36.172  22.520   6.302  0.00  0.00    -0.283 OA
ATOM     12  C   UNL     1     -35.535  22.696   5.257  0.00  0.00    +0.238 C 
BRANCH  12  14
ATOM     13  O   UNL     1     -35.370  20.698   4.006  0.00  0.00    -0.280 OA
ATOM     14  C   UNL     1     -34.803  21.479   4.750  0.00  0.00    +0.276 C 
ENDBRANCH  12  14
ENDBRANCH   8  12
ENDBRANCH   3   5
BRANCH   2  15
ATOM     15  C   UNL     1     -35.179  30.145   2.663  0.00  0.00    +0.102 C 
BRANCH  15  16
ATOM     16  C   UNL     1     -33.859  30.860   2.926  0.00  0.00    +0.090 C 
BRANCH  16  17
ATOM     17  S   UNL     1     -32.526  30.260   1.845  0.00  0.00    -0.080 S 
BRANCH  17  18
ATOM     18  S   UNL     1     -30.885  30.475   3.061  0.00  0.00    -0.080 S 
BRANCH  18  19
ATOM     19  C   UNL     1     -31.621  31.191   4.551  0.00  0.00    +0.090 C 
BRANCH  19  20
ATOM     20  C   UNL     1     -31.226  30.433   5.810  0.00  0.00    +0.102 C 
BRANCH  20  22
ATOM     21  O   UNL     1     -30.526  27.667   6.343  0.00  0.00    -0.275 OA
ATOM     22  N   UNL     1     -32.120  29.349   6.117  0.00  0.00    -0.303 N 
ATOM     23  C   UNL     1     -31.692  28.050   6.358  0.00  0.00    +0.223 C 
ATOM     24  C   UNL     1     -32.830  27.119   6.678  0.00  0.00    +0.095 C 
ATOM     25  H   UNL     1     -33.086  29.537   6.157  0.00  0.00    +0.149 HD
ENDBRANCH  20  22
ENDBRANCH  19  20
ENDBRANCH  18  19
ENDBRANCH  17  18
ENDBRANCH  16  17
ENDBRANCH  15  16
ENDBRANCH   2  15
TORSDOF 10
ENDMDL
MODEL 8
REMARK VINA RESULT:      -5.0      2.425      2.929
REMARK  Name = 194490
REMARK  10 active torsions:
REMARK  status: ('A' for Active; 'I' for Inactive)
REMARK    1  A    between atoms: N_2  and  C_15
REMARK    2  A    between atoms: C_3  and  C_5
REMARK    3  A    between atoms: C_8  and  C_12
REMARK    4  A    between atoms: C_12  and  C_14
REMARK    5  A    between atoms: C_15  and  C_16
REMARK    6  A    between atoms: C_16  and  S_17
REMARK    7  A    between atoms: S_17  and  S_18
REMARK    8  A    between atoms: S_18  and  C_19
REMARK    9  A    between atoms: C_19  and  C_20
REMARK   10  A    between atoms: C_20  and  N_22
REMARK                            x       y       z     vdW  Elec       q    Type
REMARK                         _______ _______ _______ _____ _____    ______ ____
ROOT
ATOM      1  O   UNL     1     -34.636  22.590  -0.916  0.00  0.00    -0.270 OA
ATOM      2  N   UNL     1     -34.500  22.920   1.375  0.00  0.00    -0.300 N 
ATOM      3  C   UNL     1     -34.200  22.233   0.193  0.00  0.00    +0.246 C 
ATOM      4  H   UNL     1     -34.121  22.584   2.219  0.00  0.00    +0.150 HD
ENDROOT
BRANCH   3   5
ATOM      5  C   UNL     1     -33.363  21.050   0.313  0.00  0.00    +0.053 C 
ATOM      6  C   UNL     1     -32.139  20.990  -0.351  0.00  0.00    +0.005 C 
ATOM      7  C   UNL     1     -33.788  19.973   1.092  0.00  0.00    +0.005 C 
ATOM      8  C   UNL     1     -31.761  18.777   0.542  0.00  0.00    +0.042 C 
ATOM      9  C   UNL     1     -31.337  19.854  -0.237  0.00  0.00    +0.003 C 
ATOM     10  C   UNL     1     -32.986  18.836   1.207  0.00  0.00    +0.003 C 
BRANCH   8  12
ATOM     11  O   UNL     1     -31.362  16.437   0.693  0.00  0.00    -0.283 OA
ATOM     12  C   UNL     1     -30.926  17.594   0.661  0.00  0.00    +0.238 C 
BRANCH  12  14
ATOM     13  O   UNL     1     -28.877  17.636   1.839  0.00  0.00    -0.280 OA
ATOM     14  C   UNL     1     -29.425  17.707   0.753  0.00  0.00    +0.276 C 
ENDBRANCH  12  14
ENDBRANCH   8  12
ENDBRANCH   3   5
BRANCH   2  15
ATOM     15  C   UNL     1     -35.336  24.099   1.424  0.00  0.00    +0.102 C 
BRANCH  15  16
ATOM     16  C   UNL     1     -34.540  25.387   1.593  0.00  0.00    +0.090 C 
BRANCH  16  17
ATOM     17  S   UNL     1     -35.463  26.647   2.523  0.00  0.00    -0.080 S 
BRANCH  17  18
ATOM     18  S   UNL     1     -37.405  26.117   2.116  0.00  0.00    -0.080 S 
BRANCH  18  19
ATOM     19  C   UNL     1     -37.861  25.208   3.613  0.00  0.00    +0.090 C 
BRANCH  19  20
ATOM     20  C   UNL     1     -36.736  25.187   4.638  0.00  0.00    +0.102 C 
BRANCH  20  22
ATOM     21  O   UNL     1     -34.114  23.981   4.951  0.00  0.00    -0.275 OA
ATOM     22  N   UNL     1     -36.434  23.863   5.113  0.00  0.00    -0.303 N 
ATOM     23  C   UNL     1     -35.141  23.369   5.229  0.00  0.00    +0.223 C 
ATOM     24  C   UNL     1     -35.108  21.966   5.774  0.00  0.00    +0.095 C 
ATOM     25  H   UNL     1     -37.182  23.276   5.368  0.00  0.00    +0.149 HD
ENDBRANCH  20  22
ENDBRANCH  19  20
ENDBRANCH  18  19
ENDBRANCH  17  18
ENDBRANCH  16  17
ENDBRANCH  15  16
ENDBRANCH   2  15
TORSDOF 10
ENDMDL
MODEL 9
REMARK VINA RESULT:      -5.0      7.083      9.758
REMARK  Name = 194490
REMARK  10 active torsions:
REMARK  status: ('A' for Active; 'I' for Inactive)
REMARK    1  A    between atoms: N_2  and  C_15
REMARK    2  A    between atoms: C_3  and  C_5
REMARK    3  A    between atoms: C_8  and  C_12
REMARK    4  A    between atoms: C_12  and  C_14
REMARK    5  A    between atoms: C_15  and  C_16
REMARK    6  A    between atoms: C_16  and  S_17
REMARK    7  A    between atoms: S_17  and  S_18
REMARK    8  A    between atoms: S_18  and  C_19
REMARK    9  A    between atoms: C_19  and  C_20
REMARK   10  A    between atoms: C_20  and  N_22
REMARK                            x       y       z     vdW  Elec       q    Type
REMARK                         _______ _______ _______ _____ _____    ______ ____
ROOT
ATOM      1  O   UNL     1     -31.422  27.570   3.546  0.00  0.00    -0.270 OA
ATOM      2  N   UNL     1     -33.105  28.904   4.422  0.00  0.00    -0.300 N 
ATOM      3  C   UNL     1     -32.558  27.672   4.044  0.00  0.00    +0.246 C 
ATOM      4  H   UNL     1     -34.008  28.912   4.811  0.00  0.00    +0.150 HD
ENDROOT
BRANCH   3   5
ATOM      5  C   UNL     1     -33.389  26.494   4.237  0.00  0.00    +0.053 C 
ATOM      6  C   UNL     1     -33.680  25.661   3.157  0.00  0.00    +0.005 C 
ATOM      7  C   UNL     1     -33.895  26.199   5.502  0.00  0.00    +0.005 C 
ATOM      8  C   UNL     1     -34.985  24.236   4.608  0.00  0.00    +0.042 C 
ATOM      9  C   UNL     1     -34.478  24.532   3.343  0.00  0.00    +0.003 C 
ATOM     10  C   UNL     1     -34.693  25.069   5.689  0.00  0.00    +0.003 C 
BRANCH   8  12
ATOM     11  O   UNL     1     -36.801  22.785   4.107  0.00  0.00    -0.283 OA
ATOM     12  C   UNL     1     -35.816  23.059   4.801  0.00  0.00    +0.238 C 
BRANCH  12  14
ATOM     13  O   UNL     1     -35.150  20.939   5.604  0.00  0.00    -0.280 OA
ATOM     14  C   UNL     1     -35.514  22.065   5.893  0.00  0.00    +0.276 C 
ENDBRANCH  12  14
ENDBRANCH   8  12
ENDBRANCH   3   5
BRANCH   2  15
ATOM     15  C   UNL     1     -32.413  30.164   4.272  0.00  0.00    +0.102 C 
BRANCH  15  16
ATOM     16  C   UNL     1     -31.432  30.444   5.403  0.00  0.00    +0.090 C 
BRANCH  16  17
ATOM     17  S   UNL     1     -29.989  31.397   4.842  0.00  0.00    -0.080 S 
BRANCH  17  18
ATOM     18  S   UNL     1     -28.746  29.904   4.175  0.00  0.00    -0.080 S 
BRANCH  18  19
ATOM     19  C   UNL     1     -28.885  28.687   5.507  0.00  0.00    +0.090 C 
BRANCH  19  20
ATOM     20  C   UNL     1     -27.864  27.566   5.372  0.00  0.00    +0.102 C 
BRANCH  20  22
ATOM     21  O   UNL     1     -28.473  25.592   3.332  0.00  0.00    -0.275 OA
ATOM     22  N   UNL     1     -27.304  27.473   4.050  0.00  0.00    -0.303 N 
ATOM     23  C   UNL     1     -27.657  26.488   3.138  0.00  0.00    +0.223 C 
ATOM     24  C   UNL     1     -26.939  26.637   1.823  0.00  0.00    +0.095 C 
ATOM     25  H   UNL     1     -26.634  28.142   3.779  0.00  0.00    +0.149 HD
ENDBRANCH  20  22
ENDBRANCH  19  20
ENDBRANCH  18  19
ENDBRANCH  17  18
ENDBRANCH  16  17
ENDBRANCH  15  16
ENDBRANCH   2  15
TORSDOF 10
ENDMDL
