MODEL 1
REMARK VINA RESULT:      -5.9      0.000      0.000
REMARK  Name = 21124076
REMARK  8 active torsions:
REMARK  status: ('A' for Active; 'I' for Inactive)
REMARK    1  A    between atoms: CA_5  and  N_11
REMARK    2  A    between atoms: CA_7  and  C_23
REMARK    3  A    between atoms: C_8  and  C_26
REMARK    4  A    between atoms: C_12  and  C_14
REMARK    5  A    between atoms: C_14  and  S_15
REMARK    6  A    between atoms: S_15  and  C_17
REMARK    7  A    between atoms: C_23  and  O_24
REMARK    8  A    between atoms: C_26  and  O_27
REMARK                            x       y       z     vdW  Elec       q    Type
REMARK                         _______ _______ _______ _____ _____    ______ ____
ROOT
ATOM      1  S   UNL     1     -39.064  23.532   0.490  0.00  0.00    -0.114 S 
ATOM      2  O   UNL     1     -37.347  25.633   4.265  0.00  0.00    -0.273 OA
ATOM      3  N   UNL     1     -37.980  23.820   2.896  0.00  0.00    -0.242 N 
ATOM      4  C   UNL     1     -39.282  23.855   2.255  0.00  0.00    +0.155 C 
ATOM      5  CA  UNL     1     -39.344  25.339   2.679  0.00  0.00    +0.178 C 
ATOM      6  C   UNL     1     -38.054  25.031   3.491  0.00  0.00    +0.251 C 
ATOM      7  CA  UNL     1     -37.114  22.779   2.790  0.00  0.00    +0.126 C 
ATOM      8  C   UNL     1     -37.270  21.822   1.844  0.00  0.00    +0.016 C 
ATOM      9  C   UNL     1     -38.351  21.875   0.767  0.00  0.00    +0.085 C 
ENDROOT
BRANCH   5  11
ATOM     10  O   UNL     1     -41.341  27.303   1.976  0.00  0.00    -0.274 OA
ATOM     11  N   UNL     1     -40.465  25.789   3.503  0.00  0.00    -0.296 N 
ATOM     12  C   UNL     1     -41.381  26.748   3.072  0.00  0.00    +0.234 C 
ATOM     13  H   UNL     1     -40.578  25.398   4.399  0.00  0.00    +0.150 HD
BRANCH  12  14
ATOM     14  C   UNL     1     -42.465  27.043   4.080  0.00  0.00    +0.147 C 
BRANCH  14  15
ATOM     15  S   UNL     1     -43.294  28.582   3.615  0.00  0.00    -0.104 S 
BRANCH  15  17
ATOM     16  N   UNL     1     -45.092  29.907   7.608  0.00  0.00    -0.242 NA
ATOM     17  C   UNL     1     -43.999  29.101   5.176  0.00  0.00    +0.029 C 
ATOM     18  C   UNL     1     -45.152  28.495   5.647  0.00  0.00    +0.027 C 
ATOM     19  C   UNL     1     -43.384  30.105   5.909  0.00  0.00    +0.027 C 
ATOM     20  C   UNL     1     -45.657  28.932   6.861  0.00  0.00    +0.099 C 
ATOM     21  C   UNL     1     -43.968  30.469   7.111  0.00  0.00    +0.099 C 
ENDBRANCH  15  17
ENDBRANCH  14  15
ENDBRANCH  12  14
ENDBRANCH   5  11
BRANCH   7  23
ATOM     22  OXT UNL     1     -34.914  23.348   3.489  0.00  0.00    -0.244 OA
ATOM     23  C   UNL     1     -35.963  22.775   3.705  0.00  0.00    +0.351 C 
BRANCH  23  24
ATOM     24  O   UNL     1     -36.262  22.042   4.796  0.00  0.00    -0.476 OA
ATOM     25  H   UNL     1     -35.624  21.460   5.158  0.00  0.00    +0.295 HD
ENDBRANCH  23  24
ENDBRANCH   7  23
BRANCH   8  26
ATOM     26  C   UNL     1     -36.400  20.595   1.714  0.00  0.00    +0.162 C 
BRANCH  26  27
ATOM     27  O   UNL     1     -36.748  19.666   2.720  0.00  0.00    -0.377 OA
ATOM     28  H   UNL     1     -36.876  20.133   3.560  0.00  0.00    +0.211 HD
ENDBRANCH  26  27
ENDBRANCH   8  26
TORSDOF 8
ENDMDL
MODEL 2
REMARK VINA RESULT:      -5.8      1.751      2.110
REMARK  Name = 21124076
REMARK  8 active torsions:
REMARK  status: ('A' for Active; 'I' for Inactive)
REMARK    1  A    between atoms: CA_5  and  N_11
REMARK    2  A    between atoms: CA_7  and  C_23
REMARK    3  A    between atoms: C_8  and  C_26
REMARK    4  A    between atoms: C_12  and  C_14
REMARK    5  A    between atoms: C_14  and  S_15
REMARK    6  A    between atoms: S_15  and  C_17
REMARK    7  A    between atoms: C_23  and  O_24
REMARK    8  A    between atoms: C_26  and  O_27
REMARK                            x       y       z     vdW  Elec       q    Type
REMARK                         _______ _______ _______ _____ _____    ______ ____
ROOT
ATOM      1  S   UNL     1     -38.789  23.306   0.553  0.00  0.00    -0.114 S 
ATOM      2  O   UNL     1     -37.446  25.671   4.323  0.00  0.00    -0.273 OA
ATOM      3  N   UNL     1     -37.889  23.764   3.008  0.00  0.00    -0.242 N 
ATOM      4  C   UNL     1     -39.143  23.698   2.281  0.00  0.00    +0.155 C 
ATOM      5  CA  UNL     1     -39.311  25.194   2.625  0.00  0.00    +0.178 C 
ATOM      6  C   UNL     1     -38.066  24.995   3.536  0.00  0.00    +0.251 C 
ATOM      7  CA  UNL     1     -36.965  22.769   3.012  0.00  0.00    +0.126 C 
ATOM      8  C   UNL     1     -37.006  21.762   2.107  0.00  0.00    +0.016 C 
ATOM      9  C   UNL     1     -38.012  21.705   0.959  0.00  0.00    +0.085 C 
ENDROOT
BRANCH   5  11
ATOM     10  O   UNL     1     -41.131  27.311   1.885  0.00  0.00    -0.274 OA
ATOM     11  N   UNL     1     -40.508  25.620   3.349  0.00  0.00    -0.296 N 
ATOM     12  C   UNL     1     -41.327  26.658   2.909  0.00  0.00    +0.234 C 
ATOM     13  H   UNL     1     -40.746  25.153   4.183  0.00  0.00    +0.150 HD
BRANCH  12  14
ATOM     14  C   UNL     1     -42.516  26.911   3.805  0.00  0.00    +0.147 C 
BRANCH  14  15
ATOM     15  S   UNL     1     -44.030  26.729   2.833  0.00  0.00    -0.104 S 
BRANCH  15  17
ATOM     16  N   UNL     1     -47.073  25.621   6.065  0.00  0.00    -0.242 NA
ATOM     17  C   UNL     1     -45.222  26.296   4.096  0.00  0.00    +0.029 C 
ATOM     18  C   UNL     1     -46.182  25.331   3.837  0.00  0.00    +0.027 C 
ATOM     19  C   UNL     1     -45.177  26.927   5.330  0.00  0.00    +0.027 C 
ATOM     20  C   UNL     1     -47.080  25.031   4.848  0.00  0.00    +0.099 C 
ATOM     21  C   UNL     1     -46.119  26.555   6.275  0.00  0.00    +0.099 C 
ENDBRANCH  15  17
ENDBRANCH  14  15
ENDBRANCH  12  14
ENDBRANCH   5  11
BRANCH   7  23
ATOM     22  OXT UNL     1     -34.817  23.418   3.796  0.00  0.00    -0.244 OA
ATOM     23  C   UNL     1     -35.881  22.870   4.001  0.00  0.00    +0.351 C 
BRANCH  23  24
ATOM     24  O   UNL     1     -36.260  22.265   5.143  0.00  0.00    -0.476 OA
ATOM     25  H   UNL     1     -36.234  22.734   5.953  0.00  0.00    +0.295 HD
ENDBRANCH  23  24
ENDBRANCH   7  23
BRANCH   8  26
ATOM     26  C   UNL     1     -36.067  20.580   2.097  0.00  0.00    +0.162 C 
BRANCH  26  27
ATOM     27  O   UNL     1     -36.759  19.428   2.530  0.00  0.00    -0.377 OA
ATOM     28  H   UNL     1     -36.157  18.667   2.522  0.00  0.00    +0.211 HD
ENDBRANCH  26  27
ENDBRANCH   8  26
TORSDOF 8
ENDMDL
MODEL 3
REMARK VINA RESULT:      -5.7      6.987     10.035
REMARK  Name = 21124076
REMARK  8 active torsions:
REMARK  status: ('A' for Active; 'I' for Inactive)
REMARK    1  A    between atoms: CA_5  and  N_11
REMARK    2  A    between atoms: CA_7  and  C_23
REMARK    3  A    between atoms: C_8  and  C_26
REMARK    4  A    between atoms: C_12  and  C_14
REMARK    5  A    between atoms: C_14  and  S_15
REMARK    6  A    between atoms: S_15  and  C_17
REMARK    7  A    between atoms: C_23  and  O_24
REMARK    8  A    between atoms: C_26  and  O_27
REMARK                            x       y       z     vdW  Elec       q    Type
REMARK                         _______ _______ _______ _____ _____    ______ ____
ROOT
ATOM      1  S   UNL     1     -30.915  29.679   2.731  0.00  0.00    -0.114 S 
ATOM      2  O   UNL     1     -32.420  28.072   6.825  0.00  0.00    -0.273 OA
ATOM      3  N   UNL     1     -30.909  28.368   5.039  0.00  0.00    -0.242 N 
ATOM      4  C   UNL     1     -31.401  28.220   3.681  0.00  0.00    +0.155 C 
ATOM      5  CA  UNL     1     -32.818  28.241   4.295  0.00  0.00    +0.178 C 
ATOM      6  C   UNL     1     -32.089  28.171   5.667  0.00  0.00    +0.251 C 
ATOM      7  CA  UNL     1     -29.612  28.626   5.349  0.00  0.00    +0.126 C 
ATOM      8  C   UNL     1     -28.733  29.055   4.412  0.00  0.00    +0.016 C 
ATOM      9  C   UNL     1     -29.131  29.381   2.974  0.00  0.00    +0.085 C 
ENDROOT
BRANCH   5  11
ATOM     10  O   UNL     1     -35.264  28.263   2.760  0.00  0.00    -0.274 OA
ATOM     11  N   UNL     1     -33.710  27.110   4.043  0.00  0.00    -0.296 N 
ATOM     12  C   UNL     1     -34.875  27.222   3.285  0.00  0.00    +0.234 C 
ATOM     13  H   UNL     1     -33.479  26.233   4.425  0.00  0.00    +0.150 HD
BRANCH  12  14
ATOM     14  C   UNL     1     -35.630  25.922   3.143  0.00  0.00    +0.147 C 
BRANCH  14  15
ATOM     15  S   UNL     1     -36.198  25.393   4.776  0.00  0.00    -0.104 S 
BRANCH  15  17
ATOM     16  N   UNL     1     -35.150  20.939   4.722  0.00  0.00    -0.242 NA
ATOM     17  C   UNL     1     -35.787  23.651   4.755  0.00  0.00    +0.029 C 
ATOM     18  C   UNL     1     -35.383  23.024   5.922  0.00  0.00    +0.027 C 
ATOM     19  C   UNL     1     -35.878  22.936   3.570  0.00  0.00    +0.027 C 
ATOM     20  C   UNL     1     -35.077  21.674   5.854  0.00  0.00    +0.099 C 
ATOM     21  C   UNL     1     -35.550  21.591   3.607  0.00  0.00    +0.099 C 
ENDBRANCH  15  17
ENDBRANCH  14  15
ENDBRANCH  12  14
ENDBRANCH   5  11
BRANCH   7  23
ATOM     22  OXT UNL     1     -29.030  29.411   7.515  0.00  0.00    -0.244 OA
ATOM     23  C   UNL     1     -29.222  28.481   6.759  0.00  0.00    +0.351 C 
BRANCH  23  24
ATOM     24  O   UNL     1     -29.114  27.172   7.060  0.00  0.00    -0.476 OA
ATOM     25  H   UNL     1     -29.740  26.561   6.724  0.00  0.00    +0.295 HD
ENDBRANCH  23  24
ENDBRANCH   7  23
BRANCH   8  26
ATOM     26  C   UNL     1     -27.261  29.285   4.658  0.00  0.00    +0.162 C 
BRANCH  26  27
ATOM     27  O   UNL     1     -27.081  30.542   5.276  0.00  0.00    -0.377 OA
ATOM     28  H   UNL     1     -26.242  30.546   5.763  0.00  0.00    +0.211 HD
ENDBRANCH  26  27
ENDBRANCH   8  26
TORSDOF 8
ENDMDL
MODEL 4
REMARK VINA RESULT:      -5.7      5.720     10.847
REMARK  Name = 21124076
REMARK  8 active torsions:
REMARK  status: ('A' for Active; 'I' for Inactive)
REMARK    1  A    between atoms: CA_5  and  N_11
REMARK    2  A    between atoms: CA_7  and  C_23
REMARK    3  A    between atoms: C_8  and  C_26
REMARK    4  A    between atoms: C_12  and  C_14
REMARK    5  A    between atoms: C_14  and  S_15
REMARK    6  A    between atoms: S_15  and  C_17
REMARK    7  A    between atoms: C_23  and  O_24
REMARK    8  A    between atoms: C_26  and  O_27
REMARK                            x       y       z     vdW  Elec       q    Type
REMARK                         _______ _______ _______ _____ _____    ______ ____
ROOT
ATOM      1  S   UNL     1     -37.673  22.545   1.088  0.00  0.00    -0.114 S 
ATOM      2  O   UNL     1     -35.075  20.740   4.494  0.00  0.00    -0.273 OA
ATOM      3  N   UNL     1     -35.788  22.372   2.949  0.00  0.00    -0.242 N 
ATOM      4  C   UNL     1     -36.030  21.970   1.576  0.00  0.00    +0.155 C 
ATOM      5  CA  UNL     1     -35.936  20.515   2.086  0.00  0.00    +0.178 C 
ATOM      6  C   UNL     1     -35.471  21.149   3.428  0.00  0.00    +0.251 C 
ATOM      7  CA  UNL     1     -35.905  23.650   3.394  0.00  0.00    +0.126 C 
ATOM      8  C   UNL     1     -36.540  24.598   2.663  0.00  0.00    +0.016 C 
ATOM      9  C   UNL     1     -37.256  24.303   1.346  0.00  0.00    +0.085 C 
ENDROOT
BRANCH   5  11
ATOM     10  O   UNL     1     -36.279  18.875  -0.267  0.00  0.00    -0.274 OA
ATOM     11  N   UNL     1     -34.948  19.621   1.484  0.00  0.00    -0.296 N 
ATOM     12  C   UNL     1     -35.210  18.866   0.342  0.00  0.00    +0.234 C 
ATOM     13  H   UNL     1     -34.061  19.548   1.903  0.00  0.00    +0.150 HD
BRANCH  12  14
ATOM     14  C   UNL     1     -34.039  18.029  -0.112  0.00  0.00    +0.147 C 
BRANCH  14  15
ATOM     15  S   UNL     1     -32.766  18.059   1.173  0.00  0.00    -0.104 S 
BRANCH  15  17
ATOM     16  N   UNL     1     -29.473  20.518  -0.839  0.00  0.00    -0.242 NA
ATOM     17  C   UNL     1     -31.478  19.021   0.384  0.00  0.00    +0.029 C 
ATOM     18  C   UNL     1     -31.772  20.271  -0.136  0.00  0.00    +0.027 C 
ATOM     19  C   UNL     1     -30.192  18.511   0.300  0.00  0.00    +0.027 C 
ATOM     20  C   UNL     1     -30.741  20.976  -0.735  0.00  0.00    +0.099 C 
ATOM     21  C   UNL     1     -29.231  19.295  -0.318  0.00  0.00    +0.099 C 
ENDBRANCH  15  17
ENDBRANCH  14  15
ENDBRANCH  12  14
ENDBRANCH   5  11
BRANCH   7  23
ATOM     22  OXT UNL     1     -34.330  24.531   4.940  0.00  0.00    -0.244 OA
ATOM     23  C   UNL     1     -35.371  23.942   4.732  0.00  0.00    +0.351 C 
BRANCH  23  24
ATOM     24  O   UNL     1     -36.212  23.455   5.665  0.00  0.00    -0.476 OA
ATOM     25  H   UNL     1     -36.350  22.531   5.734  0.00  0.00    +0.295 HD
ENDBRANCH  23  24
ENDBRANCH   7  23
BRANCH   8  26
ATOM     26  C   UNL     1     -36.641  26.054   3.050  0.00  0.00    +0.162 C 
BRANCH  26  27
ATOM     27  O   UNL     1     -37.809  26.254   3.817  0.00  0.00    -0.377 OA
ATOM     28  H   UNL     1     -37.725  25.784   4.662  0.00  0.00    +0.211 HD
ENDBRANCH  26  27
ENDBRANCH   8  26
TORSDOF 8
ENDMDL
MODEL 5
REMARK VINA RESULT:      -5.6      5.989     10.189
REMARK  Name = 21124076
REMARK  8 active torsions:
REMARK  status: ('A' for Active; 'I' for Inactive)
REMARK    1  A    between atoms: CA_5  and  N_11
REMARK    2  A    between atoms: CA_7  and  C_23
REMARK    3  A    between atoms: C_8  and  C_26
REMARK    4  A    between atoms: C_12  and  C_14
REMARK    5  A    between atoms: C_14  and  S_15
REMARK    6  A    between atoms: S_15  and  C_17
REMARK    7  A    between atoms: C_23  and  O_24
REMARK    8  A    between atoms: C_26  and  O_27
REMARK                            x       y       z     vdW  Elec       q    Type
REMARK                         _______ _______ _______ _____ _____    ______ ____
ROOT
ATOM      1  S   UNL     1     -36.287  25.803   0.717  0.00  0.00    -0.114 S 
ATOM      2  O   UNL     1     -36.768  23.421   4.680  0.00  0.00    -0.273 OA
ATOM      3  N   UNL     1     -35.739  24.889   3.149  0.00  0.00    -0.242 N 
ATOM      4  C   UNL     1     -35.630  24.481   1.761  0.00  0.00    +0.155 C 
ATOM      5  CA  UNL     1     -36.607  23.340   2.120  0.00  0.00    +0.178 C 
ATOM      6  C   UNL     1     -36.410  23.803   3.591  0.00  0.00    +0.251 C 
ATOM      7  CA  UNL     1     -35.243  26.057   3.634  0.00  0.00    +0.126 C 
ATOM      8  C   UNL     1     -34.867  27.062   2.808  0.00  0.00    +0.016 C 
ATOM      9  C   UNL     1     -35.056  27.021   1.294  0.00  0.00    +0.085 C 
ENDROOT
BRANCH   5  11
ATOM     10  O   UNL     1     -38.306  21.124   1.380  0.00  0.00    -0.274 OA
ATOM     11  N   UNL     1     -36.196  21.958   1.877  0.00  0.00    -0.296 N 
ATOM     12  C   UNL     1     -37.096  20.954   1.523  0.00  0.00    +0.234 C 
ATOM     13  H   UNL     1     -35.244  21.727   1.967  0.00  0.00    +0.150 HD
BRANCH  12  14
ATOM     14  C   UNL     1     -36.445  19.609   1.303  0.00  0.00    +0.147 C 
BRANCH  14  15
ATOM     15  S   UNL     1     -35.529  19.649  -0.255  0.00  0.00    -0.104 S 
BRANCH  15  17
ATOM     16  N   UNL     1     -31.956  16.955   0.700  0.00  0.00    -0.242 NA
ATOM     17  C   UNL     1     -34.132  18.594   0.118  0.00  0.00    +0.029 C 
ATOM     18  C   UNL     1     -33.878  17.483  -0.668  0.00  0.00    +0.027 C 
ATOM     19  C   UNL     1     -33.309  18.896   1.193  0.00  0.00    +0.027 C 
ATOM     20  C   UNL     1     -32.784  16.699  -0.338  0.00  0.00    +0.099 C 
ATOM     21  C   UNL     1     -32.241  18.050   1.440  0.00  0.00    +0.099 C 
ENDBRANCH  15  17
ENDBRANCH  14  15
ENDBRANCH  12  14
ENDBRANCH   5  11
BRANCH   7  23
ATOM     22  OXT UNL     1     -34.199  26.024   5.769  0.00  0.00    -0.244 OA
ATOM     23  C   UNL     1     -35.194  26.204   5.096  0.00  0.00    +0.351 C 
BRANCH  23  24
ATOM     24  O   UNL     1     -36.410  26.562   5.550  0.00  0.00    -0.476 OA
ATOM     25  H   UNL     1     -36.862  27.284   5.160  0.00  0.00    +0.295 HD
ENDBRANCH  23  24
ENDBRANCH   7  23
BRANCH   8  26
ATOM     26  C   UNL     1     -34.232  28.354   3.265  0.00  0.00    +0.162 C 
BRANCH  26  27
ATOM     27  O   UNL     1     -35.231  29.343   3.403  0.00  0.00    -0.377 OA
ATOM     28  H   UNL     1     -35.499  29.404   4.334  0.00  0.00    +0.211 HD
ENDBRANCH  26  27
ENDBRANCH   8  26
TORSDOF 8
ENDMDL
MODEL 6
REMARK VINA RESULT:      -5.6      5.740     10.585
REMARK  Name = 21124076
REMARK  8 active torsions:
REMARK  status: ('A' for Active; 'I' for Inactive)
REMARK    1  A    between atoms: CA_5  and  N_11
REMARK    2  A    between atoms: CA_7  and  C_23
REMARK    3  A    between atoms: C_8  and  C_26
REMARK    4  A    between atoms: C_12  and  C_14
REMARK    5  A    between atoms: C_14  and  S_15
REMARK    6  A    between atoms: S_15  and  C_17
REMARK    7  A    between atoms: C_23  and  O_24
REMARK    8  A    between atoms: C_26  and  O_27
REMARK                            x       y       z     vdW  Elec       q    Type
REMARK                         _______ _______ _______ _____ _____    ______ ____
ROOT
ATOM      1  S   UNL     1     -37.387  24.310   1.906  0.00  0.00    -0.114 S 
ATOM      2  O   UNL     1     -35.395  20.313   3.199  0.00  0.00    -0.273 OA
ATOM      3  N   UNL     1     -35.730  22.647   3.145  0.00  0.00    -0.242 N 
ATOM      4  C   UNL     1     -35.891  23.296   1.857  0.00  0.00    +0.155 C 
ATOM      5  CA  UNL     1     -36.043  21.876   1.269  0.00  0.00    +0.178 C 
ATOM      6  C   UNL     1     -35.628  21.381   2.684  0.00  0.00    +0.251 C 
ATOM      7  CA  UNL     1     -35.716  23.311   4.330  0.00  0.00    +0.126 C 
ATOM      8  C   UNL     1     -36.145  24.593   4.426  0.00  0.00    +0.016 C 
ATOM      9  C   UNL     1     -36.765  25.361   3.261  0.00  0.00    +0.085 C 
ENDROOT
BRANCH   5  11
ATOM     10  O   UNL     1     -36.446  19.725  -0.616  0.00  0.00    -0.274 OA
ATOM     11  N   UNL     1     -35.132  21.453   0.206  0.00  0.00    -0.296 N 
ATOM     12  C   UNL     1     -35.417  20.397  -0.658  0.00  0.00    +0.234 C 
ATOM     13  H   UNL     1     -34.281  21.935   0.096  0.00  0.00    +0.150 HD
BRANCH  12  14
ATOM     14  C   UNL     1     -34.342  20.151  -1.688  0.00  0.00    +0.147 C 
BRANCH  14  15
ATOM     15  S   UNL     1     -32.817  20.961  -1.148  0.00  0.00    -0.104 S 
BRANCH  15  17
ATOM     16  N   UNL     1     -30.798  17.629   1.252  0.00  0.00    -0.242 NA
ATOM     17  C   UNL     1     -32.027  19.657  -0.210  0.00  0.00    +0.029 C 
ATOM     18  C   UNL     1     -30.698  19.345  -0.447  0.00  0.00    +0.027 C 
ATOM     19  C   UNL     1     -32.749  18.966   0.751  0.00  0.00    +0.027 C 
ATOM     20  C   UNL     1     -30.132  18.329   0.306  0.00  0.00    +0.099 C 
ATOM     21  C   UNL     1     -32.092  17.967   1.451  0.00  0.00    +0.099 C 
ENDBRANCH  15  17
ENDBRANCH  14  15
ENDBRANCH  12  14
ENDBRANCH   5  11
BRANCH   7  23
ATOM     22  OXT UNL     1     -34.142  22.553   5.941  0.00  0.00    -0.244 OA
ATOM     23  C   UNL     1     -35.278  22.556   5.513  0.00  0.00    +0.351 C 
BRANCH  23  24
ATOM     24  O   UNL     1     -36.327  21.885   6.028  0.00  0.00    -0.476 OA
ATOM     25  H   UNL     1     -36.494  21.911   6.949  0.00  0.00    +0.295 HD
ENDBRANCH  23  24
ENDBRANCH   7  23
BRANCH   8  26
ATOM     26  C   UNL     1     -36.086  25.424   5.686  0.00  0.00    +0.162 C 
BRANCH  26  27
ATOM     27  O   UNL     1     -36.616  26.707   5.425  0.00  0.00    -0.377 OA
ATOM     28  H   UNL     1     -36.855  26.772   4.488  0.00  0.00    +0.211 HD
ENDBRANCH  26  27
ENDBRANCH   8  26
TORSDOF 8
ENDMDL
MODEL 7
REMARK VINA RESULT:      -5.5      7.947     10.753
REMARK  Name = 21124076
REMARK  8 active torsions:
REMARK  status: ('A' for Active; 'I' for Inactive)
REMARK    1  A    between atoms: CA_5  and  N_11
REMARK    2  A    between atoms: CA_7  and  C_23
REMARK    3  A    between atoms: C_8  and  C_26
REMARK    4  A    between atoms: C_12  and  C_14
REMARK    5  A    between atoms: C_14  and  S_15
REMARK    6  A    between atoms: S_15  and  C_17
REMARK    7  A    between atoms: C_23  and  O_24
REMARK    8  A    between atoms: C_26  and  O_27
REMARK                            x       y       z     vdW  Elec       q    Type
REMARK                         _______ _______ _______ _____ _____    ______ ____
ROOT
ATOM      1  S   UNL     1     -30.721  31.510   4.578  0.00  0.00    -0.114 S 
ATOM      2  O   UNL     1     -31.566  27.457   6.693  0.00  0.00    -0.273 OA
ATOM      3  N   UNL     1     -30.265  29.124   5.650  0.00  0.00    -0.242 N 
ATOM      4  C   UNL     1     -30.747  29.710   4.413  0.00  0.00    +0.155 C 
ATOM      5  CA  UNL     1     -32.091  29.012   4.719  0.00  0.00    +0.178 C 
ATOM      6  C   UNL     1     -31.319  28.310   5.873  0.00  0.00    +0.251 C 
ATOM      7  CA  UNL     1     -29.079  29.449   6.227  0.00  0.00    +0.126 C 
ATOM      8  C   UNL     1     -28.389  30.553   5.853  0.00  0.00    +0.016 C 
ATOM      9  C   UNL     1     -28.916  31.570   4.842  0.00  0.00    +0.085 C 
ENDROOT
BRANCH   5  11
ATOM     10  O   UNL     1     -34.697  29.144   3.480  0.00  0.00    -0.274 OA
ATOM     11  N   UNL     1     -32.645  28.087   3.732  0.00  0.00    -0.296 N 
ATOM     12  C   UNL     1     -33.920  28.236   3.190  0.00  0.00    +0.234 C 
ATOM     13  H   UNL     1     -32.094  27.326   3.438  0.00  0.00    +0.150 HD
BRANCH  12  14
ATOM     14  C   UNL     1     -34.274  27.174   2.176  0.00  0.00    +0.147 C 
BRANCH  14  15
ATOM     15  S   UNL     1     -33.275  25.701   2.498  0.00  0.00    -0.104 S 
BRANCH  15  17
ATOM     16  N   UNL     1     -36.157  23.146   4.968  0.00  0.00    -0.242 NA
ATOM     17  C   UNL     1     -34.403  24.702   3.463  0.00  0.00    +0.029 C 
ATOM     18  C   UNL     1     -35.172  23.732   2.840  0.00  0.00    +0.027 C 
ATOM     19  C   UNL     1     -34.501  24.902   4.832  0.00  0.00    +0.027 C 
ATOM     20  C   UNL     1     -36.028  22.985   3.632  0.00  0.00    +0.099 C 
ATOM     21  C   UNL     1     -35.388  24.102   5.535  0.00  0.00    +0.099 C 
ENDBRANCH  15  17
ENDBRANCH  14  15
ENDBRANCH  12  14
ENDBRANCH   5  11
BRANCH   7  23
ATOM     22  OXT UNL     1     -28.104  27.493   7.161  0.00  0.00    -0.244 OA
ATOM     23  C   UNL     1     -28.611  28.585   7.320  0.00  0.00    +0.351 C 
BRANCH  23  24
ATOM     24  O   UNL     1     -28.835  29.196   8.500  0.00  0.00    -0.476 OA
ATOM     25  H   UNL     1     -28.125  29.591   8.965  0.00  0.00    +0.295 HD
ENDBRANCH  23  24
ENDBRANCH   7  23
BRANCH   8  26
ATOM     26  C   UNL     1     -27.030  30.937   6.387  0.00  0.00    +0.162 C 
BRANCH  26  27
ATOM     27  O   UNL     1     -27.186  31.631   7.607  0.00  0.00    -0.377 OA
ATOM     28  H   UNL     1     -27.617  32.483   7.441  0.00  0.00    +0.211 HD
ENDBRANCH  26  27
ENDBRANCH   8  26
TORSDOF 8
ENDMDL
MODEL 8
REMARK VINA RESULT:      -5.5      5.164     10.956
REMARK  Name = 21124076
REMARK  8 active torsions:
REMARK  status: ('A' for Active; 'I' for Inactive)
REMARK    1  A    between atoms: CA_5  and  N_11
REMARK    2  A    between atoms: CA_7  and  C_23
REMARK    3  A    between atoms: C_8  and  C_26
REMARK    4  A    between atoms: C_12  and  C_14
REMARK    5  A    between atoms: C_14  and  S_15
REMARK    6  A    between atoms: S_15  and  C_17
REMARK    7  A    between atoms: C_23  and  O_24
REMARK    8  A    between atoms: C_26  and  O_27
REMARK                            x       y       z     vdW  Elec       q    Type
REMARK                         _______ _______ _______ _____ _____    ______ ____
ROOT
ATOM      1  S   UNL     1     -38.909  22.419   1.502  0.00  0.00    -0.114 S 
ATOM      2  O   UNL     1     -35.264  20.428   3.590  0.00  0.00    -0.273 OA
ATOM      3  N   UNL     1     -36.536  22.188   2.670  0.00  0.00    -0.242 N 
ATOM      4  C   UNL     1     -37.158  21.991   1.374  0.00  0.00    +0.155 C 
ATOM      5  CA  UNL     1     -36.802  20.497   1.537  0.00  0.00    +0.178 C 
ATOM      6  C   UNL     1     -35.997  20.954   2.786  0.00  0.00    +0.251 C 
ATOM      7  CA  UNL     1     -36.607  23.347   3.374  0.00  0.00    +0.126 C 
ATOM      8  C   UNL     1     -37.505  24.312   3.059  0.00  0.00    +0.016 C 
ATOM      9  C   UNL     1     -38.566  24.149   1.973  0.00  0.00    +0.085 C 
ENDROOT
BRANCH   5  11
ATOM     10  O   UNL     1     -37.389  18.045   0.128  0.00  0.00    -0.274 OA
ATOM     11  N   UNL     1     -35.983  19.852   0.512  0.00  0.00    -0.296 N 
ATOM     12  C   UNL     1     -36.354  18.662  -0.113  0.00  0.00    +0.234 C 
ATOM     13  H   UNL     1     -35.134  20.276   0.252  0.00  0.00    +0.150 HD
BRANCH  12  14
ATOM     14  C   UNL     1     -35.364  18.191  -1.152  0.00  0.00    +0.147 C 
BRANCH  14  15
ATOM     15  S   UNL     1     -34.835  16.513  -0.737  0.00  0.00    -0.104 S 
BRANCH  15  17
ATOM     16  N   UNL     1     -30.613  17.248   0.867  0.00  0.00    -0.242 NA
ATOM     17  C   UNL     1     -33.183  16.799  -0.109  0.00  0.00    +0.029 C 
ATOM     18  C   UNL     1     -32.128  16.026  -0.566  0.00  0.00    +0.027 C 
ATOM     19  C   UNL     1     -32.967  17.796   0.831  0.00  0.00    +0.027 C 
ATOM     20  C   UNL     1     -30.869  16.288  -0.050  0.00  0.00    +0.099 C 
ATOM     21  C   UNL     1     -31.671  17.978   1.284  0.00  0.00    +0.099 C 
ENDBRANCH  15  17
ENDBRANCH  14  15
ENDBRANCH  12  14
ENDBRANCH   5  11
BRANCH   7  23
ATOM     22  OXT UNL     1     -36.011  23.171   5.668  0.00  0.00    -0.244 OA
ATOM     23  C   UNL     1     -35.711  23.480   4.532  0.00  0.00    +0.351 C 
BRANCH  23  24
ATOM     24  O   UNL     1     -34.532  23.991   4.129  0.00  0.00    -0.476 OA
ATOM     25  H   UNL     1     -34.469  24.897   3.897  0.00  0.00    +0.295 HD
ENDBRANCH  23  24
ENDBRANCH   7  23
BRANCH   8  26
ATOM     26  C   UNL     1     -37.591  25.657   3.739  0.00  0.00    +0.162 C 
BRANCH  26  27
ATOM     27  O   UNL     1     -38.750  26.332   3.295  0.00  0.00    -0.377 OA
ATOM     28  H   UNL     1     -38.529  27.254   3.093  0.00  0.00    +0.211 HD
ENDBRANCH  26  27
ENDBRANCH   8  26
TORSDOF 8
ENDMDL
MODEL 9
REMARK VINA RESULT:      -5.5      6.733     10.173
REMARK  Name = 21124076
REMARK  8 active torsions:
REMARK  status: ('A' for Active; 'I' for Inactive)
REMARK    1  A    between atoms: CA_5  and  N_11
REMARK    2  A    between atoms: CA_7  and  C_23
REMARK    3  A    between atoms: C_8  and  C_26
REMARK    4  A    between atoms: C_12  and  C_14
REMARK    5  A    between atoms: C_14  and  S_15
REMARK    6  A    between atoms: S_15  and  C_17
REMARK    7  A    between atoms: C_23  and  O_24
REMARK    8  A    between atoms: C_26  and  O_27
REMARK                            x       y       z     vdW  Elec       q    Type
REMARK                         _______ _______ _______ _____ _____    ______ ____
ROOT
ATOM      1  S   UNL     1     -34.719  26.301   0.442  0.00  0.00    -0.114 S 
ATOM      2  O   UNL     1     -33.449  25.165   4.767  0.00  0.00    -0.273 OA
ATOM      3  N   UNL     1     -34.811  26.107   3.088  0.00  0.00    -0.242 N 
ATOM      4  C   UNL     1     -34.184  26.913   2.057  0.00  0.00    +0.155 C 
ATOM      5  CA  UNL     1     -32.838  26.370   2.585  0.00  0.00    +0.178 C 
ATOM      6  C   UNL     1     -33.680  25.767   3.745  0.00  0.00    +0.251 C 
ATOM      7  CA  UNL     1     -36.150  25.895   3.172  0.00  0.00    +0.126 C 
ATOM      8  C   UNL     1     -36.976  26.175   2.136  0.00  0.00    +0.016 C 
ATOM      9  C   UNL     1     -36.481  26.648   0.771  0.00  0.00    +0.085 C 
ENDROOT
BRANCH   5  11
ATOM     10  O   UNL     1     -29.973  26.093   2.342  0.00  0.00    -0.274 OA
ATOM     11  N   UNL     1     -31.820  27.321   3.028  0.00  0.00    -0.296 N 
ATOM     12  C   UNL     1     -30.454  27.096   2.866  0.00  0.00    +0.234 C 
ATOM     13  H   UNL     1     -32.112  28.156   3.460  0.00  0.00    +0.150 HD
BRANCH  12  14
ATOM     14  C   UNL     1     -29.591  28.222   3.381  0.00  0.00    +0.147 C 
BRANCH  14  15
ATOM     15  S   UNL     1     -30.430  29.013   4.775  0.00  0.00    -0.104 S 
BRANCH  15  17
ATOM     16  N   UNL     1     -27.431  28.341   8.164  0.00  0.00    -0.242 NA
ATOM     17  C   UNL     1     -29.257  28.749   6.101  0.00  0.00    +0.029 C 
ATOM     18  C   UNL     1     -28.519  27.578   6.145  0.00  0.00    +0.027 C 
ATOM     19  C   UNL     1     -29.092  29.720   7.077  0.00  0.00    +0.027 C 
ATOM     20  C   UNL     1     -27.623  27.422   7.191  0.00  0.00    +0.099 C 
ATOM     21  C   UNL     1     -28.172  29.469   8.081  0.00  0.00    +0.099 C 
ENDBRANCH  15  17
ENDBRANCH  14  15
ENDBRANCH  12  14
ENDBRANCH   5  11
BRANCH   7  23
ATOM     22  OXT UNL     1     -36.955  24.117   4.528  0.00  0.00    -0.244 OA
ATOM     23  C   UNL     1     -36.652  25.287   4.413  0.00  0.00    +0.351 C 
BRANCH  23  24
ATOM     24  O   UNL     1     -36.719  26.227   5.376  0.00  0.00    -0.476 OA
ATOM     25  H   UNL     1     -36.356  27.078   5.226  0.00  0.00    +0.295 HD
ENDBRANCH  23  24
ENDBRANCH   7  23
BRANCH   8  26
ATOM     26  C   UNL     1     -38.480  26.044   2.179  0.00  0.00    +0.162 C 
BRANCH  26  27
ATOM     27  O   UNL     1     -38.952  26.485   3.435  0.00  0.00    -0.377 OA
ATOM     28  H   UNL     1     -39.559  25.823   3.802  0.00  0.00    +0.211 HD
ENDBRANCH  26  27
ENDBRANCH   8  26
TORSDOF 8
ENDMDL
