MODEL 1
REMARK VINA RESULT:      -5.5      0.000      0.000
REMARK  Name = 195946
REMARK  12 active torsions:
REMARK  status: ('A' for Active; 'I' for Inactive)
REMARK    1  A    between atoms: P_1  and  O_3
REMARK    2  A    between atoms: P_1  and  N_5
REMARK    3  A    between atoms: P_1  and  O_15
REMARK    4  A    between atoms: N_5  and  C_7
REMARK    5  A    between atoms: C_7  and  C_9
REMARK    6  A    between atoms: C_7  and  C_12
REMARK    7  A    between atoms: C_9  and  O_10
REMARK    8  A    between atoms: C_12  and  O_13
REMARK    9  A    between atoms: O_15  and  C_16
REMARK   10  A    between atoms: C_16  and  C_18
REMARK   11  A    between atoms: C_19  and  C_27
REMARK   12  A    between atoms: C_20  and  O_24
REMARK                            x       y       z     vdW  Elec       q    Type
REMARK                         _______ _______ _______ _____ _____    ______ ____
ROOT
ATOM      1  P   UNL     1     -33.660  26.686   4.810  0.00  0.00    +0.408 P 
ATOM      2  O   UNL     1     -33.131  25.632   3.873  0.00  0.00    -0.240 OA
ENDROOT
BRANCH   1   3
ATOM      3  O   UNL     1     -33.323  26.323   6.357  0.00  0.00    -0.312 OA
ATOM      4  H   UNL     1     -33.771  26.955   6.942  0.00  0.00    +0.221 HD
ENDBRANCH   1   3
BRANCH   1   5
ATOM      5  N   UNL     1     -33.116  28.233   4.566  0.00  0.00    -0.201 NA
ATOM      6  H   UNL     1     -33.739  28.855   5.082  0.00  0.00    +0.135 HD
BRANCH   5   7
ATOM      7  C   UNL     1     -31.756  28.566   4.960  0.00  0.00    +0.192 C 
BRANCH   7   9
ATOM      8  O   UNL     1     -31.899  30.723   6.107  0.00  0.00    -0.249 OA
ATOM      9  C   UNL     1     -31.845  29.503   6.149  0.00  0.00    +0.331 C 
BRANCH   9  10
ATOM     10  O   UNL     1     -31.851  28.797   7.311  0.00  0.00    -0.479 OA
ATOM     11  H   UNL     1     -32.283  27.966   7.352  0.00  0.00    +0.295 HD
ENDBRANCH   9  10
ENDBRANCH   7   9
BRANCH   7  12
ATOM     12  C   UNL     1     -31.031  29.241   3.799  0.00  0.00    +0.165 C 
BRANCH  12  13
ATOM     13  O   UNL     1     -31.893  30.201   3.197  0.00  0.00    -0.380 OA
ATOM     14  H   UNL     1     -31.370  30.956   2.888  0.00  0.00    +0.211 HD
ENDBRANCH  12  13
ENDBRANCH   7  12
ENDBRANCH   5   7
ENDBRANCH   1   5
BRANCH   1  15
ATOM     15  O   UNL     1     -35.287  26.721   4.818  0.00  0.00    -0.278 OA
BRANCH  15  16
ATOM     16  C   UNL     1     -36.020  25.747   5.543  0.00  0.00    +0.181 C 
BRANCH  16  18
ATOM     17  N   UNL     1     -37.721  23.939   2.719  0.00  0.00    -0.245 NA
ATOM     18  C   UNL     1     -36.407  24.635   4.615  0.00  0.00    +0.033 C 
ATOM     19  C   UNL     1     -35.884  23.359   4.745  0.00  0.00    +0.077 C 
ATOM     20  C   UNL     1     -36.280  22.365   3.857  0.00  0.00    +0.150 C 
ATOM     21  C   UNL     1     -37.312  24.878   3.601  0.00  0.00    +0.097 C 
ATOM     22  C   UNL     1     -37.193  22.704   2.871  0.00  0.00    +0.093 C 
ATOM     23  C   UNL     1     -37.654  21.674   1.891  0.00  0.00    +0.055 C 
BRANCH  20  24
ATOM     24  O   UNL     1     -35.791  21.101   3.952  0.00  0.00    -0.504 OA
ATOM     25  H   UNL     1     -36.271  20.385   3.585  0.00  0.00    +0.292 HD
ENDBRANCH  20  24
BRANCH  19  27
ATOM     26  O   UNL     1     -35.065  22.107   6.578  0.00  0.00    -0.283 OA
ATOM     27  C   UNL     1     -34.926  23.053   5.801  0.00  0.00    +0.237 C 
ENDBRANCH  19  27
ENDBRANCH  16  18
ENDBRANCH  15  16
ENDBRANCH   1  15
TORSDOF 12
ENDMDL
MODEL 2
REMARK VINA RESULT:      -5.5      3.737      5.653
REMARK  Name = 195946
REMARK  12 active torsions:
REMARK  status: ('A' for Active; 'I' for Inactive)
REMARK    1  A    between atoms: P_1  and  O_3
REMARK    2  A    between atoms: P_1  and  N_5
REMARK    3  A    between atoms: P_1  and  O_15
REMARK    4  A    between atoms: N_5  and  C_7
REMARK    5  A    between atoms: C_7  and  C_9
REMARK    6  A    between atoms: C_7  and  C_12
REMARK    7  A    between atoms: C_9  and  O_10
REMARK    8  A    between atoms: C_12  and  O_13
REMARK    9  A    between atoms: O_15  and  C_16
REMARK   10  A    between atoms: C_16  and  C_18
REMARK   11  A    between atoms: C_19  and  C_27
REMARK   12  A    between atoms: C_20  and  O_24
REMARK                            x       y       z     vdW  Elec       q    Type
REMARK                         _______ _______ _______ _____ _____    ______ ____
ROOT
ATOM      1  P   UNL     1     -38.812  25.032   2.961  0.00  0.00    +0.408 P 
ATOM      2  O   UNL     1     -40.002  24.125   2.786  0.00  0.00    -0.240 OA
ENDROOT
BRANCH   1   3
ATOM      3  O   UNL     1     -39.267  26.587   3.081  0.00  0.00    -0.312 OA
ATOM      4  H   UNL     1     -38.772  27.014   3.798  0.00  0.00    +0.221 HD
ENDBRANCH   1   3
BRANCH   1   5
ATOM      5  N   UNL     1     -37.838  24.730   4.268  0.00  0.00    -0.201 NA
ATOM      6  H   UNL     1     -38.093  23.808   4.625  0.00  0.00    +0.135 HD
BRANCH   5   7
ATOM      7  C   UNL     1     -36.395  24.732   4.081  0.00  0.00    +0.192 C 
BRANCH   7   9
ATOM      8  O   UNL     1     -35.024  23.692   5.821  0.00  0.00    -0.249 OA
ATOM      9  C   UNL     1     -35.829  23.593   4.907  0.00  0.00    +0.331 C 
BRANCH   9  10
ATOM     10  O   UNL     1     -36.338  22.404   4.489  0.00  0.00    -0.479 OA
ATOM     11  H   UNL     1     -36.393  21.682   5.086  0.00  0.00    +0.295 HD
ENDBRANCH   9  10
ENDBRANCH   7   9
BRANCH   7  12
ATOM     12  C   UNL     1     -35.816  26.067   4.540  0.00  0.00    +0.165 C 
BRANCH  12  13
ATOM     13  O   UNL     1     -36.468  26.479   5.737  0.00  0.00    -0.380 OA
ATOM     14  H   UNL     1     -37.359  26.100   5.768  0.00  0.00    +0.211 HD
ENDBRANCH  12  13
ENDBRANCH   7  12
ENDBRANCH   5   7
ENDBRANCH   1   5
BRANCH   1  15
ATOM     15  O   UNL     1     -37.875  25.057   1.631  0.00  0.00    -0.278 OA
BRANCH  15  16
ATOM     16  C   UNL     1     -38.028  24.065   0.629  0.00  0.00    +0.181 C 
BRANCH  16  18
ATOM     17  N   UNL     1     -34.877  22.168   1.408  0.00  0.00    -0.245 NA
ATOM     18  C   UNL     1     -37.119  22.913   0.937  0.00  0.00    +0.033 C 
ATOM     19  C   UNL     1     -37.592  21.614   1.032  0.00  0.00    +0.077 C 
ATOM     20  C   UNL     1     -36.703  20.585   1.318  0.00  0.00    +0.150 C 
ATOM     21  C   UNL     1     -35.771  23.142   1.129  0.00  0.00    +0.097 C 
ATOM     22  C   UNL     1     -35.368  20.911   1.496  0.00  0.00    +0.093 C 
ATOM     23  C   UNL     1     -34.370  19.842   1.803  0.00  0.00    +0.055 C 
BRANCH  20  24
ATOM     24  O   UNL     1     -37.127  19.297   1.418  0.00  0.00    -0.504 OA
ATOM     25  H   UNL     1     -38.040  19.099   1.354  0.00  0.00    +0.292 HD
ENDBRANCH  20  24
BRANCH  19  27
ATOM     26  O   UNL     1     -39.759  21.003   1.757  0.00  0.00    -0.283 OA
ATOM     27  C   UNL     1     -39.007  21.322   0.835  0.00  0.00    +0.237 C 
ENDBRANCH  19  27
ENDBRANCH  16  18
ENDBRANCH  15  16
ENDBRANCH   1  15
TORSDOF 12
ENDMDL
MODEL 3
REMARK VINA RESULT:      -5.4      2.189      2.771
REMARK  Name = 195946
REMARK  12 active torsions:
REMARK  status: ('A' for Active; 'I' for Inactive)
REMARK    1  A    between atoms: P_1  and  O_3
REMARK    2  A    between atoms: P_1  and  N_5
REMARK    3  A    between atoms: P_1  and  O_15
REMARK    4  A    between atoms: N_5  and  C_7
REMARK    5  A    between atoms: C_7  and  C_9
REMARK    6  A    between atoms: C_7  and  C_12
REMARK    7  A    between atoms: C_9  and  O_10
REMARK    8  A    between atoms: C_12  and  O_13
REMARK    9  A    between atoms: O_15  and  C_16
REMARK   10  A    between atoms: C_16  and  C_18
REMARK   11  A    between atoms: C_19  and  C_27
REMARK   12  A    between atoms: C_20  and  O_24
REMARK                            x       y       z     vdW  Elec       q    Type
REMARK                         _______ _______ _______ _____ _____    ______ ____
ROOT
ATOM      1  P   UNL     1     -33.823  26.815   4.537  0.00  0.00    +0.408 P 
ATOM      2  O   UNL     1     -32.874  26.192   3.547  0.00  0.00    -0.240 OA
ENDROOT
BRANCH   1   3
ATOM      3  O   UNL     1     -33.025  27.691   5.648  0.00  0.00    -0.312 OA
ATOM      4  H   UNL     1     -32.789  27.123   6.399  0.00  0.00    +0.221 HD
ENDBRANCH   1   3
BRANCH   1   5
ATOM      5  N   UNL     1     -34.993  27.809   3.914  0.00  0.00    -0.201 NA
ATOM      6  H   UNL     1     -35.036  28.635   4.512  0.00  0.00    +0.135 HD
BRANCH   5   7
ATOM      7  C   UNL     1     -34.854  28.281   2.544  0.00  0.00    +0.192 C 
BRANCH   7   9
ATOM      8  O   UNL     1     -33.951  30.445   1.841  0.00  0.00    -0.249 OA
ATOM      9  C   UNL     1     -34.641  29.781   2.601  0.00  0.00    +0.331 C 
BRANCH   9  10
ATOM     10  O   UNL     1     -35.331  30.320   3.641  0.00  0.00    -0.479 OA
ATOM     11  H   UNL     1     -35.241  29.958   4.501  0.00  0.00    +0.295 HD
ENDBRANCH   9  10
ENDBRANCH   7   9
BRANCH   7  12
ATOM     12  C   UNL     1     -36.114  27.947   1.752  0.00  0.00    +0.165 C 
BRANCH  12  13
ATOM     13  O   UNL     1     -36.756  29.154   1.352  0.00  0.00    -0.380 OA
ATOM     14  H   UNL     1     -37.633  29.205   1.761  0.00  0.00    +0.211 HD
ENDBRANCH  12  13
ENDBRANCH   7  12
ENDBRANCH   5   7
ENDBRANCH   1   5
BRANCH   1  15
ATOM     15  O   UNL     1     -34.556  25.690   5.456  0.00  0.00    -0.278 OA
BRANCH  15  16
ATOM     16  C   UNL     1     -35.902  25.325   5.203  0.00  0.00    +0.181 C 
BRANCH  16  18
ATOM     17  N   UNL     1     -36.282  23.506   1.934  0.00  0.00    -0.245 NA
ATOM     18  C   UNL     1     -35.926  24.198   4.214  0.00  0.00    +0.033 C 
ATOM     19  C   UNL     1     -35.648  22.893   4.587  0.00  0.00    +0.077 C 
ATOM     20  C   UNL     1     -35.686  21.887   3.628  0.00  0.00    +0.150 C 
ATOM     21  C   UNL     1     -36.235  24.457   2.893  0.00  0.00    +0.097 C 
ATOM     22  C   UNL     1     -36.006  22.242   2.327  0.00  0.00    +0.093 C 
ATOM     23  C   UNL     1     -36.062  21.200   1.258  0.00  0.00    +0.055 C 
BRANCH  20  24
ATOM     24  O   UNL     1     -35.420  20.594   3.954  0.00  0.00    -0.504 OA
ATOM     25  H   UNL     1     -35.788  19.899   3.445  0.00  0.00    +0.292 HD
ENDBRANCH  20  24
BRANCH  19  27
ATOM     26  O   UNL     1     -36.051  21.895   6.694  0.00  0.00    -0.283 OA
ATOM     27  C   UNL     1     -35.317  22.570   5.970  0.00  0.00    +0.237 C 
ENDBRANCH  19  27
ENDBRANCH  16  18
ENDBRANCH  15  16
ENDBRANCH   1  15
TORSDOF 12
ENDMDL
MODEL 4
REMARK VINA RESULT:      -5.3      1.290      2.125
REMARK  Name = 195946
REMARK  12 active torsions:
REMARK  status: ('A' for Active; 'I' for Inactive)
REMARK    1  A    between atoms: P_1  and  O_3
REMARK    2  A    between atoms: P_1  and  N_5
REMARK    3  A    between atoms: P_1  and  O_15
REMARK    4  A    between atoms: N_5  and  C_7
REMARK    5  A    between atoms: C_7  and  C_9
REMARK    6  A    between atoms: C_7  and  C_12
REMARK    7  A    between atoms: C_9  and  O_10
REMARK    8  A    between atoms: C_12  and  O_13
REMARK    9  A    between atoms: O_15  and  C_16
REMARK   10  A    between atoms: C_16  and  C_18
REMARK   11  A    between atoms: C_19  and  C_27
REMARK   12  A    between atoms: C_20  and  O_24
REMARK                            x       y       z     vdW  Elec       q    Type
REMARK                         _______ _______ _______ _____ _____    ______ ____
ROOT
ATOM      1  P   UNL     1     -33.718  26.650   4.778  0.00  0.00    +0.408 P 
ATOM      2  O   UNL     1     -34.529  27.670   4.022  0.00  0.00    -0.240 OA
ENDROOT
BRANCH   1   3
ATOM      3  O   UNL     1     -33.008  25.595   3.766  0.00  0.00    -0.312 OA
ATOM      4  H   UNL     1     -33.667  24.956   3.451  0.00  0.00    +0.221 HD
ENDBRANCH   1   3
BRANCH   1   5
ATOM      5  N   UNL     1     -32.516  27.238   5.756  0.00  0.00    -0.201 NA
ATOM      6  H   UNL     1     -31.793  26.518   5.809  0.00  0.00    +0.135 HD
BRANCH   5   7
ATOM      7  C   UNL     1     -31.855  28.479   5.383  0.00  0.00    +0.192 C 
BRANCH   7   9
ATOM      8  O   UNL     1     -30.381  27.466   3.711  0.00  0.00    -0.249 OA
ATOM      9  C   UNL     1     -31.249  28.275   4.008  0.00  0.00    +0.331 C 
BRANCH   9  10
ATOM     10  O   UNL     1     -31.801  29.135   3.112  0.00  0.00    -0.479 OA
ATOM     11  H   UNL     1     -31.580  29.070   2.202  0.00  0.00    +0.295 HD
ENDBRANCH   9  10
ENDBRANCH   7   9
BRANCH   7  12
ATOM     12  C   UNL     1     -30.771  28.815   6.402  0.00  0.00    +0.165 C 
BRANCH  12  13
ATOM     13  O   UNL     1     -30.029  27.639   6.709  0.00  0.00    -0.380 OA
ATOM     14  H   UNL     1     -30.369  27.245   7.527  0.00  0.00    +0.211 HD
ENDBRANCH  12  13
ENDBRANCH   7  12
ENDBRANCH   5   7
ENDBRANCH   1   5
BRANCH   1  15
ATOM     15  O   UNL     1     -34.663  25.675   5.674  0.00  0.00    -0.278 OA
BRANCH  15  16
ATOM     16  C   UNL     1     -36.020  25.468   5.317  0.00  0.00    +0.181 C 
BRANCH  16  18
ATOM     17  N   UNL     1     -36.584  23.782   2.004  0.00  0.00    -0.245 NA
ATOM     18  C   UNL     1     -36.095  24.383   4.285  0.00  0.00    +0.033 C 
ATOM     19  C   UNL     1     -35.784  23.066   4.586  0.00  0.00    +0.077 C 
ATOM     20  C   UNL     1     -35.873  22.100   3.590  0.00  0.00    +0.150 C 
ATOM     21  C   UNL     1     -36.485  24.693   2.998  0.00  0.00    +0.097 C 
ATOM     22  C   UNL     1     -36.274  22.506   2.327  0.00  0.00    +0.093 C 
ATOM     23  C   UNL     1     -36.387  21.508   1.220  0.00  0.00    +0.055 C 
BRANCH  20  24
ATOM     24  O   UNL     1     -35.579  20.798   3.845  0.00  0.00    -0.504 OA
ATOM     25  H   UNL     1     -36.186  20.266   4.320  0.00  0.00    +0.292 HD
ENDBRANCH  20  24
BRANCH  19  27
ATOM     26  O   UNL     1     -36.024  21.931   6.647  0.00  0.00    -0.283 OA
ATOM     27  C   UNL     1     -35.369  22.689   5.932  0.00  0.00    +0.237 C 
ENDBRANCH  19  27
ENDBRANCH  16  18
ENDBRANCH  15  16
ENDBRANCH   1  15
TORSDOF 12
ENDMDL
MODEL 5
REMARK VINA RESULT:      -5.3      3.408      6.856
REMARK  Name = 195946
REMARK  12 active torsions:
REMARK  status: ('A' for Active; 'I' for Inactive)
REMARK    1  A    between atoms: P_1  and  O_3
REMARK    2  A    between atoms: P_1  and  N_5
REMARK    3  A    between atoms: P_1  and  O_15
REMARK    4  A    between atoms: N_5  and  C_7
REMARK    5  A    between atoms: C_7  and  C_9
REMARK    6  A    between atoms: C_7  and  C_12
REMARK    7  A    between atoms: C_9  and  O_10
REMARK    8  A    between atoms: C_12  and  O_13
REMARK    9  A    between atoms: O_15  and  C_16
REMARK   10  A    between atoms: C_16  and  C_18
REMARK   11  A    between atoms: C_19  and  C_27
REMARK   12  A    between atoms: C_20  and  O_24
REMARK                            x       y       z     vdW  Elec       q    Type
REMARK                         _______ _______ _______ _____ _____    ______ ____
ROOT
ATOM      1  P   UNL     1     -37.616  25.008   3.349  0.00  0.00    +0.408 P 
ATOM      2  O   UNL     1     -38.926  24.287   3.535  0.00  0.00    -0.240 OA
ENDROOT
BRANCH   1   3
ATOM      3  O   UNL     1     -37.383  26.117   4.514  0.00  0.00    -0.312 OA
ATOM      4  H   UNL     1     -37.465  25.694   5.383  0.00  0.00    +0.221 HD
ENDBRANCH   1   3
BRANCH   1   5
ATOM      5  N   UNL     1     -36.252  24.068   3.322  0.00  0.00    -0.201 NA
ATOM      6  H   UNL     1     -35.503  24.613   3.749  0.00  0.00    +0.135 HD
BRANCH   5   7
ATOM      7  C   UNL     1     -36.278  22.777   3.994  0.00  0.00    +0.192 C 
BRANCH   7   9
ATOM      8  O   UNL     1     -34.775  23.795   5.636  0.00  0.00    -0.249 OA
ATOM      9  C   UNL     1     -35.618  22.958   5.347  0.00  0.00    +0.331 C 
BRANCH   9  10
ATOM     10  O   UNL     1     -36.088  22.040   6.232  0.00  0.00    -0.479 OA
ATOM     11  H   UNL     1     -36.548  22.322   7.000  0.00  0.00    +0.295 HD
ENDBRANCH   9  10
ENDBRANCH   7   9
BRANCH   7  12
ATOM     12  C   UNL     1     -35.523  21.745   3.162  0.00  0.00    +0.165 C 
BRANCH  12  13
ATOM     13  O   UNL     1     -35.475  20.510   3.869  0.00  0.00    -0.380 OA
ATOM     14  H   UNL     1     -36.361  20.120   3.898  0.00  0.00    +0.211 HD
ENDBRANCH  12  13
ENDBRANCH   7  12
ENDBRANCH   5   7
ENDBRANCH   1   5
BRANCH   1  15
ATOM     15  O   UNL     1     -37.621  25.926   2.006  0.00  0.00    -0.278 OA
BRANCH  15  16
ATOM     16  C   UNL     1     -36.400  26.301   1.391  0.00  0.00    +0.181 C 
BRANCH  16  18
ATOM     17  N   UNL     1     -36.804  30.014   0.956  0.00  0.00    -0.245 NA
ATOM     18  C   UNL     1     -36.185  27.773   1.585  0.00  0.00    +0.033 C 
ATOM     19  C   UNL     1     -35.254  28.262   2.487  0.00  0.00    +0.077 C 
ATOM     20  C   UNL     1     -35.095  29.636   2.625  0.00  0.00    +0.150 C 
ATOM     21  C   UNL     1     -36.930  28.672   0.850  0.00  0.00    +0.097 C 
ATOM     22  C   UNL     1     -35.887  30.462   1.844  0.00  0.00    +0.093 C 
ATOM     23  C   UNL     1     -35.757  31.946   1.952  0.00  0.00    +0.055 C 
BRANCH  20  24
ATOM     24  O   UNL     1     -34.192  30.156   3.497  0.00  0.00    -0.504 OA
ATOM     25  H   UNL     1     -33.659  30.882   3.240  0.00  0.00    +0.292 HD
ENDBRANCH  20  24
BRANCH  19  27
ATOM     26  O   UNL     1     -34.601  27.200   4.498  0.00  0.00    -0.283 OA
ATOM     27  C   UNL     1     -34.443  27.350   3.286  0.00  0.00    +0.237 C 
ENDBRANCH  19  27
ENDBRANCH  16  18
ENDBRANCH  15  16
ENDBRANCH   1  15
TORSDOF 12
ENDMDL
MODEL 6
REMARK VINA RESULT:      -5.3      3.195      5.038
REMARK  Name = 195946
REMARK  12 active torsions:
REMARK  status: ('A' for Active; 'I' for Inactive)
REMARK    1  A    between atoms: P_1  and  O_3
REMARK    2  A    between atoms: P_1  and  N_5
REMARK    3  A    between atoms: P_1  and  O_15
REMARK    4  A    between atoms: N_5  and  C_7
REMARK    5  A    between atoms: C_7  and  C_9
REMARK    6  A    between atoms: C_7  and  C_12
REMARK    7  A    between atoms: C_9  and  O_10
REMARK    8  A    between atoms: C_12  and  O_13
REMARK    9  A    between atoms: O_15  and  C_16
REMARK   10  A    between atoms: C_16  and  C_18
REMARK   11  A    between atoms: C_19  and  C_27
REMARK   12  A    between atoms: C_20  and  O_24
REMARK                            x       y       z     vdW  Elec       q    Type
REMARK                         _______ _______ _______ _____ _____    ______ ____
ROOT
ATOM      1  P   UNL     1     -35.562  22.659   4.885  0.00  0.00    +0.408 P 
ATOM      2  O   UNL     1     -35.142  21.506   4.012  0.00  0.00    -0.240 OA
ENDROOT
BRANCH   1   3
ATOM      3  O   UNL     1     -36.135  22.139   6.314  0.00  0.00    -0.312 OA
ATOM      4  H   UNL     1     -36.301  22.900   6.892  0.00  0.00    +0.221 HD
ENDBRANCH   1   3
BRANCH   1   5
ATOM      5  N   UNL     1     -34.397  23.786   5.233  0.00  0.00    -0.201 NA
ATOM      6  H   UNL     1     -33.556  23.516   4.722  0.00  0.00    +0.135 HD
BRANCH   5   7
ATOM      7  C   UNL     1     -34.659  25.182   4.920  0.00  0.00    +0.192 C 
BRANCH   7   9
ATOM      8  O   UNL     1     -32.858  25.579   3.310  0.00  0.00    -0.249 OA
ATOM      9  C   UNL     1     -34.049  25.464   3.560  0.00  0.00    +0.331 C 
BRANCH   9  10
ATOM     10  O   UNL     1     -35.021  25.583   2.618  0.00  0.00    -0.479 OA
ATOM     11  H   UNL     1     -35.800  25.064   2.680  0.00  0.00    +0.295 HD
ENDBRANCH   9  10
ENDBRANCH   7   9
BRANCH   7  12
ATOM     12  C   UNL     1     -34.033  26.077   5.985  0.00  0.00    +0.165 C 
BRANCH  12  13
ATOM     13  O   UNL     1     -33.582  27.286   5.382  0.00  0.00    -0.380 OA
ATOM     14  H   UNL     1     -34.133  27.488   4.611  0.00  0.00    +0.211 HD
ENDBRANCH  12  13
ENDBRANCH   7  12
ENDBRANCH   5   7
ENDBRANCH   1   5
BRANCH   1  15
ATOM     15  O   UNL     1     -36.850  23.440   4.270  0.00  0.00    -0.278 OA
BRANCH  15  16
ATOM     16  C   UNL     1     -37.383  23.060   3.012  0.00  0.00    +0.181 C 
BRANCH  16  18
ATOM     17  N   UNL     1     -39.552  26.130   2.876  0.00  0.00    -0.245 NA
ATOM     18  C   UNL     1     -38.548  23.948   2.687  0.00  0.00    +0.033 C 
ATOM     19  C   UNL     1     -39.636  23.489   1.962  0.00  0.00    +0.077 C 
ATOM     20  C   UNL     1     -40.689  24.354   1.691  0.00  0.00    +0.150 C 
ATOM     21  C   UNL     1     -38.547  25.259   3.119  0.00  0.00    +0.097 C 
ATOM     22  C   UNL     1     -40.599  25.653   2.166  0.00  0.00    +0.093 C 
ATOM     23  C   UNL     1     -41.704  26.625   1.904  0.00  0.00    +0.055 C 
BRANCH  20  24
ATOM     24  O   UNL     1     -41.775  23.943   0.985  0.00  0.00    -0.504 OA
ATOM     25  H   UNL     1     -41.665  23.380   0.244  0.00  0.00    +0.292 HD
ENDBRANCH  20  24
BRANCH  19  27
ATOM     26  O   UNL     1     -40.417  21.255   1.982  0.00  0.00    -0.283 OA
ATOM     27  C   UNL     1     -39.684  22.111   1.485  0.00  0.00    +0.237 C 
ENDBRANCH  19  27
ENDBRANCH  16  18
ENDBRANCH  15  16
ENDBRANCH   1  15
TORSDOF 12
ENDMDL
MODEL 7
REMARK VINA RESULT:      -5.2      1.832      7.299
REMARK  Name = 195946
REMARK  12 active torsions:
REMARK  status: ('A' for Active; 'I' for Inactive)
REMARK    1  A    between atoms: P_1  and  O_3
REMARK    2  A    between atoms: P_1  and  N_5
REMARK    3  A    between atoms: P_1  and  O_15
REMARK    4  A    between atoms: N_5  and  C_7
REMARK    5  A    between atoms: C_7  and  C_9
REMARK    6  A    between atoms: C_7  and  C_12
REMARK    7  A    between atoms: C_9  and  O_10
REMARK    8  A    between atoms: C_12  and  O_13
REMARK    9  A    between atoms: O_15  and  C_16
REMARK   10  A    between atoms: C_16  and  C_18
REMARK   11  A    between atoms: C_19  and  C_27
REMARK   12  A    between atoms: C_20  and  O_24
REMARK                            x       y       z     vdW  Elec       q    Type
REMARK                         _______ _______ _______ _____ _____    ______ ____
ROOT
ATOM      1  P   UNL     1     -36.172  25.573   4.338  0.00  0.00    +0.408 P 
ATOM      2  O   UNL     1     -36.926  25.899   3.076  0.00  0.00    -0.240 OA
ENDROOT
BRANCH   1   3
ATOM      3  O   UNL     1     -36.481  26.660   5.507  0.00  0.00    -0.312 OA
ATOM      4  H   UNL     1     -37.257  26.375   6.015  0.00  0.00    +0.221 HD
ENDBRANCH   1   3
BRANCH   1   5
ATOM      5  N   UNL     1     -36.454  24.082   5.004  0.00  0.00    -0.201 NA
ATOM      6  H   UNL     1     -37.337  23.743   4.619  0.00  0.00    +0.135 HD
BRANCH   5   7
ATOM      7  C   UNL     1     -35.469  23.030   4.805  0.00  0.00    +0.192 C 
BRANCH   7   9
ATOM      8  O   UNL     1     -35.164  21.683   2.784  0.00  0.00    -0.249 OA
ATOM      9  C   UNL     1     -35.901  22.227   3.593  0.00  0.00    +0.331 C 
BRANCH   9  10
ATOM     10  O   UNL     1     -37.257  22.189   3.507  0.00  0.00    -0.479 OA
ATOM     11  H   UNL     1     -37.774  22.100   4.285  0.00  0.00    +0.295 HD
ENDBRANCH   9  10
ENDBRANCH   7   9
BRANCH   7  12
ATOM     12  C   UNL     1     -35.406  22.140   6.043  0.00  0.00    +0.165 C 
BRANCH  12  13
ATOM     13  O   UNL     1     -35.400  20.773   5.644  0.00  0.00    -0.380 OA
ATOM     14  H   UNL     1     -34.594  20.587   5.139  0.00  0.00    +0.211 HD
ENDBRANCH  12  13
ENDBRANCH   7  12
ENDBRANCH   5   7
ENDBRANCH   1   5
BRANCH   1  15
ATOM     15  O   UNL     1     -34.566  25.739   4.139  0.00  0.00    -0.278 OA
BRANCH  15  16
ATOM     16  C   UNL     1     -33.808  26.515   5.052  0.00  0.00    +0.181 C 
BRANCH  16  18
ATOM     17  N   UNL     1     -32.628  28.623   2.170  0.00  0.00    -0.245 NA
ATOM     18  C   UNL     1     -33.052  27.564   4.292  0.00  0.00    +0.033 C 
ATOM     19  C   UNL     1     -32.137  28.399   4.914  0.00  0.00    +0.077 C 
ATOM     20  C   UNL     1     -31.463  29.353   4.160  0.00  0.00    +0.150 C 
ATOM     21  C   UNL     1     -33.264  27.709   2.936  0.00  0.00    +0.097 C 
ATOM     22  C   UNL     1     -31.741  29.424   2.804  0.00  0.00    +0.093 C 
ATOM     23  C   UNL     1     -31.044  30.430   1.948  0.00  0.00    +0.055 C 
BRANCH  20  24
ATOM     24  O   UNL     1     -30.557  30.189   4.732  0.00  0.00    -0.504 OA
ATOM     25  H   UNL     1     -29.657  29.934   4.790  0.00  0.00    +0.292 HD
ENDBRANCH  20  24
BRANCH  19  27
ATOM     26  O   UNL     1     -31.846  29.256   7.100  0.00  0.00    -0.283 OA
ATOM     27  C   UNL     1     -31.878  28.284   6.344  0.00  0.00    +0.237 C 
ENDBRANCH  19  27
ENDBRANCH  16  18
ENDBRANCH  15  16
ENDBRANCH   1  15
TORSDOF 12
ENDMDL
MODEL 8
REMARK VINA RESULT:      -5.2      4.509      6.644
REMARK  Name = 195946
REMARK  12 active torsions:
REMARK  status: ('A' for Active; 'I' for Inactive)
REMARK    1  A    between atoms: P_1  and  O_3
REMARK    2  A    between atoms: P_1  and  N_5
REMARK    3  A    between atoms: P_1  and  O_15
REMARK    4  A    between atoms: N_5  and  C_7
REMARK    5  A    between atoms: C_7  and  C_9
REMARK    6  A    between atoms: C_7  and  C_12
REMARK    7  A    between atoms: C_9  and  O_10
REMARK    8  A    between atoms: C_12  and  O_13
REMARK    9  A    between atoms: O_15  and  C_16
REMARK   10  A    between atoms: C_16  and  C_18
REMARK   11  A    between atoms: C_19  and  C_27
REMARK   12  A    between atoms: C_20  and  O_24
REMARK                            x       y       z     vdW  Elec       q    Type
REMARK                         _______ _______ _______ _____ _____    ______ ____
ROOT
ATOM      1  P   UNL     1     -36.567  21.395   2.279  0.00  0.00    +0.408 P 
ATOM      2  O   UNL     1     -35.304  21.600   1.485  0.00  0.00    -0.240 OA
ENDROOT
BRANCH   1   3
ATOM      3  O   UNL     1     -36.830  19.818   2.572  0.00  0.00    -0.312 OA
ATOM      4  H   UNL     1     -36.727  19.315   1.749  0.00  0.00    +0.221 HD
ENDBRANCH   1   3
BRANCH   1   5
ATOM      5  N   UNL     1     -36.651  22.161   3.747  0.00  0.00    -0.201 NA
ATOM      6  H   UNL     1     -37.103  21.516   4.397  0.00  0.00    +0.135 HD
BRANCH   5   7
ATOM      7  C   UNL     1     -35.416  22.604   4.376  0.00  0.00    +0.192 C 
BRANCH   7   9
ATOM      8  O   UNL     1     -35.384  22.495   6.821  0.00  0.00    -0.249 OA
ATOM      9  C   UNL     1     -35.334  21.936   5.735  0.00  0.00    +0.331 C 
BRANCH   9  10
ATOM     10  O   UNL     1     -35.185  20.592   5.596  0.00  0.00    -0.479 OA
ATOM     11  H   UNL     1     -35.743  20.117   5.011  0.00  0.00    +0.295 HD
ENDBRANCH   9  10
ENDBRANCH   7   9
BRANCH   7  12
ATOM     12  C   UNL     1     -35.427  24.122   4.524  0.00  0.00    +0.165 C 
BRANCH  12  13
ATOM     13  O   UNL     1     -36.695  24.540   5.022  0.00  0.00    -0.380 OA
ATOM     14  H   UNL     1     -36.605  24.811   5.948  0.00  0.00    +0.211 HD
ENDBRANCH  12  13
ENDBRANCH   7  12
ENDBRANCH   5   7
ENDBRANCH   1   5
BRANCH   1  15
ATOM     15  O   UNL     1     -37.889  21.804   1.423  0.00  0.00    -0.278 OA
BRANCH  15  16
ATOM     16  C   UNL     1     -37.904  22.998   0.658  0.00  0.00    +0.181 C 
BRANCH  16  18
ATOM     17  N   UNL     1     -41.605  23.662   0.675  0.00  0.00    -0.245 NA
ATOM     18  C   UNL     1     -39.206  23.708   0.885  0.00  0.00    +0.033 C 
ATOM     19  C   UNL     1     -39.260  24.967   1.459  0.00  0.00    +0.077 C 
ATOM     20  C   UNL     1     -40.494  25.579   1.644  0.00  0.00    +0.150 C 
ATOM     21  C   UNL     1     -40.387  23.099   0.512  0.00  0.00    +0.097 C 
ATOM     22  C   UNL     1     -41.627  24.891   1.239  0.00  0.00    +0.093 C 
ATOM     23  C   UNL     1     -42.979  25.503   1.413  0.00  0.00    +0.055 C 
BRANCH  20  24
ATOM     24  O   UNL     1     -40.590  26.815   2.202  0.00  0.00    -0.504 OA
ATOM     25  H   UNL     1     -40.580  27.576   1.657  0.00  0.00    +0.292 HD
ENDBRANCH  20  24
BRANCH  19  27
ATOM     26  O   UNL     1     -37.888  26.140   2.988  0.00  0.00    -0.283 OA
ATOM     27  C   UNL     1     -38.039  25.651   1.867  0.00  0.00    +0.237 C 
ENDBRANCH  19  27
ENDBRANCH  16  18
ENDBRANCH  15  16
ENDBRANCH   1  15
TORSDOF 12
ENDMDL
MODEL 9
REMARK VINA RESULT:      -5.2      4.569      6.810
REMARK  Name = 195946
REMARK  12 active torsions:
REMARK  status: ('A' for Active; 'I' for Inactive)
REMARK    1  A    between atoms: P_1  and  O_3
REMARK    2  A    between atoms: P_1  and  N_5
REMARK    3  A    between atoms: P_1  and  O_15
REMARK    4  A    between atoms: N_5  and  C_7
REMARK    5  A    between atoms: C_7  and  C_9
REMARK    6  A    between atoms: C_7  and  C_12
REMARK    7  A    between atoms: C_9  and  O_10
REMARK    8  A    between atoms: C_12  and  O_13
REMARK    9  A    between atoms: O_15  and  C_16
REMARK   10  A    between atoms: C_16  and  C_18
REMARK   11  A    between atoms: C_19  and  C_27
REMARK   12  A    between atoms: C_20  and  O_24
REMARK                            x       y       z     vdW  Elec       q    Type
REMARK                         _______ _______ _______ _____ _____    ______ ____
ROOT
ATOM      1  P   UNL     1     -35.925  21.414   3.282  0.00  0.00    +0.408 P 
ATOM      2  O   UNL     1     -35.121  20.580   4.245  0.00  0.00    -0.240 OA
ENDROOT
BRANCH   1   3
ATOM      3  O   UNL     1     -37.076  20.528   2.553  0.00  0.00    -0.312 OA
ATOM      4  H   UNL     1     -37.267  19.742   3.090  0.00  0.00    +0.221 HD
ENDBRANCH   1   3
BRANCH   1   5
ATOM      5  N   UNL     1     -36.691  22.741   3.914  0.00  0.00    -0.201 NA
ATOM      6  H   UNL     1     -36.816  22.569   4.912  0.00  0.00    +0.135 HD
BRANCH   5   7
ATOM      7  C   UNL     1     -36.055  24.044   3.781  0.00  0.00    +0.192 C 
BRANCH   7   9
ATOM      8  O   UNL     1     -33.864  24.618   4.709  0.00  0.00    -0.249 OA
ATOM      9  C   UNL     1     -34.978  24.133   4.845  0.00  0.00    +0.331 C 
BRANCH   9  10
ATOM     10  O   UNL     1     -35.412  23.582   6.009  0.00  0.00    -0.479 OA
ATOM     11  H   UNL     1     -36.027  22.874   5.992  0.00  0.00    +0.295 HD
ENDBRANCH   9  10
ENDBRANCH   7   9
BRANCH   7  12
ATOM     12  C   UNL     1     -37.092  25.146   3.974  0.00  0.00    +0.165 C 
BRANCH  12  13
ATOM     13  O   UNL     1     -36.673  26.012   5.025  0.00  0.00    -0.380 OA
ATOM     14  H   UNL     1     -36.958  25.648   5.877  0.00  0.00    +0.211 HD
ENDBRANCH  12  13
ENDBRANCH   7  12
ENDBRANCH   5   7
ENDBRANCH   1   5
BRANCH   1  15
ATOM     15  O   UNL     1     -35.027  21.905   2.018  0.00  0.00    -0.278 OA
BRANCH  15  16
ATOM     16  C   UNL     1     -35.018  21.159   0.812  0.00  0.00    +0.181 C 
BRANCH  16  18
ATOM     17  N   UNL     1     -32.645  18.302   1.401  0.00  0.00    -0.245 NA
ATOM     18  C   UNL     1     -33.766  20.334   0.756  0.00  0.00    +0.033 C 
ATOM     19  C   UNL     1     -32.637  20.767   0.081  0.00  0.00    +0.077 C 
ATOM     20  C   UNL     1     -31.503  19.963   0.063  0.00  0.00    +0.150 C 
ATOM     21  C   UNL     1     -33.728  19.111   1.394  0.00  0.00    +0.097 C 
ATOM     22  C   UNL     1     -31.558  18.750   0.733  0.00  0.00    +0.093 C 
ATOM     23  C   UNL     1     -30.367  17.848   0.747  0.00  0.00    +0.055 C 
BRANCH  20  24
ATOM     24  O   UNL     1     -30.375  20.351  -0.587  0.00  0.00    -0.504 OA
ATOM     25  H   UNL     1     -29.598  20.545  -0.100  0.00  0.00    +0.292 HD
ENDBRANCH  20  24
BRANCH  19  27
ATOM     26  O   UNL     1     -31.778  22.918  -0.400  0.00  0.00    -0.283 OA
ATOM     27  C   UNL     1     -32.629  22.052  -0.607  0.00  0.00    +0.237 C 
ENDBRANCH  19  27
ENDBRANCH  16  18
ENDBRANCH  15  16
ENDBRANCH   1  15
TORSDOF 12
ENDMDL
