MODEL 1
REMARK VINA RESULT:      -5.5      0.000      0.000
REMARK  Name = 5260445
REMARK  4 active torsions:
REMARK  status: ('A' for Active; 'I' for Inactive)
REMARK    1  A    between atoms: C_1  and  C_9
REMARK    2  A    between atoms: C_2  and  C_12
REMARK    3  A    between atoms: C_3  and  C_15
REMARK    4  A    between atoms: C_4  and  C_18
REMARK                            x       y       z     vdW  Elec       q    Type
REMARK                         _______ _______ _______ _____ _____    ______ ____
ROOT
ATOM      1  C   UNL     1     -35.247  23.436   4.779  0.00  0.00    +0.086 C 
ATOM      2  C   UNL     1     -35.899  23.739   3.584  0.00  0.00    +0.086 C 
ATOM      3  C   UNL     1     -34.169  25.598   4.739  0.00  0.00    +0.086 C 
ATOM      4  C   UNL     1     -34.822  25.901   3.544  0.00  0.00    +0.086 C 
ATOM      5  C   UNL     1     -34.382  24.365   5.357  0.00  0.00    +0.014 C 
ATOM      6  C   UNL     1     -35.686  24.972   2.966  0.00  0.00    +0.014 C 
ENDROOT
BRANCH   1   9
ATOM      7  O   UNL     1     -34.951  21.082   4.922  0.00  0.00    -0.241 OA
ATOM      8  O   UNL     1     -36.137  22.115   6.542  0.00  0.00    -0.241 OA
ATOM      9  C   UNL     1     -35.456  22.140   5.451  0.00  0.00    +0.388 C 
ENDBRANCH   1   9
BRANCH   2  12
ATOM     10  O   UNL     1     -38.077  22.864   3.207  0.00  0.00    -0.241 OA
ATOM     11  O   UNL     1     -36.330  21.877   2.171  0.00  0.00    -0.241 OA
ATOM     12  C   UNL     1     -36.820  22.774   2.953  0.00  0.00    +0.388 C 
ENDBRANCH   2  12
BRANCH   3  15
ATOM     13  O   UNL     1     -32.259  27.011   4.681  0.00  0.00    -0.241 OA
ATOM     14  O   UNL     1     -33.468  26.920   6.586  0.00  0.00    -0.241 OA
ATOM     15  C   UNL     1     -33.249  26.561   5.370  0.00  0.00    +0.388 C 
ENDBRANCH   3  15
BRANCH   4  18
ATOM     16  O   UNL     1     -33.912  27.228   1.794  0.00  0.00    -0.241 OA
ATOM     17  O   UNL     1     -35.140  28.252   3.389  0.00  0.00    -0.241 OA
ATOM     18  C   UNL     1     -34.613  27.197   2.872  0.00  0.00    +0.388 C 
ENDBRANCH   4  18
TORSDOF 4
ENDMDL
MODEL 2
REMARK VINA RESULT:      -5.5      0.038      3.150
REMARK  Name = 5260445
REMARK  4 active torsions:
REMARK  status: ('A' for Active; 'I' for Inactive)
REMARK    1  A    between atoms: C_1  and  C_9
REMARK    2  A    between atoms: C_2  and  C_12
REMARK    3  A    between atoms: C_3  and  C_15
REMARK    4  A    between atoms: C_4  and  C_18
REMARK                            x       y       z     vdW  Elec       q    Type
REMARK                         _______ _______ _______ _____ _____    ______ ____
ROOT
ATOM      1  C   UNL     1     -35.930  23.743   3.572  0.00  0.00    +0.086 C 
ATOM      2  C   UNL     1     -35.263  23.436   4.758  0.00  0.00    +0.086 C 
ATOM      3  C   UNL     1     -34.849  25.903   3.525  0.00  0.00    +0.086 C 
ATOM      4  C   UNL     1     -34.181  25.596   4.711  0.00  0.00    +0.086 C 
ATOM      5  C   UNL     1     -35.723  24.977   2.956  0.00  0.00    +0.014 C 
ATOM      6  C   UNL     1     -34.388  24.362   5.327  0.00  0.00    +0.014 C 
ENDROOT
BRANCH   1   9
ATOM      7  O   UNL     1     -36.380  21.887   2.158  0.00  0.00    -0.241 OA
ATOM      8  O   UNL     1     -38.112  22.869   3.224  0.00  0.00    -0.241 OA
ATOM      9  C   UNL     1     -36.858  22.780   2.950  0.00  0.00    +0.388 C 
ENDBRANCH   1   9
BRANCH   2  12
ATOM     10  O   UNL     1     -34.964  21.081   4.892  0.00  0.00    -0.241 OA
ATOM     11  O   UNL     1     -36.131  22.109   6.529  0.00  0.00    -0.241 OA
ATOM     12  C   UNL     1     -35.463  22.137   5.429  0.00  0.00    +0.388 C 
ENDBRANCH   2  12
BRANCH   3  15
ATOM     13  O   UNL     1     -35.161  28.255   3.384  0.00  0.00    -0.241 OA
ATOM     14  O   UNL     1     -33.969  27.233   1.762  0.00  0.00    -0.241 OA
ATOM     15  C   UNL     1     -34.649  27.201   2.854  0.00  0.00    +0.388 C 
ENDBRANCH   3  15
BRANCH   4  18
ATOM     16  O   UNL     1     -32.260  26.992   4.639  0.00  0.00    -0.241 OA
ATOM     17  O   UNL     1     -33.468  26.928   6.545  0.00  0.00    -0.241 OA
ATOM     18  C   UNL     1     -33.253  26.557   5.332  0.00  0.00    +0.388 C 
ENDBRANCH   4  18
TORSDOF 4
ENDMDL
MODEL 3
REMARK VINA RESULT:      -5.5      0.064      4.834
REMARK  Name = 5260445
REMARK  4 active torsions:
REMARK  status: ('A' for Active; 'I' for Inactive)
REMARK    1  A    between atoms: C_1  and  C_9
REMARK    2  A    between atoms: C_2  and  C_12
REMARK    3  A    between atoms: C_3  and  C_15
REMARK    4  A    between atoms: C_4  and  C_18
REMARK                            x       y       z     vdW  Elec       q    Type
REMARK                         _______ _______ _______ _____ _____    ______ ____
ROOT
ATOM      1  C   UNL     1     -34.192  25.577   4.683  0.00  0.00    +0.086 C 
ATOM      2  C   UNL     1     -34.851  25.869   3.489  0.00  0.00    +0.086 C 
ATOM      3  C   UNL     1     -35.262  23.412   4.744  0.00  0.00    +0.086 C 
ATOM      4  C   UNL     1     -35.922  23.704   3.550  0.00  0.00    +0.086 C 
ATOM      5  C   UNL     1     -34.397  24.348   5.311  0.00  0.00    +0.014 C 
ATOM      6  C   UNL     1     -35.717  24.932   2.923  0.00  0.00    +0.014 C 
ENDROOT
BRANCH   1   9
ATOM      7  O   UNL     1     -32.278  26.985   4.609  0.00  0.00    -0.241 OA
ATOM      8  O   UNL     1     -33.496  26.929   6.510  0.00  0.00    -0.241 OA
ATOM      9  C   UNL     1     -33.271  26.550   5.301  0.00  0.00    +0.388 C 
ENDBRANCH   1   9
BRANCH   2  12
ATOM     10  O   UNL     1     -33.958  27.183   1.722  0.00  0.00    -0.241 OA
ATOM     11  O   UNL     1     -35.175  28.217   3.318  0.00  0.00    -0.241 OA
ATOM     12  C   UNL     1     -34.650  27.160   2.805  0.00  0.00    +0.388 C 
ENDBRANCH   2  12
BRANCH   3  15
ATOM     13  O   UNL     1     -34.969  21.058   4.900  0.00  0.00    -0.241 OA
ATOM     14  O   UNL     1     -36.127  22.105   6.532  0.00  0.00    -0.241 OA
ATOM     15  C   UNL     1     -35.464  22.122   5.429  0.00  0.00    +0.388 C 
ENDBRANCH   3  15
BRANCH   4  18
ATOM     16  O   UNL     1     -36.354  21.829   2.155  0.00  0.00    -0.241 OA
ATOM     17  O   UNL     1     -38.098  22.818   3.192  0.00  0.00    -0.241 OA
ATOM     18  C   UNL     1     -36.841  22.731   2.932  0.00  0.00    +0.388 C 
ENDBRANCH   4  18
TORSDOF 4
ENDMDL
MODEL 4
REMARK VINA RESULT:      -5.5      0.073      5.704
REMARK  Name = 5260445
REMARK  4 active torsions:
REMARK  status: ('A' for Active; 'I' for Inactive)
REMARK    1  A    between atoms: C_1  and  C_9
REMARK    2  A    between atoms: C_2  and  C_12
REMARK    3  A    between atoms: C_3  and  C_15
REMARK    4  A    between atoms: C_4  and  C_18
REMARK                            x       y       z     vdW  Elec       q    Type
REMARK                         _______ _______ _______ _____ _____    ______ ____
ROOT
ATOM      1  C   UNL     1     -34.843  25.926   3.487  0.00  0.00    +0.086 C 
ATOM      2  C   UNL     1     -34.169  25.618   4.669  0.00  0.00    +0.086 C 
ATOM      3  C   UNL     1     -35.935  23.772   3.548  0.00  0.00    +0.086 C 
ATOM      4  C   UNL     1     -35.261  23.464   4.730  0.00  0.00    +0.086 C 
ATOM      5  C   UNL     1     -35.726  25.003   2.927  0.00  0.00    +0.014 C 
ATOM      6  C   UNL     1     -34.378  24.387   5.291  0.00  0.00    +0.014 C 
ENDROOT
BRANCH   1   9
ATOM      7  O   UNL     1     -33.957  27.249   1.722  0.00  0.00    -0.241 OA
ATOM      8  O   UNL     1     -35.153  28.278   3.338  0.00  0.00    -0.241 OA
ATOM      9  C   UNL     1     -34.640  27.222   2.812  0.00  0.00    +0.388 C 
ENDBRANCH   1   9
BRANCH   2  12
ATOM     10  O   UNL     1     -32.238  27.001   4.585  0.00  0.00    -0.241 OA
ATOM     11  O   UNL     1     -33.442  26.956   6.494  0.00  0.00    -0.241 OA
ATOM     12  C   UNL     1     -33.231  26.578   5.282  0.00  0.00    +0.388 C 
ENDBRANCH   2  12
BRANCH   3  15
ATOM     13  O   UNL     1     -38.125  22.915   3.205  0.00  0.00    -0.241 OA
ATOM     14  O   UNL     1     -36.402  21.908   2.148  0.00  0.00    -0.241 OA
ATOM     15  C   UNL     1     -36.872  22.813   2.934  0.00  0.00    +0.388 C 
ENDBRANCH   3  15
BRANCH   4  18
ATOM     16  O   UNL     1     -34.978  21.108   4.866  0.00  0.00    -0.241 OA
ATOM     17  O   UNL     1     -36.123  22.147   6.512  0.00  0.00    -0.241 OA
ATOM     18  C   UNL     1     -35.465  22.170   5.406  0.00  0.00    +0.388 C 
ENDBRANCH   4  18
TORSDOF 4
ENDMDL
MODEL 5
REMARK VINA RESULT:      -5.3      1.256      5.060
REMARK  Name = 5260445
REMARK  4 active torsions:
REMARK  status: ('A' for Active; 'I' for Inactive)
REMARK    1  A    between atoms: C_1  and  C_9
REMARK    2  A    between atoms: C_2  and  C_12
REMARK    3  A    between atoms: C_3  and  C_15
REMARK    4  A    between atoms: C_4  and  C_18
REMARK                            x       y       z     vdW  Elec       q    Type
REMARK                         _______ _______ _______ _____ _____    ______ ____
ROOT
ATOM      1  C   UNL     1     -34.071  26.457   4.020  0.00  0.00    +0.086 C 
ATOM      2  C   UNL     1     -35.028  27.044   3.193  0.00  0.00    +0.086 C 
ATOM      3  C   UNL     1     -35.441  24.474   4.196  0.00  0.00    +0.086 C 
ATOM      4  C   UNL     1     -36.398  25.062   3.369  0.00  0.00    +0.086 C 
ATOM      5  C   UNL     1     -34.277  25.172   4.522  0.00  0.00    +0.014 C 
ATOM      6  C   UNL     1     -36.192  26.347   2.867  0.00  0.00    +0.014 C 
ENDROOT
BRANCH   1   9
ATOM      7  O   UNL     1     -32.827  27.906   5.434  0.00  0.00    -0.241 OA
ATOM      8  O   UNL     1     -31.803  27.040   3.618  0.00  0.00    -0.241 OA
ATOM      9  C   UNL     1     -32.832  27.174   4.377  0.00  0.00    +0.388 C 
ENDBRANCH   1   9
BRANCH   2  12
ATOM     10  O   UNL     1     -35.109  29.411   3.395  0.00  0.00    -0.241 OA
ATOM     11  O   UNL     1     -34.396  28.525   1.444  0.00  0.00    -0.241 OA
ATOM     12  C   UNL     1     -34.834  28.401   2.648  0.00  0.00    +0.388 C 
ENDBRANCH   2  12
BRANCH   3  15
ATOM     13  O   UNL     1     -35.377  22.107   3.989  0.00  0.00    -0.241 OA
ATOM     14  O   UNL     1     -36.055  22.993   5.952  0.00  0.00    -0.241 OA
ATOM     15  C   UNL     1     -35.635  23.118   4.741  0.00  0.00    +0.388 C 
ENDBRANCH   3  15
BRANCH   4  18
ATOM     16  O   UNL     1     -38.674  24.496   3.756  0.00  0.00    -0.241 OA
ATOM     17  O   UNL     1     -37.634  23.594   1.966  0.00  0.00    -0.241 OA
ATOM     18  C   UNL     1     -37.636  24.345   3.011  0.00  0.00    +0.388 C 
ENDBRANCH   4  18
TORSDOF 4
ENDMDL
MODEL 6
REMARK VINA RESULT:      -5.3      1.309      5.645
REMARK  Name = 5260445
REMARK  4 active torsions:
REMARK  status: ('A' for Active; 'I' for Inactive)
REMARK    1  A    between atoms: C_1  and  C_9
REMARK    2  A    between atoms: C_2  and  C_12
REMARK    3  A    between atoms: C_3  and  C_15
REMARK    4  A    between atoms: C_4  and  C_18
REMARK                            x       y       z     vdW  Elec       q    Type
REMARK                         _______ _______ _______ _____ _____    ______ ____
ROOT
ATOM      1  C   UNL     1     -34.488  25.018   2.444  0.00  0.00    +0.086 C 
ATOM      2  C   UNL     1     -34.110  25.376   3.738  0.00  0.00    +0.086 C 
ATOM      3  C   UNL     1     -35.293  22.894   3.269  0.00  0.00    +0.086 C 
ATOM      4  C   UNL     1     -34.915  23.253   4.563  0.00  0.00    +0.086 C 
ATOM      5  C   UNL     1     -35.080  23.777   2.210  0.00  0.00    +0.014 C 
ATOM      6  C   UNL     1     -34.323  24.494   4.798  0.00  0.00    +0.014 C 
ENDROOT
BRANCH   1   9
ATOM      7  O   UNL     1     -35.213  26.753   0.991  0.00  0.00    -0.241 OA
ATOM      8  O   UNL     1     -33.155  25.880   0.677  0.00  0.00    -0.241 OA
ATOM      9  C   UNL     1     -34.274  25.934   1.309  0.00  0.00    +0.388 C 
ENDBRANCH   1   9
BRANCH   2  12
ATOM     10  O   UNL     1     -34.239  27.677   4.320  0.00  0.00    -0.241 OA
ATOM     11  O   UNL     1     -32.202  26.781   3.936  0.00  0.00    -0.241 OA
ATOM     12  C   UNL     1     -33.483  26.683   4.013  0.00  0.00    +0.388 C 
ENDBRANCH   2  12
BRANCH   3  15
ATOM     13  O   UNL     1     -35.197  20.527   3.083  0.00  0.00    -0.241 OA
ATOM     14  O   UNL     1     -37.165  21.555   2.674  0.00  0.00    -0.241 OA
ATOM     15  C   UNL     1     -35.919  21.588   2.994  0.00  0.00    +0.388 C 
ENDBRANCH   3  15
BRANCH   4  18
ATOM     16  O   UNL     1     -34.187  21.525   6.024  0.00  0.00    -0.241 OA
ATOM     17  O   UNL     1     -36.253  22.384   6.325  0.00  0.00    -0.241 OA
ATOM     18  C   UNL     1     -35.130  22.338   5.699  0.00  0.00    +0.388 C 
ENDBRANCH   4  18
TORSDOF 4
ENDMDL
MODEL 7
REMARK VINA RESULT:      -5.2      1.808      3.282
REMARK  Name = 5260445
REMARK  4 active torsions:
REMARK  status: ('A' for Active; 'I' for Inactive)
REMARK    1  A    between atoms: C_1  and  C_9
REMARK    2  A    between atoms: C_2  and  C_12
REMARK    3  A    between atoms: C_3  and  C_15
REMARK    4  A    between atoms: C_4  and  C_18
REMARK                            x       y       z     vdW  Elec       q    Type
REMARK                         _______ _______ _______ _____ _____    ______ ____
ROOT
ATOM      1  C   UNL     1     -34.703  24.496   2.824  0.00  0.00    +0.086 C 
ATOM      2  C   UNL     1     -35.170  24.931   4.064  0.00  0.00    +0.086 C 
ATOM      3  C   UNL     1     -32.927  26.132   2.921  0.00  0.00    +0.086 C 
ATOM      4  C   UNL     1     -33.394  26.566   4.162  0.00  0.00    +0.086 C 
ATOM      5  C   UNL     1     -33.581  25.097   2.252  0.00  0.00    +0.014 C 
ATOM      6  C   UNL     1     -34.516  25.966   4.733  0.00  0.00    +0.014 C 
ENDROOT
BRANCH   1   9
ATOM      7  O   UNL     1     -36.261  23.704   1.213  0.00  0.00    -0.241 OA
ATOM      8  O   UNL     1     -35.055  22.190   2.376  0.00  0.00    -0.241 OA
ATOM      9  C   UNL     1     -35.377  23.404   2.098  0.00  0.00    +0.388 C 
ENDBRANCH   1   9
BRANCH   2  12
ATOM     10  O   UNL     1     -37.520  24.749   4.372  0.00  0.00    -0.241 OA
ATOM     11  O   UNL     1     -36.175  23.356   5.534  0.00  0.00    -0.241 OA
ATOM     12  C   UNL     1     -36.354  24.312   4.691  0.00  0.00    +0.388 C 
ENDBRANCH   2  12
BRANCH   3  15
ATOM     13  O   UNL     1     -31.911  27.789   1.553  0.00  0.00    -0.241 OA
ATOM     14  O   UNL     1     -30.587  26.231   2.511  0.00  0.00    -0.241 OA
ATOM     15  C   UNL     1     -31.745  26.751   2.295  0.00  0.00    +0.388 C 
ENDBRANCH   3  15
BRANCH   4  18
ATOM     16  O   UNL     1     -33.010  28.873   4.583  0.00  0.00    -0.241 OA
ATOM     17  O   UNL     1     -31.867  27.356   5.803  0.00  0.00    -0.241 OA
ATOM     18  C   UNL     1     -32.721  27.657   4.888  0.00  0.00    +0.388 C 
ENDBRANCH   4  18
TORSDOF 4
ENDMDL
MODEL 8
REMARK VINA RESULT:      -5.2      1.808      5.220
REMARK  Name = 5260445
REMARK  4 active torsions:
REMARK  status: ('A' for Active; 'I' for Inactive)
REMARK    1  A    between atoms: C_1  and  C_9
REMARK    2  A    between atoms: C_2  and  C_12
REMARK    3  A    between atoms: C_3  and  C_15
REMARK    4  A    between atoms: C_4  and  C_18
REMARK                            x       y       z     vdW  Elec       q    Type
REMARK                         _______ _______ _______ _____ _____    ______ ____
ROOT
ATOM      1  C   UNL     1     -33.390  26.555   4.184  0.00  0.00    +0.086 C 
ATOM      2  C   UNL     1     -32.921  26.141   2.937  0.00  0.00    +0.086 C 
ATOM      3  C   UNL     1     -35.168  24.924   4.056  0.00  0.00    +0.086 C 
ATOM      4  C   UNL     1     -34.699  24.510   2.810  0.00  0.00    +0.086 C 
ATOM      5  C   UNL     1     -34.513  25.946   4.744  0.00  0.00    +0.014 C 
ATOM      6  C   UNL     1     -33.576  25.118   2.250  0.00  0.00    +0.014 C 
ENDROOT
BRANCH   1   9
ATOM      7  O   UNL     1     -31.873  27.313   5.849  0.00  0.00    -0.241 OA
ATOM      8  O   UNL     1     -32.992  28.854   4.635  0.00  0.00    -0.241 OA
ATOM      9  C   UNL     1     -32.714  27.633   4.930  0.00  0.00    +0.388 C 
ENDBRANCH   1   9
BRANCH   2  12
ATOM     10  O   UNL     1     -30.581  26.241   2.535  0.00  0.00    -0.241 OA
ATOM     11  O   UNL     1     -31.898  27.818   1.599  0.00  0.00    -0.241 OA
ATOM     12  C   UNL     1     -31.735  26.767   2.324  0.00  0.00    +0.388 C 
ENDBRANCH   2  12
BRANCH   3  15
ATOM     13  O   UNL     1     -37.519  24.752   4.363  0.00  0.00    -0.241 OA
ATOM     14  O   UNL     1     -36.183  23.321   5.490  0.00  0.00    -0.241 OA
ATOM     15  C   UNL     1     -36.354  24.299   4.669  0.00  0.00    +0.388 C 
ENDBRANCH   3  15
BRANCH   4  18
ATOM     16  O   UNL     1     -35.033  22.213   2.298  0.00  0.00    -0.241 OA
ATOM     17  O   UNL     1     -36.278  23.747   1.205  0.00  0.00    -0.241 OA
ATOM     18  C   UNL     1     -35.373  23.432   2.064  0.00  0.00    +0.388 C 
ENDBRANCH   4  18
TORSDOF 4
ENDMDL
MODEL 9
REMARK VINA RESULT:      -5.2      1.807      5.646
REMARK  Name = 5260445
REMARK  4 active torsions:
REMARK  status: ('A' for Active; 'I' for Inactive)
REMARK    1  A    between atoms: C_1  and  C_9
REMARK    2  A    between atoms: C_2  and  C_12
REMARK    3  A    between atoms: C_3  and  C_15
REMARK    4  A    between atoms: C_4  and  C_18
REMARK                            x       y       z     vdW  Elec       q    Type
REMARK                         _______ _______ _______ _____ _____    ______ ____
ROOT
ATOM      1  C   UNL     1     -32.909  26.157   2.977  0.00  0.00    +0.086 C 
ATOM      2  C   UNL     1     -33.393  26.563   4.221  0.00  0.00    +0.086 C 
ATOM      3  C   UNL     1     -34.682  24.522   2.825  0.00  0.00    +0.086 C 
ATOM      4  C   UNL     1     -35.165  24.928   4.069  0.00  0.00    +0.086 C 
ATOM      5  C   UNL     1     -33.554  25.136   2.279  0.00  0.00    +0.014 C 
ATOM      6  C   UNL     1     -34.520  25.949   4.767  0.00  0.00    +0.014 C 
ENDROOT
BRANCH   1   9
ATOM      7  O   UNL     1     -31.880  27.840   1.652  0.00  0.00    -0.241 OA
ATOM      8  O   UNL     1     -30.565  26.273   2.608  0.00  0.00    -0.241 OA
ATOM      9  C   UNL     1     -31.720  26.791   2.380  0.00  0.00    +0.388 C 
ENDBRANCH   1   9
BRANCH   2  12
ATOM     10  O   UNL     1     -32.993  28.862   4.674  0.00  0.00    -0.241 OA
ATOM     11  O   UNL     1     -31.912  27.320   5.920  0.00  0.00    -0.241 OA
ATOM     12  C   UNL     1     -32.730  27.641   4.980  0.00  0.00    +0.388 C 
ENDBRANCH   2  12
BRANCH   3  15
ATOM     13  O   UNL     1     -36.243  23.759   1.203  0.00  0.00    -0.241 OA
ATOM     14  O   UNL     1     -34.997  22.225   2.295  0.00  0.00    -0.241 OA
ATOM     15  C   UNL     1     -35.343  23.444   2.066  0.00  0.00    +0.388 C 
ENDBRANCH   3  15
BRANCH   4  18
ATOM     16  O   UNL     1     -36.187  23.315   5.483  0.00  0.00    -0.241 OA
ATOM     17  O   UNL     1     -37.518  24.744   4.349  0.00  0.00    -0.241 OA
ATOM     18  C   UNL     1     -36.354  24.295   4.666  0.00  0.00    +0.388 C 
ENDBRANCH   4  18
TORSDOF 4
ENDMDL
