MODEL 1
REMARK VINA RESULT:      -6.2      0.000      0.000
REMARK  Name = 54729463
REMARK  11 active torsions:
REMARK  status: ('A' for Active; 'I' for Inactive)
REMARK    1  A    between atoms: C_4  and  C_24
REMARK    2  A    between atoms: C_8  and  O_10
REMARK    3  A    between atoms: C_8  and  C_12
REMARK    4  A    between atoms: C_13  and  C_15
REMARK    5  A    between atoms: C_14  and  C_17
REMARK    6  A    between atoms: C_16  and  C_18
REMARK    7  A    between atoms: C_18  and  C_19
REMARK    8  A    between atoms: C_18  and  C_21
REMARK    9  A    between atoms: C_21  and  O_22
REMARK   10  A    between atoms: C_24  and  C_25
REMARK   11  A    between atoms: C_30  and  O_31
REMARK                            x       y       z     vdW  Elec       q    Type
REMARK                         _______ _______ _______ _____ _____    ______ ____
ROOT
ATOM      1  O   UNL     1     -32.185  26.643   3.688  0.00  0.00    -0.289 OA
ATOM      2  O   UNL     1     -35.293  30.028   2.646  0.00  0.00    -0.270 OA
ATOM      3  N   UNL     1     -35.457  27.798   3.388  0.00  0.00    -0.295 N 
ATOM      4  C   UNL     1     -34.621  26.656   3.755  0.00  0.00    +0.139 C 
ATOM      5  C   UNL     1     -33.242  27.230   3.524  0.00  0.00    +0.198 C 
ATOM      6  C   UNL     1     -33.379  28.629   3.062  0.00  0.00    +0.123 C 
ATOM      7  C   UNL     1     -34.811  28.963   2.985  0.00  0.00    +0.252 C 
ATOM      8  C   UNL     1     -32.367  29.455   2.763  0.00  0.00    +0.141 C 
ATOM      9  H   UNL     1     -36.439  27.745   3.424  0.00  0.00    +0.150 HD
ENDROOT
BRANCH   8  10
ATOM     10  O   UNL     1     -31.048  29.058   2.863  0.00  0.00    -0.505 OA
ATOM     11  H   UNL     1     -30.805  28.393   3.476  0.00  0.00    +0.292 HD
ENDBRANCH   8  10
BRANCH   8  12
ATOM     12  C   UNL     1     -32.584  30.819   2.315  0.00  0.00    +0.037 C 
ATOM     13  C   UNL     1     -32.364  31.924   3.045  0.00  0.00    +0.003 C 
BRANCH  13  15
ATOM     14  C   UNL     1     -33.732  33.617   1.917  0.00  0.00    -0.000 C 
ATOM     15  C   UNL     1     -32.599  33.259   2.541  0.00  0.00    +0.000 C 
BRANCH  14  17
ATOM     16  C   UNL     1     -35.146  35.350   0.913  0.00  0.00    -0.024 C 
ATOM     17  C   UNL     1     -33.967  34.952   1.414  0.00  0.00    -0.005 C 
BRANCH  16  18
ATOM     18  C   UNL     1     -35.403  36.745   0.384  0.00  0.00    +0.051 C 
BRANCH  18  19
ATOM     19  C   UNL     1     -36.844  37.198   0.688  0.00  0.00    +0.007 C 
ATOM     20  C   UNL     1     -37.741  36.070   1.180  0.00  0.00    +0.000 C 
ENDBRANCH  18  19
BRANCH  18  21
ATOM     21  C   UNL     1     -35.153  36.779  -1.130  0.00  0.00    +0.141 C 
BRANCH  21  22
ATOM     22  O   UNL     1     -35.593  35.559  -1.716  0.00  0.00    -0.382 OA
ATOM     23  H   UNL     1     -36.511  35.655  -2.013  0.00  0.00    +0.210 HD
ENDBRANCH  21  22
ENDBRANCH  18  21
ENDBRANCH  16  18
ENDBRANCH  14  17
ENDBRANCH  13  15
ENDBRANCH   8  12
BRANCH   4  24
ATOM     24  C   UNL     1     -34.889  25.452   2.877  0.00  0.00    +0.054 C 
BRANCH  24  25
ATOM     25  C   UNL     1     -35.038  24.184   3.682  0.00  0.00    -0.020 C 
ATOM     26  C   UNL     1     -34.850  24.210   5.064  0.00  0.00    -0.001 C 
ATOM     27  C   UNL     1     -35.363  22.986   3.044  0.00  0.00    -0.001 C 
ATOM     28  C   UNL     1     -34.987  23.039   5.809  0.00  0.00    +0.036 C 
ATOM     29  C   UNL     1     -35.499  21.815   3.789  0.00  0.00    +0.036 C 
ATOM     30  C   UNL     1     -35.312  21.841   5.171  0.00  0.00    +0.134 C 
BRANCH  30  31
ATOM     31  O   UNL     1     -35.445  20.698   5.898  0.00  0.00    -0.506 OA
ATOM     32  H   UNL     1     -35.780  20.735   6.772  0.00  0.00    +0.292 HD
ENDBRANCH  30  31
ENDBRANCH  24  25
ENDBRANCH   4  24
TORSDOF 11
ENDMDL
MODEL 2
REMARK VINA RESULT:      -6.2      0.593      1.089
REMARK  Name = 54729463
REMARK  11 active torsions:
REMARK  status: ('A' for Active; 'I' for Inactive)
REMARK    1  A    between atoms: C_4  and  C_24
REMARK    2  A    between atoms: C_8  and  O_10
REMARK    3  A    between atoms: C_8  and  C_12
REMARK    4  A    between atoms: C_13  and  C_15
REMARK    5  A    between atoms: C_14  and  C_17
REMARK    6  A    between atoms: C_16  and  C_18
REMARK    7  A    between atoms: C_18  and  C_19
REMARK    8  A    between atoms: C_18  and  C_21
REMARK    9  A    between atoms: C_21  and  O_22
REMARK   10  A    between atoms: C_24  and  C_25
REMARK   11  A    between atoms: C_30  and  O_31
REMARK                            x       y       z     vdW  Elec       q    Type
REMARK                         _______ _______ _______ _____ _____    ______ ____
ROOT
ATOM      1  O   UNL     1     -32.178  26.716   3.787  0.00  0.00    -0.289 OA
ATOM      2  O   UNL     1     -35.418  29.937   2.635  0.00  0.00    -0.270 OA
ATOM      3  N   UNL     1     -35.493  27.700   3.367  0.00  0.00    -0.295 N 
ATOM      4  C   UNL     1     -34.612  26.602   3.764  0.00  0.00    +0.139 C 
ATOM      5  C   UNL     1     -33.257  27.248   3.585  0.00  0.00    +0.198 C 
ATOM      6  C   UNL     1     -33.450  28.639   3.120  0.00  0.00    +0.123 C 
ATOM      7  C   UNL     1     -34.894  28.899   2.990  0.00  0.00    +0.252 C 
ATOM      8  C   UNL     1     -32.472  29.518   2.859  0.00  0.00    +0.141 C 
ATOM      9  H   UNL     1     -36.471  27.596   3.367  0.00  0.00    +0.150 HD
ENDROOT
BRANCH   8  10
ATOM     10  O   UNL     1     -31.139  29.190   3.008  0.00  0.00    -0.505 OA
ATOM     11  H   UNL     1     -30.853  28.725   3.769  0.00  0.00    +0.292 HD
ENDBRANCH   8  10
BRANCH   8  12
ATOM     12  C   UNL     1     -32.744  30.870   2.405  0.00  0.00    +0.037 C 
ATOM     13  C   UNL     1     -32.179  31.985   2.894  0.00  0.00    +0.003 C 
BRANCH  13  15
ATOM     14  C   UNL     1     -33.743  33.717   2.144  0.00  0.00    -0.000 C 
ATOM     15  C   UNL     1     -32.491  33.308   2.398  0.00  0.00    +0.000 C 
BRANCH  14  17
ATOM     16  C   UNL     1     -35.192  35.331   0.999  0.00  0.00    -0.024 C 
ATOM     17  C   UNL     1     -34.054  35.039   1.648  0.00  0.00    -0.005 C 
BRANCH  16  18
ATOM     18  C   UNL     1     -35.528  36.710   0.476  0.00  0.00    +0.051 C 
BRANCH  18  19
ATOM     19  C   UNL     1     -37.053  36.911   0.374  0.00  0.00    +0.007 C 
ATOM     20  C   UNL     1     -37.835  36.126   1.419  0.00  0.00    +0.000 C 
ENDBRANCH  18  19
BRANCH  18  21
ATOM     21  C   UNL     1     -34.882  36.914  -0.901  0.00  0.00    +0.141 C 
BRANCH  21  22
ATOM     22  O   UNL     1     -33.646  37.603  -0.754  0.00  0.00    -0.382 OA
ATOM     23  H   UNL     1     -33.338  37.522   0.162  0.00  0.00    +0.210 HD
ENDBRANCH  21  22
ENDBRANCH  18  21
ENDBRANCH  16  18
ENDBRANCH  14  17
ENDBRANCH  13  15
ENDBRANCH   8  12
BRANCH   4  24
ATOM     24  C   UNL     1     -34.784  25.388   2.875  0.00  0.00    +0.054 C 
BRANCH  24  25
ATOM     25  C   UNL     1     -34.974  24.122   3.674  0.00  0.00    -0.020 C 
ATOM     26  C   UNL     1     -35.324  22.936   3.029  0.00  0.00    -0.001 C 
ATOM     27  C   UNL     1     -34.798  24.137   5.058  0.00  0.00    -0.001 C 
ATOM     28  C   UNL     1     -35.500  21.765   3.766  0.00  0.00    +0.036 C 
ATOM     29  C   UNL     1     -34.975  22.966   5.796  0.00  0.00    +0.036 C 
ATOM     30  C   UNL     1     -35.324  21.781   5.150  0.00  0.00    +0.134 C 
BRANCH  30  31
ATOM     31  O   UNL     1     -35.496  20.638   5.871  0.00  0.00    -0.506 OA
ATOM     32  H   UNL     1     -35.489  20.670   6.807  0.00  0.00    +0.292 HD
ENDBRANCH  30  31
ENDBRANCH  24  25
ENDBRANCH   4  24
TORSDOF 11
ENDMDL
MODEL 3
REMARK VINA RESULT:      -6.1      0.991      1.609
REMARK  Name = 54729463
REMARK  11 active torsions:
REMARK  status: ('A' for Active; 'I' for Inactive)
REMARK    1  A    between atoms: C_4  and  C_24
REMARK    2  A    between atoms: C_8  and  O_10
REMARK    3  A    between atoms: C_8  and  C_12
REMARK    4  A    between atoms: C_13  and  C_15
REMARK    5  A    between atoms: C_14  and  C_17
REMARK    6  A    between atoms: C_16  and  C_18
REMARK    7  A    between atoms: C_18  and  C_19
REMARK    8  A    between atoms: C_18  and  C_21
REMARK    9  A    between atoms: C_21  and  O_22
REMARK   10  A    between atoms: C_24  and  C_25
REMARK   11  A    between atoms: C_30  and  O_31
REMARK                            x       y       z     vdW  Elec       q    Type
REMARK                         _______ _______ _______ _____ _____    ______ ____
ROOT
ATOM      1  O   UNL     1     -32.742  26.873   4.627  0.00  0.00    -0.289 OA
ATOM      2  O   UNL     1     -35.487  29.788   2.144  0.00  0.00    -0.270 OA
ATOM      3  N   UNL     1     -35.701  27.579   2.931  0.00  0.00    -0.295 N 
ATOM      4  C   UNL     1     -34.973  26.567   3.697  0.00  0.00    +0.139 C 
ATOM      5  C   UNL     1     -33.693  27.312   4.001  0.00  0.00    +0.198 C 
ATOM      6  C   UNL     1     -33.777  28.666   3.413  0.00  0.00    +0.123 C 
ATOM      7  C   UNL     1     -35.076  28.807   2.734  0.00  0.00    +0.252 C 
ATOM      8  C   UNL     1     -32.828  29.610   3.485  0.00  0.00    +0.141 C 
ATOM      9  H   UNL     1     -36.598  27.398   2.569  0.00  0.00    +0.150 HD
ENDROOT
BRANCH   8  10
ATOM     10  O   UNL     1     -31.634  29.392   4.144  0.00  0.00    -0.505 OA
ATOM     11  H   UNL     1     -31.118  30.120   4.432  0.00  0.00    +0.292 HD
ENDBRANCH   8  10
BRANCH   8  12
ATOM     12  C   UNL     1     -32.987  30.919   2.880  0.00  0.00    +0.037 C 
ATOM     13  C   UNL     1     -32.206  31.986   3.113  0.00  0.00    +0.003 C 
BRANCH  13  15
ATOM     14  C   UNL     1     -33.609  33.670   2.016  0.00  0.00    -0.000 C 
ATOM     15  C   UNL     1     -32.414  33.268   2.476  0.00  0.00    +0.000 C 
BRANCH  14  17
ATOM     16  C   UNL     1     -35.007  35.349   0.903  0.00  0.00    -0.024 C 
ATOM     17  C   UNL     1     -33.817  34.952   1.380  0.00  0.00    -0.005 C 
BRANCH  16  18
ATOM     18  C   UNL     1     -35.237  36.688   0.235  0.00  0.00    +0.051 C 
BRANCH  18  19
ATOM     19  C   UNL     1     -34.259  37.752   0.770  0.00  0.00    +0.007 C 
ATOM     20  C   UNL     1     -34.805  39.172   0.680  0.00  0.00    +0.000 C 
ENDBRANCH  18  19
BRANCH  18  21
ATOM     21  C   UNL     1     -36.683  37.143   0.470  0.00  0.00    +0.141 C 
BRANCH  21  22
ATOM     22  O   UNL     1     -37.391  36.139   1.188  0.00  0.00    -0.382 OA
ATOM     23  H   UNL     1     -37.631  35.418   0.584  0.00  0.00    +0.210 HD
ENDBRANCH  21  22
ENDBRANCH  18  21
ENDBRANCH  16  18
ENDBRANCH  14  17
ENDBRANCH  13  15
ENDBRANCH   8  12
BRANCH   4  24
ATOM     24  C   UNL     1     -34.722  25.314   2.885  0.00  0.00    +0.054 C 
BRANCH  24  25
ATOM     25  C   UNL     1     -34.940  24.060   3.696  0.00  0.00    -0.020 C 
ATOM     26  C   UNL     1     -35.285  22.868   3.057  0.00  0.00    -0.001 C 
ATOM     27  C   UNL     1     -34.796  24.091   5.083  0.00  0.00    -0.001 C 
ATOM     28  C   UNL     1     -35.486  21.708   3.805  0.00  0.00    +0.036 C 
ATOM     29  C   UNL     1     -34.999  22.932   5.832  0.00  0.00    +0.036 C 
ATOM     30  C   UNL     1     -35.342  21.741   5.193  0.00  0.00    +0.134 C 
BRANCH  30  31
ATOM     31  O   UNL     1     -35.540  20.609   5.924  0.00  0.00    -0.506 OA
ATOM     32  H   UNL     1     -34.991  19.862   5.788  0.00  0.00    +0.292 HD
ENDBRANCH  30  31
ENDBRANCH  24  25
ENDBRANCH   4  24
TORSDOF 11
ENDMDL
MODEL 4
REMARK VINA RESULT:      -6.0      7.703      8.798
REMARK  Name = 54729463
REMARK  11 active torsions:
REMARK  status: ('A' for Active; 'I' for Inactive)
REMARK    1  A    between atoms: C_4  and  C_24
REMARK    2  A    between atoms: C_8  and  O_10
REMARK    3  A    between atoms: C_8  and  C_12
REMARK    4  A    between atoms: C_13  and  C_15
REMARK    5  A    between atoms: C_14  and  C_17
REMARK    6  A    between atoms: C_16  and  C_18
REMARK    7  A    between atoms: C_18  and  C_19
REMARK    8  A    between atoms: C_18  and  C_21
REMARK    9  A    between atoms: C_21  and  O_22
REMARK   10  A    between atoms: C_24  and  C_25
REMARK   11  A    between atoms: C_30  and  O_31
REMARK                            x       y       z     vdW  Elec       q    Type
REMARK                         _______ _______ _______ _____ _____    ______ ____
ROOT
ATOM      1  O   UNL     1     -35.303  22.534   2.375  0.00  0.00    -0.289 OA
ATOM      2  O   UNL     1     -39.993  22.111   2.217  0.00  0.00    -0.270 OA
ATOM      3  N   UNL     1     -38.183  20.664   1.793  0.00  0.00    -0.295 N 
ATOM      4  C   UNL     1     -36.721  20.636   1.804  0.00  0.00    +0.139 C 
ATOM      5  C   UNL     1     -36.415  22.055   2.227  0.00  0.00    +0.198 C 
ATOM      6  C   UNL     1     -37.690  22.776   2.433  0.00  0.00    +0.123 C 
ATOM      7  C   UNL     1     -38.805  21.858   2.147  0.00  0.00    +0.252 C 
ATOM      8  C   UNL     1     -37.811  24.055   2.816  0.00  0.00    +0.141 C 
ATOM      9  H   UNL     1     -38.708  19.869   1.544  0.00  0.00    +0.150 HD
ENDROOT
BRANCH   8  10
ATOM     10  O   UNL     1     -36.708  24.848   3.064  0.00  0.00    -0.505 OA
ATOM     11  H   UNL     1     -36.601  25.254   3.902  0.00  0.00    +0.292 HD
ENDBRANCH   8  10
BRANCH   8  12
ATOM     12  C   UNL     1     -39.102  24.693   2.997  0.00  0.00    +0.037 C 
ATOM     13  C   UNL     1     -39.598  25.679   2.233  0.00  0.00    +0.003 C 
BRANCH  13  15
ATOM     14  C   UNL     1     -41.397  26.485   3.691  0.00  0.00    -0.000 C 
ATOM     15  C   UNL     1     -40.896  26.275   2.463  0.00  0.00    +0.000 C 
BRANCH  14  17
ATOM     16  C   UNL     1     -42.865  28.384   4.193  0.00  0.00    -0.024 C 
ATOM     17  C   UNL     1     -42.695  27.081   3.920  0.00  0.00    -0.005 C 
BRANCH  16  18
ATOM     18  C   UNL     1     -44.218  29.019   4.435  0.00  0.00    +0.051 C 
BRANCH  18  19
ATOM     19  C   UNL     1     -44.541  30.068   3.354  0.00  0.00    +0.007 C 
ATOM     20  C   UNL     1     -44.965  29.454   2.026  0.00  0.00    +0.000 C 
ENDBRANCH  18  19
BRANCH  18  21
ATOM     21  C   UNL     1     -44.242  29.674   5.823  0.00  0.00    +0.141 C 
BRANCH  21  22
ATOM     22  O   UNL     1     -43.020  30.368   6.047  0.00  0.00    -0.382 OA
ATOM     23  H   UNL     1     -42.765  30.842   5.239  0.00  0.00    +0.210 HD
ENDBRANCH  21  22
ENDBRANCH  18  21
ENDBRANCH  16  18
ENDBRANCH  14  17
ENDBRANCH  13  15
ENDBRANCH   8  12
BRANCH   4  24
ATOM     24  C   UNL     1     -36.150  20.314   0.439  0.00  0.00    +0.054 C 
BRANCH  24  25
ATOM     25  C   UNL     1     -35.043  19.291   0.514  0.00  0.00    -0.020 C 
ATOM     26  C   UNL     1     -33.985  19.473   1.404  0.00  0.00    -0.001 C 
ATOM     27  C   UNL     1     -35.079  18.163  -0.306  0.00  0.00    -0.001 C 
ATOM     28  C   UNL     1     -32.962  18.528   1.474  0.00  0.00    +0.036 C 
ATOM     29  C   UNL     1     -34.055  17.218  -0.237  0.00  0.00    +0.036 C 
ATOM     30  C   UNL     1     -32.998  17.400   0.653  0.00  0.00    +0.134 C 
BRANCH  30  31
ATOM     31  O   UNL     1     -31.998  16.477   0.720  0.00  0.00    -0.506 OA
ATOM     32  H   UNL     1     -31.397  16.386   0.007  0.00  0.00    +0.292 HD
ENDBRANCH  30  31
ENDBRANCH  24  25
ENDBRANCH   4  24
TORSDOF 11
ENDMDL
MODEL 5
REMARK VINA RESULT:      -6.0      3.119     10.692
REMARK  Name = 54729463
REMARK  11 active torsions:
REMARK  status: ('A' for Active; 'I' for Inactive)
REMARK    1  A    between atoms: C_4  and  C_24
REMARK    2  A    between atoms: C_8  and  O_10
REMARK    3  A    between atoms: C_8  and  C_12
REMARK    4  A    between atoms: C_13  and  C_15
REMARK    5  A    between atoms: C_14  and  C_17
REMARK    6  A    between atoms: C_16  and  C_18
REMARK    7  A    between atoms: C_18  and  C_19
REMARK    8  A    between atoms: C_18  and  C_21
REMARK    9  A    between atoms: C_21  and  O_22
REMARK   10  A    between atoms: C_24  and  C_25
REMARK   11  A    between atoms: C_30  and  O_31
REMARK                            x       y       z     vdW  Elec       q    Type
REMARK                         _______ _______ _______ _____ _____    ______ ____
ROOT
ATOM      1  O   UNL     1     -34.908  34.960   0.241  0.00  0.00    -0.289 OA
ATOM      2  O   UNL     1     -38.271  31.685   0.646  0.00  0.00    -0.270 OA
ATOM      3  N   UNL     1     -38.102  33.760  -0.455  0.00  0.00    -0.295 N 
ATOM      4  C   UNL     1     -37.161  34.856  -0.682  0.00  0.00    +0.139 C 
ATOM      5  C   UNL     1     -35.968  34.372   0.113  0.00  0.00    +0.198 C 
ATOM      6  C   UNL     1     -36.297  33.062   0.715  0.00  0.00    +0.123 C 
ATOM      7  C   UNL     1     -37.672  32.697   0.333  0.00  0.00    +0.252 C 
ATOM      8  C   UNL     1     -35.480  32.328   1.484  0.00  0.00    +0.141 C 
ATOM      9  H   UNL     1     -39.006  33.774  -0.845  0.00  0.00    +0.150 HD
ENDROOT
BRANCH   8  10
ATOM     10  O   UNL     1     -34.202  32.747   1.794  0.00  0.00    -0.505 OA
ATOM     11  H   UNL     1     -33.909  33.596   1.526  0.00  0.00    +0.292 HD
ENDBRANCH   8  10
BRANCH   8  12
ATOM     12  C   UNL     1     -35.879  31.048   2.040  0.00  0.00    +0.037 C 
ATOM     13  C   UNL     1     -35.126  29.935   2.052  0.00  0.00    +0.003 C 
BRANCH  13  15
ATOM     14  C   UNL     1     -34.806  27.591   2.695  0.00  0.00    -0.000 C 
ATOM     15  C   UNL     1     -35.579  28.686   2.624  0.00  0.00    +0.000 C 
BRANCH  14  17
ATOM     16  C   UNL     1     -35.472  26.172   4.581  0.00  0.00    -0.024 C 
ATOM     17  C   UNL     1     -35.259  26.343   3.267  0.00  0.00    -0.005 C 
BRANCH  16  18
ATOM     18  C   UNL     1     -35.947  24.871   5.190  0.00  0.00    +0.051 C 
BRANCH  18  19
ATOM     19  C   UNL     1     -34.758  23.962   5.557  0.00  0.00    +0.007 C 
ATOM     20  C   UNL     1     -35.175  22.545   5.930  0.00  0.00    +0.000 C 
ENDBRANCH  18  19
BRANCH  18  21
ATOM     21  C   UNL     1     -36.875  24.145   4.207  0.00  0.00    +0.141 C 
BRANCH  21  22
ATOM     22  O   UNL     1     -38.175  24.721   4.261  0.00  0.00    -0.382 OA
ATOM     23  H   UNL     1     -38.269  25.375   3.550  0.00  0.00    +0.210 HD
ENDBRANCH  21  22
ENDBRANCH  18  21
ENDBRANCH  16  18
ENDBRANCH  14  17
ENDBRANCH  13  15
ENDBRANCH   8  12
BRANCH   4  24
ATOM     24  C   UNL     1     -37.691  36.176  -0.162  0.00  0.00    +0.054 C 
BRANCH  24  25
ATOM     25  C   UNL     1     -38.774  35.984   0.871  0.00  0.00    -0.020 C 
ATOM     26  C   UNL     1     -40.112  35.947   0.480  0.00  0.00    -0.001 C 
ATOM     27  C   UNL     1     -38.437  35.845   2.218  0.00  0.00    -0.001 C 
ATOM     28  C   UNL     1     -41.114  35.770   1.434  0.00  0.00    +0.036 C 
ATOM     29  C   UNL     1     -39.439  35.670   3.172  0.00  0.00    +0.036 C 
ATOM     30  C   UNL     1     -40.776  35.631   2.781  0.00  0.00    +0.134 C 
BRANCH  30  31
ATOM     31  O   UNL     1     -41.754  35.460   3.713  0.00  0.00    -0.506 OA
ATOM     32  H   UNL     1     -42.335  34.728   3.652  0.00  0.00    +0.292 HD
ENDBRANCH  30  31
ENDBRANCH  24  25
ENDBRANCH   4  24
TORSDOF 11
ENDMDL
MODEL 6
REMARK VINA RESULT:      -5.9      2.843     10.857
REMARK  Name = 54729463
REMARK  11 active torsions:
REMARK  status: ('A' for Active; 'I' for Inactive)
REMARK    1  A    between atoms: C_4  and  C_24
REMARK    2  A    between atoms: C_8  and  O_10
REMARK    3  A    between atoms: C_8  and  C_12
REMARK    4  A    between atoms: C_13  and  C_15
REMARK    5  A    between atoms: C_14  and  C_17
REMARK    6  A    between atoms: C_16  and  C_18
REMARK    7  A    between atoms: C_18  and  C_19
REMARK    8  A    between atoms: C_18  and  C_21
REMARK    9  A    between atoms: C_21  and  O_22
REMARK   10  A    between atoms: C_24  and  C_25
REMARK   11  A    between atoms: C_30  and  O_31
REMARK                            x       y       z     vdW  Elec       q    Type
REMARK                         _______ _______ _______ _____ _____    ______ ____
ROOT
ATOM      1  O   UNL     1     -34.229  34.546   1.517  0.00  0.00    -0.289 OA
ATOM      2  O   UNL     1     -37.439  31.109   1.240  0.00  0.00    -0.270 OA
ATOM      3  N   UNL     1     -37.369  33.368   0.579  0.00  0.00    -0.295 N 
ATOM      4  C   UNL     1     -36.479  34.528   0.582  0.00  0.00    +0.139 C 
ATOM      5  C   UNL     1     -35.262  33.948   1.268  0.00  0.00    +0.198 C 
ATOM      6  C   UNL     1     -35.530  32.530   1.594  0.00  0.00    +0.123 C 
ATOM      7  C   UNL     1     -36.888  32.188   1.139  0.00  0.00    +0.252 C 
ATOM      8  C   UNL     1     -34.677  31.694   2.202  0.00  0.00    +0.141 C 
ATOM      9  H   UNL     1     -38.275  33.420   0.197  0.00  0.00    +0.150 HD
ENDROOT
BRANCH   8  10
ATOM     10  O   UNL     1     -33.417  32.100   2.597  0.00  0.00    -0.505 OA
ATOM     11  H   UNL     1     -32.960  32.754   2.106  0.00  0.00    +0.292 HD
ENDBRANCH   8  10
BRANCH   8  12
ATOM     12  C   UNL     1     -35.014  30.312   2.487  0.00  0.00    +0.037 C 
ATOM     13  C   UNL     1     -34.171  29.270   2.402  0.00  0.00    +0.003 C 
BRANCH  13  15
ATOM     14  C   UNL     1     -34.083  27.221   3.746  0.00  0.00    -0.000 C 
ATOM     15  C   UNL     1     -34.568  27.911   2.701  0.00  0.00    +0.000 C 
BRANCH  14  17
ATOM     16  C   UNL     1     -35.615  25.556   4.691  0.00  0.00    -0.024 C 
ATOM     17  C   UNL     1     -34.480  25.863   4.044  0.00  0.00    -0.005 C 
BRANCH  16  18
ATOM     18  C   UNL     1     -36.040  24.139   5.009  0.00  0.00    +0.051 C 
BRANCH  18  19
ATOM     19  C   UNL     1     -34.922  23.373   5.743  0.00  0.00    +0.007 C 
ATOM     20  C   UNL     1     -35.393  22.062   6.359  0.00  0.00    +0.000 C 
ENDBRANCH  18  19
BRANCH  18  21
ATOM     21  C   UNL     1     -36.411  23.406   3.713  0.00  0.00    +0.141 C 
BRANCH  21  22
ATOM     22  O   UNL     1     -37.819  23.468   3.513  0.00  0.00    -0.382 OA
ATOM     23  H   UNL     1     -38.181  22.569   3.481  0.00  0.00    +0.210 HD
ENDBRANCH  21  22
ENDBRANCH  18  21
ENDBRANCH  16  18
ENDBRANCH  14  17
ENDBRANCH  13  15
ENDBRANCH   8  12
BRANCH   4  24
ATOM     24  C   UNL     1     -37.066  35.691   1.354  0.00  0.00    +0.054 C 
BRANCH  24  25
ATOM     25  C   UNL     1     -38.553  35.823   1.138  0.00  0.00    -0.020 C 
ATOM     26  C   UNL     1     -39.056  36.021  -0.149  0.00  0.00    -0.001 C 
ATOM     27  C   UNL     1     -39.426  35.748   2.223  0.00  0.00    -0.001 C 
ATOM     28  C   UNL     1     -40.430  36.143  -0.350  0.00  0.00    +0.036 C 
ATOM     29  C   UNL     1     -40.801  35.871   2.022  0.00  0.00    +0.036 C 
ATOM     30  C   UNL     1     -41.303  36.067   0.736  0.00  0.00    +0.134 C 
BRANCH  30  31
ATOM     31  O   UNL     1     -42.645  36.188   0.540  0.00  0.00    -0.506 OA
ATOM     32  H   UNL     1     -42.973  36.482  -0.287  0.00  0.00    +0.292 HD
ENDBRANCH  30  31
ENDBRANCH  24  25
ENDBRANCH   4  24
TORSDOF 11
ENDMDL
MODEL 7
REMARK VINA RESULT:      -5.9      7.807     12.415
REMARK  Name = 54729463
REMARK  11 active torsions:
REMARK  status: ('A' for Active; 'I' for Inactive)
REMARK    1  A    between atoms: C_4  and  C_24
REMARK    2  A    between atoms: C_8  and  O_10
REMARK    3  A    between atoms: C_8  and  C_12
REMARK    4  A    between atoms: C_13  and  C_15
REMARK    5  A    between atoms: C_14  and  C_17
REMARK    6  A    between atoms: C_16  and  C_18
REMARK    7  A    between atoms: C_18  and  C_19
REMARK    8  A    between atoms: C_18  and  C_21
REMARK    9  A    between atoms: C_21  and  O_22
REMARK   10  A    between atoms: C_24  and  C_25
REMARK   11  A    between atoms: C_30  and  O_31
REMARK                            x       y       z     vdW  Elec       q    Type
REMARK                         _______ _______ _______ _____ _____    ______ ____
ROOT
ATOM      1  O   UNL     1     -40.193  22.750   1.919  0.00  0.00    -0.289 OA
ATOM      2  O   UNL     1     -35.812  23.158   3.605  0.00  0.00    -0.270 OA
ATOM      3  N   UNL     1     -37.764  24.471   3.727  0.00  0.00    -0.295 N 
ATOM      4  C   UNL     1     -39.158  24.483   3.285  0.00  0.00    +0.139 C 
ATOM      5  C   UNL     1     -39.216  23.189   2.503  0.00  0.00    +0.198 C 
ATOM      6  C   UNL     1     -37.889  22.538   2.559  0.00  0.00    +0.123 C 
ATOM      7  C   UNL     1     -36.980  23.384   3.350  0.00  0.00    +0.252 C 
ATOM      8  C   UNL     1     -37.566  21.372   1.983  0.00  0.00    +0.141 C 
ATOM      9  H   UNL     1     -37.394  25.204   4.270  0.00  0.00    +0.150 HD
ENDROOT
BRANCH   8  10
ATOM     10  O   UNL     1     -38.484  20.641   1.255  0.00  0.00    -0.505 OA
ATOM     11  H   UNL     1     -39.019  21.066   0.613  0.00  0.00    +0.292 HD
ENDBRANCH   8  10
BRANCH   8  12
ATOM     12  C   UNL     1     -36.237  20.797   2.084  0.00  0.00    +0.037 C 
ATOM     13  C   UNL     1     -35.327  20.760   1.097  0.00  0.00    +0.003 C 
BRANCH  13  15
ATOM     14  C   UNL     1     -33.782  18.857   1.138  0.00  0.00    -0.000 C 
ATOM     15  C   UNL     1     -34.015  20.173   1.259  0.00  0.00    +0.000 C 
BRANCH  14  17
ATOM     16  C   UNL     1     -31.465  18.471   0.434  0.00  0.00    -0.024 C 
ATOM     17  C   UNL     1     -32.471  18.270   1.300  0.00  0.00    -0.005 C 
BRANCH  16  18
ATOM     18  C   UNL     1     -30.089  17.863   0.593  0.00  0.00    +0.051 C 
BRANCH  18  19
ATOM     19  C   UNL     1     -28.988  18.869   0.206  0.00  0.00    +0.007 C 
ATOM     20  C   UNL     1     -29.490  20.001  -0.681  0.00  0.00    +0.000 C 
ENDBRANCH  18  19
BRANCH  18  21
ATOM     21  C   UNL     1     -29.974  16.604  -0.276  0.00  0.00    +0.141 C 
BRANCH  21  22
ATOM     22  O   UNL     1     -30.477  15.481   0.438  0.00  0.00    -0.382 OA
ATOM     23  H   UNL     1     -30.904  14.868  -0.181  0.00  0.00    +0.210 HD
ENDBRANCH  21  22
ENDBRANCH  18  21
ENDBRANCH  16  18
ENDBRANCH  14  17
ENDBRANCH  13  15
ENDBRANCH   8  12
BRANCH   4  24
ATOM     24  C   UNL     1     -39.467  25.684   2.418  0.00  0.00    +0.054 C 
BRANCH  24  25
ATOM     25  C   UNL     1     -40.925  26.069   2.481  0.00  0.00    -0.020 C 
ATOM     26  C   UNL     1     -41.455  26.604   3.656  0.00  0.00    -0.001 C 
ATOM     27  C   UNL     1     -41.744  25.890   1.366  0.00  0.00    -0.001 C 
ATOM     28  C   UNL     1     -42.802  26.960   3.716  0.00  0.00    +0.036 C 
ATOM     29  C   UNL     1     -43.092  26.245   1.426  0.00  0.00    +0.036 C 
ATOM     30  C   UNL     1     -43.620  26.781   2.600  0.00  0.00    +0.134 C 
BRANCH  30  31
ATOM     31  O   UNL     1     -44.936  27.127   2.658  0.00  0.00    -0.506 OA
ATOM     32  H   UNL     1     -45.487  26.761   3.322  0.00  0.00    +0.292 HD
ENDBRANCH  30  31
ENDBRANCH  24  25
ENDBRANCH   4  24
TORSDOF 11
ENDMDL
MODEL 8
REMARK VINA RESULT:      -5.9      7.783      9.159
REMARK  Name = 54729463
REMARK  11 active torsions:
REMARK  status: ('A' for Active; 'I' for Inactive)
REMARK    1  A    between atoms: C_4  and  C_24
REMARK    2  A    between atoms: C_8  and  O_10
REMARK    3  A    between atoms: C_8  and  C_12
REMARK    4  A    between atoms: C_13  and  C_15
REMARK    5  A    between atoms: C_14  and  C_17
REMARK    6  A    between atoms: C_16  and  C_18
REMARK    7  A    between atoms: C_18  and  C_19
REMARK    8  A    between atoms: C_18  and  C_21
REMARK    9  A    between atoms: C_21  and  O_22
REMARK   10  A    between atoms: C_24  and  C_25
REMARK   11  A    between atoms: C_30  and  O_31
REMARK                            x       y       z     vdW  Elec       q    Type
REMARK                         _______ _______ _______ _____ _____    ______ ____
ROOT
ATOM      1  O   UNL     1     -38.202  21.745   0.518  0.00  0.00    -0.289 OA
ATOM      2  O   UNL     1     -37.505  24.709   4.114  0.00  0.00    -0.270 OA
ATOM      3  N   UNL     1     -36.126  23.265   2.865  0.00  0.00    -0.295 N 
ATOM      4  C   UNL     1     -36.180  22.318   1.752  0.00  0.00    +0.139 C 
ATOM      5  C   UNL     1     -37.650  22.380   1.401  0.00  0.00    +0.198 C 
ATOM      6  C   UNL     1     -38.316  23.340   2.308  0.00  0.00    +0.123 C 
ATOM      7  C   UNL     1     -37.313  23.890   3.235  0.00  0.00    +0.252 C 
ATOM      8  C   UNL     1     -39.618  23.656   2.290  0.00  0.00    +0.141 C 
ATOM      9  H   UNL     1     -35.282  23.452   3.336  0.00  0.00    +0.150 HD
ENDROOT
BRANCH   8  10
ATOM     10  O   UNL     1     -40.493  23.090   1.383  0.00  0.00    -0.505 OA
ATOM     11  H   UNL     1     -41.416  23.125   1.537  0.00  0.00    +0.292 HD
ENDBRANCH   8  10
BRANCH   8  12
ATOM     12  C   UNL     1     -40.199  24.611   3.216  0.00  0.00    +0.037 C 
ATOM     13  C   UNL     1     -40.751  25.788   2.879  0.00  0.00    +0.003 C 
BRANCH  13  15
ATOM     14  C   UNL     1     -42.281  27.582   3.550  0.00  0.00    -0.000 C 
ATOM     15  C   UNL     1     -41.316  26.699   3.850  0.00  0.00    +0.000 C 
BRANCH  14  17
ATOM     16  C   UNL     1     -44.162  28.580   4.766  0.00  0.00    -0.024 C 
ATOM     17  C   UNL     1     -42.845  28.492   4.521  0.00  0.00    -0.005 C 
BRANCH  16  18
ATOM     18  C   UNL     1     -44.764  29.529   5.780  0.00  0.00    +0.051 C 
BRANCH  18  19
ATOM     19  C   UNL     1     -43.670  30.334   6.507  0.00  0.00    +0.007 C 
ATOM     20  C   UNL     1     -43.823  30.328   8.023  0.00  0.00    +0.000 C 
ENDBRANCH  18  19
BRANCH  18  21
ATOM     21  C   UNL     1     -45.595  28.738   6.799  0.00  0.00    +0.141 C 
BRANCH  21  22
ATOM     22  O   UNL     1     -45.704  27.383   6.381  0.00  0.00    -0.382 OA
ATOM     23  H   UNL     1     -46.598  27.220   6.043  0.00  0.00    +0.210 HD
ENDBRANCH  21  22
ENDBRANCH  18  21
ENDBRANCH  16  18
ENDBRANCH  14  17
ENDBRANCH  13  15
ENDBRANCH   8  12
BRANCH   4  24
ATOM     24  C   UNL     1     -35.754  20.927   2.169  0.00  0.00    +0.054 C 
BRANCH  24  25
ATOM     25  C   UNL     1     -34.477  20.496   1.488  0.00  0.00    -0.020 C 
ATOM     26  C   UNL     1     -33.915  19.253   1.783  0.00  0.00    -0.001 C 
ATOM     27  C   UNL     1     -33.859  21.340   0.565  0.00  0.00    -0.001 C 
ATOM     28  C   UNL     1     -32.736  18.855   1.154  0.00  0.00    +0.036 C 
ATOM     29  C   UNL     1     -32.679  20.942  -0.063  0.00  0.00    +0.036 C 
ATOM     30  C   UNL     1     -32.118  19.699   0.231  0.00  0.00    +0.134 C 
BRANCH  30  31
ATOM     31  O   UNL     1     -30.966  19.311  -0.382  0.00  0.00    -0.506 OA
ATOM     32  H   UNL     1     -30.983  18.622  -1.016  0.00  0.00    +0.292 HD
ENDBRANCH  30  31
ENDBRANCH  24  25
ENDBRANCH   4  24
TORSDOF 11
ENDMDL
MODEL 9
REMARK VINA RESULT:      -5.9      7.982      9.603
REMARK  Name = 54729463
REMARK  11 active torsions:
REMARK  status: ('A' for Active; 'I' for Inactive)
REMARK    1  A    between atoms: C_4  and  C_24
REMARK    2  A    between atoms: C_8  and  O_10
REMARK    3  A    between atoms: C_8  and  C_12
REMARK    4  A    between atoms: C_13  and  C_15
REMARK    5  A    between atoms: C_14  and  C_17
REMARK    6  A    between atoms: C_16  and  C_18
REMARK    7  A    between atoms: C_18  and  C_19
REMARK    8  A    between atoms: C_18  and  C_21
REMARK    9  A    between atoms: C_21  and  O_22
REMARK   10  A    between atoms: C_24  and  C_25
REMARK   11  A    between atoms: C_30  and  O_31
REMARK                            x       y       z     vdW  Elec       q    Type
REMARK                         _______ _______ _______ _____ _____    ______ ____
ROOT
ATOM      1  O   UNL     1     -35.350  22.664   2.599  0.00  0.00    -0.289 OA
ATOM      2  O   UNL     1     -39.981  21.895   2.207  0.00  0.00    -0.270 OA
ATOM      3  N   UNL     1     -38.048  20.613   1.799  0.00  0.00    -0.295 N 
ATOM      4  C   UNL     1     -36.590  20.695   1.876  0.00  0.00    +0.139 C 
ATOM      5  C   UNL     1     -36.414  22.111   2.379  0.00  0.00    +0.198 C 
ATOM      6  C   UNL     1     -37.749  22.722   2.560  0.00  0.00    +0.123 C 
ATOM      7  C   UNL     1     -38.775  21.737   2.180  0.00  0.00    +0.252 C 
ATOM      8  C   UNL     1     -37.985  23.966   2.997  0.00  0.00    +0.141 C 
ATOM      9  H   UNL     1     -38.498  19.794   1.489  0.00  0.00    +0.150 HD
ENDROOT
BRANCH   8  10
ATOM     10  O   UNL     1     -36.959  24.828   3.332  0.00  0.00    -0.505 OA
ATOM     11  H   UNL     1     -36.766  24.998   4.233  0.00  0.00    +0.292 HD
ENDBRANCH   8  10
BRANCH   8  12
ATOM     12  C   UNL     1     -39.329  24.494   3.148  0.00  0.00    +0.037 C 
ATOM     13  C   UNL     1     -39.858  25.497   2.429  0.00  0.00    +0.003 C 
BRANCH  13  15
ATOM     14  C   UNL     1     -41.595  26.638   3.729  0.00  0.00    -0.000 C 
ATOM     15  C   UNL     1     -41.208  25.979   2.626  0.00  0.00    +0.000 C 
BRANCH  14  17
ATOM     16  C   UNL     1     -44.021  26.525   3.389  0.00  0.00    -0.024 C 
ATOM     17  C   UNL     1     -42.944  27.119   3.926  0.00  0.00    -0.005 C 
BRANCH  16  18
ATOM     18  C   UNL     1     -45.437  27.020   3.587  0.00  0.00    +0.051 C 
BRANCH  18  19
ATOM     19  C   UNL     1     -46.252  26.042   4.456  0.00  0.00    +0.007 C 
ATOM     20  C   UNL     1     -46.615  24.752   3.733  0.00  0.00    +0.000 C 
ENDBRANCH  18  19
BRANCH  18  21
ATOM     21  C   UNL     1     -46.120  27.200   2.225  0.00  0.00    +0.141 C 
BRANCH  21  22
ATOM     22  O   UNL     1     -45.524  28.291   1.531  0.00  0.00    -0.382 OA
ATOM     23  H   UNL     1     -45.233  27.996   0.653  0.00  0.00    +0.210 HD
ENDBRANCH  21  22
ENDBRANCH  18  21
ENDBRANCH  16  18
ENDBRANCH  14  17
ENDBRANCH  13  15
ENDBRANCH   8  12
BRANCH   4  24
ATOM     24  C   UNL     1     -35.938  20.488   0.525  0.00  0.00    +0.054 C 
BRANCH  24  25
ATOM     25  C   UNL     1     -34.894  19.399   0.560  0.00  0.00    -0.020 C 
ATOM     26  C   UNL     1     -33.815  19.495   1.438  0.00  0.00    -0.001 C 
ATOM     27  C   UNL     1     -35.008  18.295  -0.286  0.00  0.00    -0.001 C 
ATOM     28  C   UNL     1     -32.849  18.489   1.471  0.00  0.00    +0.036 C 
ATOM     29  C   UNL     1     -34.043  17.289  -0.253  0.00  0.00    +0.036 C 
ATOM     30  C   UNL     1     -32.964  17.385   0.625  0.00  0.00    +0.134 C 
BRANCH  30  31
ATOM     31  O   UNL     1     -32.022  16.404   0.657  0.00  0.00    -0.506 OA
ATOM     32  H   UNL     1     -31.114  16.628   0.719  0.00  0.00    +0.292 HD
ENDBRANCH  30  31
ENDBRANCH  24  25
ENDBRANCH   4  24
TORSDOF 11
ENDMDL
