MODEL 1
REMARK VINA RESULT:      -6.3      0.000      0.000
REMARK  Name = 56160
REMARK  6 active torsions:
REMARK  status: ('A' for Active; 'I' for Inactive)
REMARK    1  A    between atoms: N_3  and  S_14
REMARK    2  A    between atoms: C_9  and  O_28
REMARK    3  A    between atoms: S_14  and  C_17
REMARK    4  A    between atoms: C_18  and  C_24
REMARK    5  A    between atoms: C_24  and  O_25
REMARK    6  A    between atoms: O_25  and  C_26
REMARK                            x       y       z     vdW  Elec       q    Type
REMARK                         _______ _______ _______ _____ _____    ______ ____
ROOT
ATOM      1 CL   UNL     1     -30.213  29.061   6.848  0.00  0.00    -0.051 Cl
ATOM      2  O   UNL     1     -34.712  27.250   2.065  0.00  0.00    -0.250 OA
ATOM      3  N   UNL     1     -34.135  25.020   2.372  0.00  0.00    -0.168 N 
ATOM      4  N   UNL     1     -33.089  26.672   3.640  0.00  0.00    -0.192 N 
ATOM      5  N   UNL     1     -33.330  28.998   3.684  0.00  0.00    -0.294 NA
ATOM      6  N   UNL     1     -31.761  27.885   5.135  0.00  0.00    -0.320 NA
ATOM      7  C   UNL     1     -34.029  26.424   2.656  0.00  0.00    +0.333 C 
ATOM      8  C   UNL     1     -32.706  27.920   4.182  0.00  0.00    +0.210 C 
ATOM      9  C   UNL     1     -32.940  30.171   4.222  0.00  0.00    +0.273 C 
ATOM     10  C   UNL     1     -31.980  30.282   5.208  0.00  0.00    +0.172 C 
ATOM     11  C   UNL     1     -31.419  29.093   5.630  0.00  0.00    +0.190 C 
ATOM     12  H   UNL     1     -33.591  24.407   2.917  0.00  0.00    +0.178 HD
ATOM     13  H   UNL     1     -32.631  25.882   4.009  0.00  0.00    +0.170 HD
ENDROOT
BRANCH   3  14
ATOM     14  S   UNL     1     -35.129  24.328   1.162  0.00  0.00    +0.077 S 
ATOM     15  O   UNL     1     -34.576  24.653  -0.146  0.00  0.00    -0.150 OA
ATOM     16  O   UNL     1     -36.519  24.644   1.456  0.00  0.00    -0.150 OA
BRANCH  14  17
ATOM     17  C   UNL     1     -34.907  22.617   1.459  0.00  0.00    +0.131 C 
ATOM     18  C   UNL     1     -35.386  22.014   2.622  0.00  0.00    +0.094 C 
ATOM     19  C   UNL     1     -34.234  21.854   0.503  0.00  0.00    +0.020 C 
ATOM     20  C   UNL     1     -35.192  20.648   2.829  0.00  0.00    +0.008 C 
ATOM     21  C   UNL     1     -34.041  20.489   0.710  0.00  0.00    +0.001 C 
ATOM     22  C   UNL     1     -34.521  19.885   1.873  0.00  0.00    +0.000 C 
BRANCH  18  24
ATOM     23  O   UNL     1     -37.323  22.874   3.714  0.00  0.00    -0.245 OA
ATOM     24  C   UNL     1     -36.092  22.777   3.642  0.00  0.00    +0.343 C 
BRANCH  24  25
ATOM     25  O   UNL     1     -35.222  23.374   4.513  0.00  0.00    -0.445 OA
BRANCH  25  26
ATOM     26  C   UNL     1     -35.512  23.239   5.907  0.00  0.00    +0.209 C 
ATOM     27  C   UNL     1     -35.190  21.826   6.344  0.00  0.00    +0.051 C 
ENDBRANCH  25  26
ENDBRANCH  24  25
ENDBRANCH  18  24
ENDBRANCH  14  17
ENDBRANCH   3  14
BRANCH   9  28
ATOM     28  O   UNL     1     -33.544  31.306   3.750  0.00  0.00    -0.450 OA
ATOM     29  C   UNL     1     -34.646  31.125   2.868  0.00  0.00    +0.255 C 
ENDBRANCH   9  28
TORSDOF 6
ENDMDL
MODEL 2
REMARK VINA RESULT:      -6.2      6.163      9.771
REMARK  Name = 56160
REMARK  6 active torsions:
REMARK  status: ('A' for Active; 'I' for Inactive)
REMARK    1  A    between atoms: N_3  and  S_14
REMARK    2  A    between atoms: C_9  and  O_28
REMARK    3  A    between atoms: S_14  and  C_17
REMARK    4  A    between atoms: C_18  and  C_24
REMARK    5  A    between atoms: C_24  and  O_25
REMARK    6  A    between atoms: O_25  and  C_26
REMARK                            x       y       z     vdW  Elec       q    Type
REMARK                         _______ _______ _______ _____ _____    ______ ____
ROOT
ATOM      1 CL   UNL     1     -34.486  13.434  -2.347  0.00  0.00    -0.051 Cl
ATOM      2  O   UNL     1     -33.285  18.894   1.544  0.00  0.00    -0.250 OA
ATOM      3  N   UNL     1     -35.502  19.550   1.301  0.00  0.00    -0.168 N 
ATOM      4  N   UNL     1     -34.752  17.600   0.269  0.00  0.00    -0.192 N 
ATOM      5  N   UNL     1     -32.657  16.559   0.226  0.00  0.00    -0.294 NA
ATOM      6  N   UNL     1     -34.537  15.615  -0.951  0.00  0.00    -0.320 NA
ATOM      7  C   UNL     1     -34.391  18.670   1.069  0.00  0.00    +0.333 C 
ATOM      8  C   UNL     1     -33.936  16.533  -0.176  0.00  0.00    +0.210 C 
ATOM      9  C   UNL     1     -31.909  15.528  -0.217  0.00  0.00    +0.273 C 
ATOM     10  C   UNL     1     -32.396  14.516  -1.020  0.00  0.00    +0.172 C 
ATOM     11  C   UNL     1     -33.731  14.613  -1.357  0.00  0.00    +0.190 C 
ATOM     12  H   UNL     1     -36.373  19.286   0.928  0.00  0.00    +0.178 HD
ATOM     13  H   UNL     1     -35.690  17.578  -0.026  0.00  0.00    +0.170 HD
ENDROOT
BRANCH   3  14
ATOM     14  S   UNL     1     -35.431  21.022   2.173  0.00  0.00    +0.077 S 
ATOM     15  O   UNL     1     -34.526  21.933   1.487  0.00  0.00    -0.150 OA
ATOM     16  O   UNL     1     -35.226  20.725   3.582  0.00  0.00    -0.150 OA
BRANCH  14  17
ATOM     17  C   UNL     1     -37.070  21.614   1.996  0.00  0.00    +0.131 C 
ATOM     18  C   UNL     1     -37.481  22.801   2.601  0.00  0.00    +0.094 C 
ATOM     19  C   UNL     1     -37.970  20.871   1.231  0.00  0.00    +0.020 C 
ATOM     20  C   UNL     1     -38.794  23.246   2.442  0.00  0.00    +0.008 C 
ATOM     21  C   UNL     1     -39.282  21.316   1.072  0.00  0.00    +0.001 C 
ATOM     22  C   UNL     1     -39.694  22.504   1.676  0.00  0.00    +0.000 C 
BRANCH  18  24
ATOM     23  O   UNL     1     -35.778  24.433   2.947  0.00  0.00    -0.245 OA
ATOM     24  C   UNL     1     -36.571  23.603   3.408  0.00  0.00    +0.343 C 
BRANCH  24  25
ATOM     25  O   UNL     1     -36.702  23.323   4.740  0.00  0.00    -0.445 OA
BRANCH  25  26
ATOM     26  C   UNL     1     -35.564  23.582   5.568  0.00  0.00    +0.209 C 
ATOM     27  C   UNL     1     -35.307  22.375   6.444  0.00  0.00    +0.051 C 
ENDBRANCH  25  26
ENDBRANCH  24  25
ENDBRANCH  18  24
ENDBRANCH  14  17
ENDBRANCH   3  14
BRANCH   9  28
ATOM     28  O   UNL     1     -30.593  15.504   0.162  0.00  0.00    -0.450 OA
ATOM     29  C   UNL     1     -29.943  16.763   0.298  0.00  0.00    +0.255 C 
ENDBRANCH   9  28
TORSDOF 6
ENDMDL
MODEL 3
REMARK VINA RESULT:      -6.2      4.921      7.391
REMARK  Name = 56160
REMARK  6 active torsions:
REMARK  status: ('A' for Active; 'I' for Inactive)
REMARK    1  A    between atoms: N_3  and  S_14
REMARK    2  A    between atoms: C_9  and  O_28
REMARK    3  A    between atoms: S_14  and  C_17
REMARK    4  A    between atoms: C_18  and  C_24
REMARK    5  A    between atoms: C_24  and  O_25
REMARK    6  A    between atoms: O_25  and  C_26
REMARK                            x       y       z     vdW  Elec       q    Type
REMARK                         _______ _______ _______ _____ _____    ______ ____
ROOT
ATOM      1 CL   UNL     1     -43.222  28.348   2.017  0.00  0.00    -0.051 Cl
ATOM      2  O   UNL     1     -38.337  23.713   3.038  0.00  0.00    -0.250 OA
ATOM      3  N   UNL     1     -37.282  25.157   4.523  0.00  0.00    -0.168 N 
ATOM      4  N   UNL     1     -39.260  25.811   3.480  0.00  0.00    -0.192 N 
ATOM      5  N   UNL     1     -40.652  24.726   1.944  0.00  0.00    -0.294 NA
ATOM      6  N   UNL     1     -41.165  26.945   2.732  0.00  0.00    -0.320 NA
ATOM      7  C   UNL     1     -38.328  24.797   3.607  0.00  0.00    +0.333 C 
ATOM      8  C   UNL     1     -40.423  25.827   2.675  0.00  0.00    +0.210 C 
ATOM      9  C   UNL     1     -41.767  24.777   1.188  0.00  0.00    +0.273 C 
ATOM     10  C   UNL     1     -42.620  25.861   1.150  0.00  0.00    +0.172 C 
ATOM     11  C   UNL     1     -42.265  26.927   1.952  0.00  0.00    +0.190 C 
ATOM     12  H   UNL     1     -37.361  26.024   4.981  0.00  0.00    +0.178 HD
ATOM     13  H   UNL     1     -39.095  26.620   4.016  0.00  0.00    +0.170 HD
ENDROOT
BRANCH   3  14
ATOM     14  S   UNL     1     -35.908  24.200   4.881  0.00  0.00    +0.077 S 
ATOM     15  O   UNL     1     -36.337  22.830   5.124  0.00  0.00    -0.150 OA
ATOM     16  O   UNL     1     -35.100  24.890   5.875  0.00  0.00    -0.150 OA
BRANCH  14  17
ATOM     17  C   UNL     1     -35.034  24.257   3.364  0.00  0.00    +0.131 C 
ATOM     18  C   UNL     1     -34.277  25.372   3.004  0.00  0.00    +0.094 C 
ATOM     19  C   UNL     1     -35.108  23.157   2.509  0.00  0.00    +0.020 C 
ATOM     20  C   UNL     1     -33.593  25.386   1.788  0.00  0.00    +0.008 C 
ATOM     21  C   UNL     1     -34.424  23.171   1.294  0.00  0.00    +0.001 C 
ATOM     22  C   UNL     1     -33.665  24.286   0.934  0.00  0.00    +0.000 C 
BRANCH  18  24
ATOM     23  O   UNL     1     -35.080  27.371   4.027  0.00  0.00    -0.245 OA
ATOM     24  C   UNL     1     -34.178  26.539   3.870  0.00  0.00    +0.343 C 
BRANCH  24  25
ATOM     25  O   UNL     1     -32.960  26.600   4.489  0.00  0.00    -0.445 OA
BRANCH  25  26
ATOM     26  C   UNL     1     -32.512  27.896   4.901  0.00  0.00    +0.209 C 
ATOM     27  C   UNL     1     -32.218  27.867   6.386  0.00  0.00    +0.051 C 
ENDBRANCH  25  26
ENDBRANCH  24  25
ENDBRANCH  18  24
ENDBRANCH  14  17
ENDBRANCH   3  14
BRANCH   9  28
ATOM     28  O   UNL     1     -42.050  23.678   0.419  0.00  0.00    -0.450 OA
ATOM     29  C   UNL     1     -40.946  23.029  -0.201  0.00  0.00    +0.255 C 
ENDBRANCH   9  28
TORSDOF 6
ENDMDL
MODEL 4
REMARK VINA RESULT:      -6.2      5.134      6.936
REMARK  Name = 56160
REMARK  6 active torsions:
REMARK  status: ('A' for Active; 'I' for Inactive)
REMARK    1  A    between atoms: N_3  and  S_14
REMARK    2  A    between atoms: C_9  and  O_28
REMARK    3  A    between atoms: S_14  and  C_17
REMARK    4  A    between atoms: C_18  and  C_24
REMARK    5  A    between atoms: C_24  and  O_25
REMARK    6  A    between atoms: O_25  and  C_26
REMARK                            x       y       z     vdW  Elec       q    Type
REMARK                         _______ _______ _______ _____ _____    ______ ____
ROOT
ATOM      1 CL   UNL     1     -43.821  24.763   0.705  0.00  0.00    -0.051 Cl
ATOM      2  O   UNL     1     -37.522  25.786   3.085  0.00  0.00    -0.250 OA
ATOM      3  N   UNL     1     -36.715  24.152   1.642  0.00  0.00    -0.168 N 
ATOM      4  N   UNL     1     -38.988  24.666   1.654  0.00  0.00    -0.192 N 
ATOM      5  N   UNL     1     -40.238  26.199   2.903  0.00  0.00    -0.294 NA
ATOM      6  N   UNL     1     -41.292  24.778   1.267  0.00  0.00    -0.320 NA
ATOM      7  C   UNL     1     -37.756  24.959   2.213  0.00  0.00    +0.333 C 
ATOM      8  C   UNL     1     -40.241  25.247   1.959  0.00  0.00    +0.210 C 
ATOM      9  C   UNL     1     -41.449  26.729   3.168  0.00  0.00    +0.273 C 
ATOM     10  C   UNL     1     -42.612  26.342   2.534  0.00  0.00    +0.172 C 
ATOM     11  C   UNL     1     -42.471  25.353   1.582  0.00  0.00    +0.190 C 
ATOM     12  H   UNL     1     -36.966  23.541   0.912  0.00  0.00    +0.178 HD
ATOM     13  H   UNL     1     -38.992  23.968   0.960  0.00  0.00    +0.170 HD
ENDROOT
BRANCH   3  14
ATOM     14  S   UNL     1     -35.073  24.166   2.129  0.00  0.00    +0.077 S 
ATOM     15  O   UNL     1     -34.639  25.548   2.285  0.00  0.00    -0.150 OA
ATOM     16  O   UNL     1     -34.320  23.266   1.270  0.00  0.00    -0.150 OA
BRANCH  14  17
ATOM     17  C   UNL     1     -35.169  23.423   3.711  0.00  0.00    +0.131 C 
ATOM     18  C   UNL     1     -35.478  22.071   3.861  0.00  0.00    +0.094 C 
ATOM     19  C   UNL     1     -34.929  24.213   4.837  0.00  0.00    +0.020 C 
ATOM     20  C   UNL     1     -35.547  21.509   5.136  0.00  0.00    +0.008 C 
ATOM     21  C   UNL     1     -34.998  23.651   6.111  0.00  0.00    +0.001 C 
ATOM     22  C   UNL     1     -35.306  22.298   6.261  0.00  0.00    +0.000 C 
BRANCH  18  24
ATOM     23  O   UNL     1     -36.735  21.299   1.988  0.00  0.00    -0.245 OA
ATOM     24  C   UNL     1     -35.735  21.215   2.710  0.00  0.00    +0.343 C 
BRANCH  24  25
ATOM     25  O   UNL     1     -34.731  20.305   2.529  0.00  0.00    -0.445 OA
BRANCH  25  26
ATOM     26  C   UNL     1     -34.509  19.848   1.191  0.00  0.00    +0.209 C 
ATOM     27  C   UNL     1     -33.492  18.727   1.215  0.00  0.00    +0.051 C 
ENDBRANCH  25  26
ENDBRANCH  24  25
ENDBRANCH  18  24
ENDBRANCH  14  17
ENDBRANCH   3  14
BRANCH   9  28
ATOM     28  O   UNL     1     -41.506  27.707   4.127  0.00  0.00    -0.450 OA
ATOM     29  C   UNL     1     -42.715  28.453   4.209  0.00  0.00    +0.255 C 
ENDBRANCH   9  28
TORSDOF 6
ENDMDL
MODEL 5
REMARK VINA RESULT:      -6.1      4.956      7.121
REMARK  Name = 56160
REMARK  6 active torsions:
REMARK  status: ('A' for Active; 'I' for Inactive)
REMARK    1  A    between atoms: N_3  and  S_14
REMARK    2  A    between atoms: C_9  and  O_28
REMARK    3  A    between atoms: S_14  and  C_17
REMARK    4  A    between atoms: C_18  and  C_24
REMARK    5  A    between atoms: C_24  and  O_25
REMARK    6  A    between atoms: O_25  and  C_26
REMARK                            x       y       z     vdW  Elec       q    Type
REMARK                         _______ _______ _______ _____ _____    ______ ____
ROOT
ATOM      1 CL   UNL     1     -43.198  28.509   2.652  0.00  0.00    -0.051 Cl
ATOM      2  O   UNL     1     -38.176  24.050   1.520  0.00  0.00    -0.250 OA
ATOM      3  N   UNL     1     -36.660  25.512   2.503  0.00  0.00    -0.168 N 
ATOM      4  N   UNL     1     -38.909  26.105   2.350  0.00  0.00    -0.192 N 
ATOM      5  N   UNL     1     -40.764  24.989   1.464  0.00  0.00    -0.294 NA
ATOM      6  N   UNL     1     -40.986  27.175   2.452  0.00  0.00    -0.320 NA
ATOM      7  C   UNL     1     -37.973  25.125   2.068  0.00  0.00    +0.333 C 
ATOM      8  C   UNL     1     -40.296  26.088   2.073  0.00  0.00    +0.210 C 
ATOM      9  C   UNL     1     -42.089  25.007   1.214  0.00  0.00    +0.273 C 
ATOM     10  C   UNL     1     -42.918  26.059   1.549  0.00  0.00    +0.172 C 
ATOM     11  C   UNL     1     -42.305  27.126   2.172  0.00  0.00    +0.190 C 
ATOM     12  H   UNL     1     -36.576  26.370   2.979  0.00  0.00    +0.178 HD
ATOM     13  H   UNL     1     -38.568  26.912   2.799  0.00  0.00    +0.170 HD
ENDROOT
BRANCH   3  14
ATOM     14  S   UNL     1     -35.230  24.603   2.259  0.00  0.00    +0.077 S 
ATOM     15  O   UNL     1     -34.084  25.498   2.335  0.00  0.00    -0.150 OA
ATOM     16  O   UNL     1     -35.406  23.753   1.092  0.00  0.00    -0.150 OA
BRANCH  14  17
ATOM     17  C   UNL     1     -35.228  23.564   3.668  0.00  0.00    +0.131 C 
ATOM     18  C   UNL     1     -35.048  24.081   4.951  0.00  0.00    +0.094 C 
ATOM     19  C   UNL     1     -35.412  22.192   3.488  0.00  0.00    +0.020 C 
ATOM     20  C   UNL     1     -35.051  23.225   6.054  0.00  0.00    +0.008 C 
ATOM     21  C   UNL     1     -35.415  21.338   4.590  0.00  0.00    +0.001 C 
ATOM     22  C   UNL     1     -35.236  21.855   5.873  0.00  0.00    +0.000 C 
BRANCH  18  24
ATOM     23  O   UNL     1     -35.765  26.340   5.207  0.00  0.00    -0.245 OA
ATOM     24  C   UNL     1     -34.852  25.506   5.179  0.00  0.00    +0.343 C 
BRANCH  24  25
ATOM     25  O   UNL     1     -33.531  25.808   5.360  0.00  0.00    -0.445 OA
BRANCH  25  26
ATOM     26  C   UNL     1     -33.188  27.196   5.412  0.00  0.00    +0.209 C 
ATOM     27  C   UNL     1     -32.489  27.483   6.724  0.00  0.00    +0.051 C 
ENDBRANCH  25  26
ENDBRANCH  24  25
ENDBRANCH  18  24
ENDBRANCH  14  17
ENDBRANCH   3  14
BRANCH   9  28
ATOM     28  O   UNL     1     -42.622  23.909   0.592  0.00  0.00    -0.450 OA
ATOM     29  C   UNL     1     -41.839  23.313  -0.436  0.00  0.00    +0.255 C 
ENDBRANCH   9  28
TORSDOF 6
ENDMDL
MODEL 6
REMARK VINA RESULT:      -6.1      4.012      8.133
REMARK  Name = 56160
REMARK  6 active torsions:
REMARK  status: ('A' for Active; 'I' for Inactive)
REMARK    1  A    between atoms: N_3  and  S_14
REMARK    2  A    between atoms: C_9  and  O_28
REMARK    3  A    between atoms: S_14  and  C_17
REMARK    4  A    between atoms: C_18  and  C_24
REMARK    5  A    between atoms: C_24  and  O_25
REMARK    6  A    between atoms: O_25  and  C_26
REMARK                            x       y       z     vdW  Elec       q    Type
REMARK                         _______ _______ _______ _____ _____    ______ ____
ROOT
ATOM      1 CL   UNL     1     -41.847  27.231   1.246  0.00  0.00    -0.051 Cl
ATOM      2  O   UNL     1     -36.213  24.562   3.989  0.00  0.00    -0.250 OA
ATOM      3  N   UNL     1     -35.344  26.699   4.274  0.00  0.00    -0.168 N 
ATOM      4  N   UNL     1     -37.452  26.424   3.319  0.00  0.00    -0.192 N 
ATOM      5  N   UNL     1     -38.715  24.514   2.839  0.00  0.00    -0.294 NA
ATOM      6  N   UNL     1     -39.553  26.717   2.333  0.00  0.00    -0.320 NA
ATOM      7  C   UNL     1     -36.357  25.771   3.858  0.00  0.00    +0.333 C 
ATOM      8  C   UNL     1     -38.638  25.853   2.802  0.00  0.00    +0.210 C 
ATOM      9  C   UNL     1     -39.858  24.004   2.338  0.00  0.00    +0.273 C 
ATOM     10  C   UNL     1     -40.881  24.775   1.823  0.00  0.00    +0.172 C 
ATOM     11  C   UNL     1     -40.671  26.139   1.847  0.00  0.00    +0.190 C 
ATOM     12  H   UNL     1     -35.545  27.658   4.183  0.00  0.00    +0.178 HD
ATOM     13  H   UNL     1     -37.398  27.407   3.292  0.00  0.00    +0.170 HD
ENDROOT
BRANCH   3  14
ATOM     14  S   UNL     1     -33.814  26.272   4.912  0.00  0.00    +0.077 S 
ATOM     15  O   UNL     1     -33.103  25.463   3.932  0.00  0.00    -0.150 OA
ATOM     16  O   UNL     1     -33.991  25.773   6.267  0.00  0.00    -0.150 OA
BRANCH  14  17
ATOM     17  C   UNL     1     -33.031  27.834   5.028  0.00  0.00    +0.131 C 
ATOM     18  C   UNL     1     -33.190  28.801   4.035  0.00  0.00    +0.094 C 
ATOM     19  C   UNL     1     -32.235  28.102   6.143  0.00  0.00    +0.020 C 
ATOM     20  C   UNL     1     -32.553  30.036   4.157  0.00  0.00    +0.008 C 
ATOM     21  C   UNL     1     -31.599  29.337   6.264  0.00  0.00    +0.001 C 
ATOM     22  C   UNL     1     -31.758  30.304   5.272  0.00  0.00    +0.000 C 
BRANCH  18  24
ATOM     23  O   UNL     1     -33.653  27.884   1.883  0.00  0.00    -0.245 OA
ATOM     24  C   UNL     1     -34.012  28.557   2.857  0.00  0.00    +0.343 C 
BRANCH  24  25
ATOM     25  O   UNL     1     -35.232  29.167   2.963  0.00  0.00    -0.445 OA
BRANCH  25  26
ATOM     26  C   UNL     1     -35.690  29.894   1.819  0.00  0.00    +0.209 C 
ATOM     27  C   UNL     1     -36.003  31.316   2.231  0.00  0.00    +0.051 C 
ENDBRANCH  25  26
ENDBRANCH  24  25
ENDBRANCH  18  24
ENDBRANCH  14  17
ENDBRANCH   3  14
BRANCH   9  28
ATOM     28  O   UNL     1     -39.990  22.641   2.349  0.00  0.00    -0.450 OA
ATOM     29  C   UNL     1     -38.834  21.883   2.011  0.00  0.00    +0.255 C 
ENDBRANCH   9  28
TORSDOF 6
ENDMDL
MODEL 7
REMARK VINA RESULT:      -6.1      6.362      7.798
REMARK  Name = 56160
REMARK  6 active torsions:
REMARK  status: ('A' for Active; 'I' for Inactive)
REMARK    1  A    between atoms: N_3  and  S_14
REMARK    2  A    between atoms: C_9  and  O_28
REMARK    3  A    between atoms: S_14  and  C_17
REMARK    4  A    between atoms: C_18  and  C_24
REMARK    5  A    between atoms: C_24  and  O_25
REMARK    6  A    between atoms: O_25  and  C_26
REMARK                            x       y       z     vdW  Elec       q    Type
REMARK                         _______ _______ _______ _____ _____    ______ ____
ROOT
ATOM      1 CL   UNL     1     -35.110  22.359   6.241  0.00  0.00    -0.051 Cl
ATOM      2  O   UNL     1     -38.353  26.835   2.262  0.00  0.00    -0.250 OA
ATOM      3  N   UNL     1     -40.201  25.427   2.189  0.00  0.00    -0.168 N 
ATOM      4  N   UNL     1     -38.316  24.802   3.408  0.00  0.00    -0.192 N 
ATOM      5  N   UNL     1     -36.262  25.864   3.767  0.00  0.00    -0.294 NA
ATOM      6  N   UNL     1     -36.734  23.711   4.742  0.00  0.00    -0.320 NA
ATOM      7  C   UNL     1     -38.874  25.782   2.607  0.00  0.00    +0.333 C 
ATOM      8  C   UNL     1     -37.034  24.793   4.005  0.00  0.00    +0.210 C 
ATOM      9  C   UNL     1     -35.047  25.821   4.351  0.00  0.00    +0.273 C 
ATOM     10  C   UNL     1     -34.609  24.772   5.133  0.00  0.00    +0.172 C 
ATOM     11  C   UNL     1     -35.504  23.734   5.296  0.00  0.00    +0.190 C 
ATOM     12  H   UNL     1     -40.576  24.588   2.541  0.00  0.00    +0.178 HD
ATOM     13  H   UNL     1     -38.880  24.016   3.585  0.00  0.00    +0.170 HD
ENDROOT
BRANCH   3  14
ATOM     14  S   UNL     1     -41.182  26.344   1.126  0.00  0.00    +0.077 S 
ATOM     15  O   UNL     1     -41.094  25.771  -0.209  0.00  0.00    -0.150 OA
ATOM     16  O   UNL     1     -40.898  27.757   1.325  0.00  0.00    -0.150 OA
BRANCH  14  17
ATOM     17  C   UNL     1     -42.781  26.035   1.769  0.00  0.00    +0.131 C 
ATOM     18  C   UNL     1     -43.231  26.665   2.929  0.00  0.00    +0.094 C 
ATOM     19  C   UNL     1     -43.611  25.138   1.094  0.00  0.00    +0.020 C 
ATOM     20  C   UNL     1     -44.511  26.396   3.415  0.00  0.00    +0.008 C 
ATOM     21  C   UNL     1     -44.890  24.870   1.581  0.00  0.00    +0.001 C 
ATOM     22  C   UNL     1     -45.341  25.500   2.741  0.00  0.00    +0.000 C 
BRANCH  18  24
ATOM     23  O   UNL     1     -41.352  27.300   4.253  0.00  0.00    -0.245 OA
ATOM     24  C   UNL     1     -42.394  27.606   3.661  0.00  0.00    +0.343 C 
BRANCH  24  25
ATOM     25  O   UNL     1     -42.905  28.874   3.611  0.00  0.00    -0.445 OA
BRANCH  25  26
ATOM     26  C   UNL     1     -43.468  29.389   4.822  0.00  0.00    +0.209 C 
ATOM     27  C   UNL     1     -44.563  30.375   4.476  0.00  0.00    +0.051 C 
ENDBRANCH  25  26
ENDBRANCH  24  25
ENDBRANCH  18  24
ENDBRANCH  14  17
ENDBRANCH   3  14
BRANCH   9  28
ATOM     28  O   UNL     1     -34.216  26.889   4.141  0.00  0.00    -0.450 OA
ATOM     29  C   UNL     1     -33.507  26.916   2.907  0.00  0.00    +0.255 C 
ENDBRANCH   9  28
TORSDOF 6
ENDMDL
MODEL 8
REMARK VINA RESULT:      -6.1      2.560      3.692
REMARK  Name = 56160
REMARK  6 active torsions:
REMARK  status: ('A' for Active; 'I' for Inactive)
REMARK    1  A    between atoms: N_3  and  S_14
REMARK    2  A    between atoms: C_9  and  O_28
REMARK    3  A    between atoms: S_14  and  C_17
REMARK    4  A    between atoms: C_18  and  C_24
REMARK    5  A    between atoms: C_24  and  O_25
REMARK    6  A    between atoms: O_25  and  C_26
REMARK                            x       y       z     vdW  Elec       q    Type
REMARK                         _______ _______ _______ _____ _____    ______ ____
ROOT
ATOM      1 CL   UNL     1     -31.597  30.931   1.126  0.00  0.00    -0.051 Cl
ATOM      2  O   UNL     1     -34.061  26.522   5.696  0.00  0.00    -0.250 OA
ATOM      3  N   UNL     1     -34.748  25.124   3.972  0.00  0.00    -0.168 N 
ATOM      4  N   UNL     1     -33.671  27.130   3.476  0.00  0.00    -0.192 N 
ATOM      5  N   UNL     1     -32.818  28.827   4.843  0.00  0.00    -0.294 NA
ATOM      6  N   UNL     1     -32.669  28.973   2.442  0.00  0.00    -0.320 NA
ATOM      7  C   UNL     1     -34.134  26.313   4.493  0.00  0.00    +0.333 C 
ATOM      8  C   UNL     1     -33.016  28.378   3.594  0.00  0.00    +0.210 C 
ATOM      9  C   UNL     1     -32.192  30.019   4.918  0.00  0.00    +0.273 C 
ATOM     10  C   UNL     1     -31.780  30.740   3.815  0.00  0.00    +0.172 C 
ATOM     11  C   UNL     1     -32.047  30.161   2.591  0.00  0.00    +0.190 C 
ATOM     12  H   UNL     1     -34.731  24.996   2.996  0.00  0.00    +0.178 HD
ATOM     13  H   UNL     1     -33.815  26.803   2.559  0.00  0.00    +0.170 HD
ENDROOT
BRANCH   3  14
ATOM     14  S   UNL     1     -35.509  23.911   4.911  0.00  0.00    +0.077 S 
ATOM     15  O   UNL     1     -36.650  24.496   5.602  0.00  0.00    -0.150 OA
ATOM     16  O   UNL     1     -34.494  23.198   5.671  0.00  0.00    -0.150 OA
BRANCH  14  17
ATOM     17  C   UNL     1     -36.097  22.823   3.672  0.00  0.00    +0.131 C 
ATOM     18  C   UNL     1     -37.147  23.184   2.828  0.00  0.00    +0.094 C 
ATOM     19  C   UNL     1     -35.492  21.572   3.539  0.00  0.00    +0.020 C 
ATOM     20  C   UNL     1     -37.592  22.293   1.850  0.00  0.00    +0.008 C 
ATOM     21  C   UNL     1     -35.938  20.683   2.562  0.00  0.00    +0.001 C 
ATOM     22  C   UNL     1     -36.988  21.043   1.717  0.00  0.00    +0.000 C 
BRANCH  18  24
ATOM     23  O   UNL     1     -37.321  25.542   2.525  0.00  0.00    -0.245 OA
ATOM     24  C   UNL     1     -37.803  24.480   2.936  0.00  0.00    +0.343 C 
BRANCH  24  25
ATOM     25  O   UNL     1     -39.020  24.375   3.551  0.00  0.00    -0.445 OA
BRANCH  25  26
ATOM     26  C   UNL     1     -40.061  25.229   3.067  0.00  0.00    +0.209 C 
ATOM     27  C   UNL     1     -40.621  24.647   1.786  0.00  0.00    +0.051 C 
ENDBRANCH  25  26
ENDBRANCH  24  25
ENDBRANCH  18  24
ENDBRANCH  14  17
ENDBRANCH   3  14
BRANCH   9  28
ATOM     28  O   UNL     1     -31.963  30.526   6.170  0.00  0.00    -0.450 OA
ATOM     29  C   UNL     1     -31.437  29.626   7.138  0.00  0.00    +0.255 C 
ENDBRANCH   9  28
TORSDOF 6
ENDMDL
MODEL 9
REMARK VINA RESULT:      -5.9      4.134      8.379
REMARK  Name = 56160
REMARK  6 active torsions:
REMARK  status: ('A' for Active; 'I' for Inactive)
REMARK    1  A    between atoms: N_3  and  S_14
REMARK    2  A    between atoms: C_9  and  O_28
REMARK    3  A    between atoms: S_14  and  C_17
REMARK    4  A    between atoms: C_18  and  C_24
REMARK    5  A    between atoms: C_24  and  O_25
REMARK    6  A    between atoms: O_25  and  C_26
REMARK                            x       y       z     vdW  Elec       q    Type
REMARK                         _______ _______ _______ _____ _____    ______ ____
ROOT
ATOM      1 CL   UNL     1     -41.477  26.371   2.022  0.00  0.00    -0.051 Cl
ATOM      2  O   UNL     1     -35.001  25.103   3.709  0.00  0.00    -0.250 OA
ATOM      3  N   UNL     1     -34.616  27.384   3.935  0.00  0.00    -0.168 N 
ATOM      4  N   UNL     1     -36.732  26.621   3.323  0.00  0.00    -0.192 N 
ATOM      5  N   UNL     1     -37.578  24.468   2.977  0.00  0.00    -0.294 NA
ATOM      6  N   UNL     1     -38.977  26.411   2.702  0.00  0.00    -0.320 NA
ATOM      7  C   UNL     1     -35.442  26.244   3.652  0.00  0.00    +0.333 C 
ATOM      8  C   UNL     1     -37.822  25.787   2.983  0.00  0.00    +0.210 C 
ATOM      9  C   UNL     1     -38.639  23.703   2.648  0.00  0.00    +0.273 C 
ATOM     10  C   UNL     1     -39.884  24.211   2.337  0.00  0.00    +0.172 C 
ATOM     11  C   UNL     1     -39.995  25.586   2.381  0.00  0.00    +0.190 C 
ATOM     12  H   UNL     1     -35.047  28.269   3.916  0.00  0.00    +0.178 HD
ATOM     13  H   UNL     1     -36.913  27.588   3.327  0.00  0.00    +0.170 HD
ENDROOT
BRANCH   3  14
ATOM     14  S   UNL     1     -32.944  27.329   4.299  0.00  0.00    +0.077 S 
ATOM     15  O   UNL     1     -32.271  26.508   3.302  0.00  0.00    -0.150 OA
ATOM     16  O   UNL     1     -32.781  27.026   5.713  0.00  0.00    -0.150 OA
BRANCH  14  17
ATOM     17  C   UNL     1     -32.477  29.000   4.064  0.00  0.00    +0.131 C 
ATOM     18  C   UNL     1     -31.193  29.445   4.376  0.00  0.00    +0.094 C 
ATOM     19  C   UNL     1     -33.421  29.892   3.554  0.00  0.00    +0.020 C 
ATOM     20  C   UNL     1     -30.852  30.784   4.177  0.00  0.00    +0.008 C 
ATOM     21  C   UNL     1     -33.080  31.229   3.355  0.00  0.00    +0.001 C 
ATOM     22  C   UNL     1     -31.795  31.675   3.666  0.00  0.00    +0.000 C 
BRANCH  18  24
ATOM     23  O   UNL     1     -29.517  27.756   4.227  0.00  0.00    -0.245 OA
ATOM     24  C   UNL     1     -30.181  28.544   4.911  0.00  0.00    +0.343 C 
BRANCH  24  25
ATOM     25  O   UNL     1     -30.058  28.678   6.266  0.00  0.00    -0.445 OA
BRANCH  25  26
ATOM     26  C   UNL     1     -28.784  28.354   6.832  0.00  0.00    +0.209 C 
ATOM     27  C   UNL     1     -28.392  29.436   7.817  0.00  0.00    +0.051 C 
ENDBRANCH  25  26
ENDBRANCH  24  25
ENDBRANCH  18  24
ENDBRANCH  14  17
ENDBRANCH   3  14
BRANCH   9  28
ATOM     28  O   UNL     1     -38.448  22.347   2.626  0.00  0.00    -0.450 OA
ATOM     29  C   UNL     1     -39.407  21.577   1.910  0.00  0.00    +0.255 C 
ENDBRANCH   9  28
TORSDOF 6
ENDMDL
