MODEL 1
REMARK VINA RESULT:      -7.0      0.000      0.000
REMARK  Name = 57383998
REMARK  2 active torsions:
REMARK  status: ('A' for Active; 'I' for Inactive)
REMARK    1  A    between atoms: C_19  and  O_27
REMARK    2  A    between atoms: C_20  and  O_29
REMARK                            x       y       z     vdW  Elec       q    Type
REMARK                         _______ _______ _______ _____ _____    ______ ____
ROOT
ATOM      1  S   UNL     1     -34.412  26.869   0.422  0.00  0.00    -0.054 S 
ATOM      2  S   UNL     1     -33.121  28.460   0.679  0.00  0.00    -0.054 S 
ATOM      3  O   UNL     1     -33.220  28.588   4.229  0.00  0.00    -0.272 OA
ATOM      4  O   UNL     1     -37.433  28.585   1.162  0.00  0.00    -0.272 OA
ATOM      5  O   UNL     1     -33.505  33.703   2.330  0.00  0.00    -0.291 OA
ATOM      6  O   UNL     1     -37.580  23.728   3.669  0.00  0.00    -0.291 OA
ATOM      7  N   UNL     1     -34.830  27.341   3.081  0.00  0.00    -0.263 N 
ATOM      8  N   UNL     1     -35.390  29.576   1.716  0.00  0.00    -0.263 N 
ATOM      9  C   UNL     1     -33.973  29.333   2.049  0.00  0.00    +0.178 C 
ATOM     10  C   UNL     1     -35.566  27.182   1.812  0.00  0.00    +0.178 C 
ATOM     11  C   UNL     1     -35.685  31.005   1.688  0.00  0.00    +0.115 C 
ATOM     12  C   UNL     1     -35.211  26.313   4.042  0.00  0.00    +0.115 C 
ATOM     13  C   UNL     1     -35.755  25.211   3.126  0.00  0.00    +0.086 C 
ATOM     14  C   UNL     1     -34.296  31.604   1.440  0.00  0.00    +0.086 C 
ATOM     15  C   UNL     1     -33.400  30.736   2.312  0.00  0.00    +0.048 C 
ATOM     16  C   UNL     1     -36.521  26.004   2.074  0.00  0.00    +0.048 C 
ATOM     17  C   UNL     1     -33.967  28.416   3.272  0.00  0.00    +0.253 C 
ATOM     18  C   UNL     1     -36.272  28.511   1.552  0.00  0.00    +0.253 C 
ATOM     19  C   UNL     1     -36.667  31.572   0.658  0.00  0.00    +0.151 C 
ATOM     20  C   UNL     1     -34.160  25.710   4.977  0.00  0.00    +0.151 C 
ATOM     21  C   UNL     1     -36.496  24.212   3.977  0.00  0.00    +0.174 C 
ATOM     22  C   UNL     1     -34.359  33.085   1.706  0.00  0.00    +0.174 C 
ATOM     23  C   UNL     1     -34.680  24.431   5.604  0.00  0.00    +0.007 C 
ATOM     24  C   UNL     1     -36.514  33.075   0.548  0.00  0.00    +0.007 C 
ATOM     25  C   UNL     1     -35.771  23.761   5.199  0.00  0.00    +0.035 C 
ATOM     26  C   UNL     1     -35.502  33.793   1.063  0.00  0.00    +0.035 C 
ENDROOT
BRANCH  19  27
ATOM     27  O   UNL     1     -38.006  31.337   1.089  0.00  0.00    -0.378 OA
ATOM     28  H   UNL     1     -38.097  31.601   2.018  0.00  0.00    +0.211 HD
ENDBRANCH  19  27
BRANCH  20  29
ATOM     29  O   UNL     1     -33.908  26.603   6.060  0.00  0.00    -0.378 OA
ATOM     30  H   UNL     1     -33.300  26.185   6.690  0.00  0.00    +0.211 HD
ENDBRANCH  20  29
TORSDOF 2
ENDMDL
MODEL 2
REMARK VINA RESULT:      -7.0      0.042      7.126
REMARK  Name = 57383998
REMARK  2 active torsions:
REMARK  status: ('A' for Active; 'I' for Inactive)
REMARK    1  A    between atoms: C_19  and  O_27
REMARK    2  A    between atoms: C_20  and  O_29
REMARK                            x       y       z     vdW  Elec       q    Type
REMARK                         _______ _______ _______ _____ _____    ______ ____
ROOT
ATOM      1  S   UNL     1     -33.142  28.434   0.656  0.00  0.00    -0.054 S 
ATOM      2  S   UNL     1     -34.433  26.842   0.407  0.00  0.00    -0.054 S 
ATOM      3  O   UNL     1     -37.455  28.556   1.155  0.00  0.00    -0.272 OA
ATOM      4  O   UNL     1     -33.229  28.565   4.204  0.00  0.00    -0.272 OA
ATOM      5  O   UNL     1     -37.587  23.698   3.651  0.00  0.00    -0.291 OA
ATOM      6  O   UNL     1     -33.541  33.683   2.308  0.00  0.00    -0.291 OA
ATOM      7  N   UNL     1     -35.409  29.548   1.698  0.00  0.00    -0.263 N 
ATOM      8  N   UNL     1     -34.845  27.318   3.067  0.00  0.00    -0.263 N 
ATOM      9  C   UNL     1     -35.585  27.156   1.800  0.00  0.00    +0.178 C 
ATOM     10  C   UNL     1     -33.991  29.308   2.027  0.00  0.00    +0.178 C 
ATOM     11  C   UNL     1     -35.225  26.290   4.031  0.00  0.00    +0.115 C 
ATOM     12  C   UNL     1     -35.706  30.975   1.665  0.00  0.00    +0.115 C 
ATOM     13  C   UNL     1     -34.319  31.581   1.417  0.00  0.00    +0.086 C 
ATOM     14  C   UNL     1     -35.766  25.187   3.114  0.00  0.00    +0.086 C 
ATOM     15  C   UNL     1     -36.537  25.977   2.065  0.00  0.00    +0.048 C 
ATOM     16  C   UNL     1     -33.419  30.713   2.287  0.00  0.00    +0.048 C 
ATOM     17  C   UNL     1     -36.293  28.485   1.540  0.00  0.00    +0.253 C 
ATOM     18  C   UNL     1     -33.980  28.393   3.250  0.00  0.00    +0.253 C 
ATOM     19  C   UNL     1     -34.178  25.690   4.974  0.00  0.00    +0.151 C 
ATOM     20  C   UNL     1     -36.686  31.533   0.629  0.00  0.00    +0.151 C 
ATOM     21  C   UNL     1     -34.395  33.062   1.685  0.00  0.00    +0.174 C 
ATOM     22  C   UNL     1     -36.504  24.182   3.958  0.00  0.00    +0.174 C 
ATOM     23  C   UNL     1     -36.554  33.040   0.532  0.00  0.00    +0.007 C 
ATOM     24  C   UNL     1     -34.689  24.399   5.583  0.00  0.00    +0.007 C 
ATOM     25  C   UNL     1     -35.547  33.762   1.051  0.00  0.00    +0.035 C 
ATOM     26  C   UNL     1     -35.775  23.724   5.174  0.00  0.00    +0.035 C 
ENDROOT
BRANCH  19  27
ATOM     27  O   UNL     1     -33.944  26.579   6.063  0.00  0.00    -0.378 OA
ATOM     28  H   UNL     1     -33.681  26.070   6.846  0.00  0.00    +0.211 HD
ENDBRANCH  19  27
BRANCH  20  29
ATOM     29  O   UNL     1     -38.025  31.281   1.048  0.00  0.00    -0.378 OA
ATOM     30  H   UNL     1     -38.158  30.326   1.152  0.00  0.00    +0.211 HD
ENDBRANCH  20  29
TORSDOF 2
ENDMDL
MODEL 3
REMARK VINA RESULT:      -6.7      5.666      9.141
REMARK  Name = 57383998
REMARK  2 active torsions:
REMARK  status: ('A' for Active; 'I' for Inactive)
REMARK    1  A    between atoms: C_19  and  O_27
REMARK    2  A    between atoms: C_20  and  O_29
REMARK                            x       y       z     vdW  Elec       q    Type
REMARK                         _______ _______ _______ _____ _____    ______ ____
ROOT
ATOM      1  S   UNL     1     -36.345  21.760  -1.040  0.00  0.00    -0.054 S 
ATOM      2  S   UNL     1     -35.800  19.878  -0.389  0.00  0.00    -0.054 S 
ATOM      3  O   UNL     1     -35.450  20.648   3.063  0.00  0.00    -0.272 OA
ATOM      4  O   UNL     1     -33.148  23.289  -0.794  0.00  0.00    -0.272 OA
ATOM      5  O   UNL     1     -31.248  17.484   1.587  0.00  0.00    -0.291 OA
ATOM      6  O   UNL     1     -36.856  26.773   1.207  0.00  0.00    -0.291 OA
ATOM      7  N   UNL     1     -35.576  22.388   1.506  0.00  0.00    -0.263 N 
ATOM      8  N   UNL     1     -33.514  21.232   0.250  0.00  0.00    -0.263 N 
ATOM      9  C   UNL     1     -34.523  20.334   0.846  0.00  0.00    +0.178 C 
ATOM     10  C   UNL     1     -35.341  22.784   0.105  0.00  0.00    +0.178 C 
ATOM     11  C   UNL     1     -32.186  20.624   0.283  0.00  0.00    +0.115 C 
ATOM     12  C   UNL     1     -36.134  23.492   2.278  0.00  0.00    +0.115 C 
ATOM     13  C   UNL     1     -36.754  24.363   1.179  0.00  0.00    +0.086 C 
ATOM     14  C   UNL     1     -32.529  19.133   0.378  0.00  0.00    +0.086 C 
ATOM     15  C   UNL     1     -33.710  19.125   1.339  0.00  0.00    +0.048 C 
ATOM     16  C   UNL     1     -35.721  24.275   0.064  0.00  0.00    +0.048 C 
ATOM     17  C   UNL     1     -35.202  21.127   1.962  0.00  0.00    +0.253 C 
ATOM     18  C   UNL     1     -33.866  22.507  -0.181  0.00  0.00    +0.253 C 
ATOM     19  C   UNL     1     -31.208  20.842  -0.875  0.00  0.00    +0.151 C 
ATOM     20  C   UNL     1     -37.187  23.222   3.355  0.00  0.00    +0.151 C 
ATOM     21  C   UNL     1     -37.083  25.709   1.772  0.00  0.00    +0.174 C 
ATOM     22  C   UNL     1     -31.280  18.378   0.750  0.00  0.00    +0.174 C 
ATOM     23  C   UNL     1     -37.883  24.510   3.750  0.00  0.00    +0.007 C 
ATOM     24  C   UNL     1     -30.087  19.823  -0.823  0.00  0.00    +0.007 C 
ATOM     25  C   UNL     1     -37.807  25.668   3.074  0.00  0.00    +0.035 C 
ATOM     26  C   UNL     1     -30.073  18.723  -0.051  0.00  0.00    +0.035 C 
ENDROOT
BRANCH  19  27
ATOM     27  O   UNL     1     -30.590  22.121  -0.750  0.00  0.00    -0.378 OA
ATOM     28  H   UNL     1     -30.480  22.515  -1.630  0.00  0.00    +0.211 HD
ENDBRANCH  19  27
BRANCH  20  29
ATOM     29  O   UNL     1     -36.555  22.738   4.538  0.00  0.00    -0.378 OA
ATOM     30  H   UNL     1     -37.222  22.353   5.127  0.00  0.00    +0.211 HD
ENDBRANCH  20  29
TORSDOF 2
ENDMDL
MODEL 4
REMARK VINA RESULT:      -6.7      5.664      7.972
REMARK  Name = 57383998
REMARK  2 active torsions:
REMARK  status: ('A' for Active; 'I' for Inactive)
REMARK    1  A    between atoms: C_19  and  O_27
REMARK    2  A    between atoms: C_20  and  O_29
REMARK                            x       y       z     vdW  Elec       q    Type
REMARK                         _______ _______ _______ _____ _____    ______ ____
ROOT
ATOM      1  S   UNL     1     -35.784  19.897  -0.403  0.00  0.00    -0.054 S 
ATOM      2  S   UNL     1     -36.316  21.788  -1.041  0.00  0.00    -0.054 S 
ATOM      3  O   UNL     1     -33.113  23.304  -0.767  0.00  0.00    -0.272 OA
ATOM      4  O   UNL     1     -35.450  20.641   3.054  0.00  0.00    -0.272 OA
ATOM      5  O   UNL     1     -36.824  26.784   1.224  0.00  0.00    -0.291 OA
ATOM      6  O   UNL     1     -31.238  17.481   1.582  0.00  0.00    -0.291 OA
ATOM      7  N   UNL     1     -33.495  21.237   0.257  0.00  0.00    -0.263 N 
ATOM      8  N   UNL     1     -35.557  22.394   1.514  0.00  0.00    -0.263 N 
ATOM      9  C   UNL     1     -35.313  22.799   0.115  0.00  0.00    +0.178 C 
ATOM     10  C   UNL     1     -34.510  20.339   0.841  0.00  0.00    +0.178 C 
ATOM     11  C   UNL     1     -36.112  23.498   2.291  0.00  0.00    +0.115 C 
ATOM     12  C   UNL     1     -32.173  20.625   0.289  0.00  0.00    +0.115 C 
ATOM     13  C   UNL     1     -32.516  19.134   0.376  0.00  0.00    +0.086 C 
ATOM     14  C   UNL     1     -36.726  24.373   1.192  0.00  0.00    +0.086 C 
ATOM     15  C   UNL     1     -35.687  24.290   0.083  0.00  0.00    +0.048 C 
ATOM     16  C   UNL     1     -33.703  19.123   1.330  0.00  0.00    +0.048 C 
ATOM     17  C   UNL     1     -33.837  22.518  -0.165  0.00  0.00    +0.253 C 
ATOM     18  C   UNL     1     -35.192  21.126   1.958  0.00  0.00    +0.253 C 
ATOM     19  C   UNL     1     -37.167  23.231   3.369  0.00  0.00    +0.151 C 
ATOM     20  C   UNL     1     -31.196  20.845  -0.870  0.00  0.00    +0.151 C 
ATOM     21  C   UNL     1     -31.265  18.381   0.750  0.00  0.00    +0.174 C 
ATOM     22  C   UNL     1     -37.058  25.719   1.782  0.00  0.00    +0.174 C 
ATOM     23  C   UNL     1     -30.065  19.838  -0.808  0.00  0.00    +0.007 C 
ATOM     24  C   UNL     1     -37.874  24.516   3.750  0.00  0.00    +0.007 C 
ATOM     25  C   UNL     1     -30.052  18.737  -0.039  0.00  0.00    +0.035 C 
ATOM     26  C   UNL     1     -37.797  25.675   3.075  0.00  0.00    +0.035 C 
ENDROOT
BRANCH  19  27
ATOM     27  O   UNL     1     -36.535  22.757   4.555  0.00  0.00    -0.378 OA
ATOM     28  H   UNL     1     -36.721  21.811   4.665  0.00  0.00    +0.211 HD
ENDBRANCH  19  27
BRANCH  20  29
ATOM     29  O   UNL     1     -30.587  22.129  -0.750  0.00  0.00    -0.378 OA
ATOM     30  H   UNL     1     -31.018  22.750  -1.357  0.00  0.00    +0.211 HD
ENDBRANCH  20  29
TORSDOF 2
ENDMDL
MODEL 5
REMARK VINA RESULT:      -6.7      5.307      7.501
REMARK  Name = 57383998
REMARK  2 active torsions:
REMARK  status: ('A' for Active; 'I' for Inactive)
REMARK    1  A    between atoms: C_19  and  O_27
REMARK    2  A    between atoms: C_20  and  O_29
REMARK                            x       y       z     vdW  Elec       q    Type
REMARK                         _______ _______ _______ _____ _____    ______ ____
ROOT
ATOM      1  S   UNL     1     -35.978  22.881   0.114  0.00  0.00    -0.054 S 
ATOM      2  S   UNL     1     -37.061  24.404  -0.764  0.00  0.00    -0.054 S 
ATOM      3  O   UNL     1     -38.240  25.935   2.219  0.00  0.00    -0.272 OA
ATOM      4  O   UNL     1     -38.726  20.865   1.116  0.00  0.00    -0.272 OA
ATOM      5  O   UNL     1     -42.379  25.722  -1.341  0.00  0.00    -0.291 OA
ATOM      6  O   UNL     1     -35.137  21.016   5.238  0.00  0.00    -0.291 OA
ATOM      7  N   UNL     1     -37.313  23.790   2.318  0.00  0.00    -0.263 N 
ATOM      8  N   UNL     1     -39.109  23.076   0.465  0.00  0.00    -0.263 N 
ATOM      9  C   UNL     1     -38.523  24.425   0.344  0.00  0.00    +0.178 C 
ATOM     10  C   UNL     1     -37.042  22.548   1.571  0.00  0.00    +0.178 C 
ATOM     11  C   UNL     1     -40.482  23.053  -0.030  0.00  0.00    +0.115 C 
ATOM     12  C   UNL     1     -36.793  23.710   3.678  0.00  0.00    +0.115 C 
ATOM     13  C   UNL     1     -35.714  22.629   3.539  0.00  0.00    +0.086 C 
ATOM     14  C   UNL     1     -40.493  24.263  -0.970  0.00  0.00    +0.086 C 
ATOM     15  C   UNL     1     -39.673  25.289  -0.200  0.00  0.00    +0.048 C 
ATOM     16  C   UNL     1     -36.372  21.624   2.603  0.00  0.00    +0.048 C 
ATOM     17  C   UNL     1     -38.052  24.820   1.743  0.00  0.00    +0.253 C 
ATOM     18  C   UNL     1     -38.393  22.044   1.066  0.00  0.00    +0.253 C 
ATOM     19  C   UNL     1     -41.013  21.829  -0.780  0.00  0.00    +0.151 C 
ATOM     20  C   UNL     1     -36.178  24.945   4.340  0.00  0.00    +0.151 C 
ATOM     21  C   UNL     1     -35.306  22.189   4.922  0.00  0.00    +0.174 C 
ATOM     22  C   UNL     1     -41.922  24.586  -1.319  0.00  0.00    +0.174 C 
ATOM     23  C   UNL     1     -35.381  24.548   5.567  0.00  0.00    +0.007 C 
ATOM     24  C   UNL     1     -42.283  22.175  -1.531  0.00  0.00    +0.007 C 
ATOM     25  C   UNL     1     -35.019  23.294   5.879  0.00  0.00    +0.035 C 
ATOM     26  C   UNL     1     -42.746  23.419  -1.742  0.00  0.00    +0.035 C 
ENDROOT
BRANCH  19  27
ATOM     27  O   UNL     1     -41.367  20.809   0.151  0.00  0.00    -0.378 OA
ATOM     28  H   UNL     1     -41.131  21.093   1.048  0.00  0.00    +0.211 HD
ENDBRANCH  19  27
BRANCH  20  29
ATOM     29  O   UNL     1     -37.214  25.808   4.806  0.00  0.00    -0.378 OA
ATOM     30  H   UNL     1     -38.064  25.343   4.767  0.00  0.00    +0.211 HD
ENDBRANCH  20  29
TORSDOF 2
ENDMDL
MODEL 6
REMARK VINA RESULT:      -6.7      5.275      8.277
REMARK  Name = 57383998
REMARK  2 active torsions:
REMARK  status: ('A' for Active; 'I' for Inactive)
REMARK    1  A    between atoms: C_19  and  O_27
REMARK    2  A    between atoms: C_20  and  O_29
REMARK                            x       y       z     vdW  Elec       q    Type
REMARK                         _______ _______ _______ _____ _____    ______ ____
ROOT
ATOM      1  S   UNL     1     -36.988  24.402  -0.742  0.00  0.00    -0.054 S 
ATOM      2  S   UNL     1     -35.949  22.854   0.145  0.00  0.00    -0.054 S 
ATOM      3  O   UNL     1     -38.749  20.909   1.148  0.00  0.00    -0.272 OA
ATOM      4  O   UNL     1     -38.133  25.969   2.233  0.00  0.00    -0.272 OA
ATOM      5  O   UNL     1     -35.157  20.975   5.264  0.00  0.00    -0.291 OA
ATOM      6  O   UNL     1     -42.282  25.843  -1.326  0.00  0.00    -0.291 OA
ATOM      7  N   UNL     1     -39.071  23.129   0.486  0.00  0.00    -0.263 N 
ATOM      8  N   UNL     1     -37.266  23.803   2.344  0.00  0.00    -0.263 N 
ATOM      9  C   UNL     1     -37.024  22.551   1.600  0.00  0.00    +0.178 C 
ATOM     10  C   UNL     1     -38.452  24.462   0.362  0.00  0.00    +0.178 C 
ATOM     11  C   UNL     1     -36.752  23.710   3.708  0.00  0.00    +0.115 C 
ATOM     12  C   UNL     1     -40.441  23.137  -0.014  0.00  0.00    +0.115 C 
ATOM     13  C   UNL     1     -40.426  24.347  -0.956  0.00  0.00    +0.086 C 
ATOM     14  C   UNL     1     -35.699  22.605   3.568  0.00  0.00    +0.086 C 
ATOM     15  C   UNL     1     -36.380  21.613   2.635  0.00  0.00    +0.048 C 
ATOM     16  C   UNL     1     -39.580  25.354  -0.187  0.00  0.00    +0.048 C 
ATOM     17  C   UNL     1     -38.387  22.079   1.093  0.00  0.00    +0.253 C 
ATOM     18  C   UNL     1     -37.975  24.849   1.761  0.00  0.00    +0.253 C 
ATOM     19  C   UNL     1     -36.114  24.930   4.378  0.00  0.00    +0.151 C 
ATOM     20  C   UNL     1     -40.991  21.924  -0.769  0.00  0.00    +0.151 C 
ATOM     21  C   UNL     1     -41.851  24.695  -1.300  0.00  0.00    +0.174 C 
ATOM     22  C   UNL     1     -35.296  22.150   4.947  0.00  0.00    +0.174 C 
ATOM     23  C   UNL     1     -42.264  22.292  -1.506  0.00  0.00    +0.007 C 
ATOM     24  C   UNL     1     -35.311  24.510   5.593  0.00  0.00    +0.007 C 
ATOM     25  C   UNL     1     -42.702  23.544  -1.713  0.00  0.00    +0.035 C 
ATOM     26  C   UNL     1     -34.974  23.247   5.902  0.00  0.00    +0.035 C 
ENDROOT
BRANCH  19  27
ATOM     27  O   UNL     1     -37.133  25.805   4.856  0.00  0.00    -0.378 OA
ATOM     28  H   UNL     1     -37.462  25.482   5.710  0.00  0.00    +0.211 HD
ENDBRANCH  19  27
BRANCH  20  29
ATOM     29  O   UNL     1     -41.354  20.903   0.158  0.00  0.00    -0.378 OA
ATOM     30  H   UNL     1     -41.076  20.040  -0.187  0.00  0.00    +0.211 HD
ENDBRANCH  20  29
TORSDOF 2
ENDMDL
MODEL 7
REMARK VINA RESULT:      -6.5      8.659     10.616
REMARK  Name = 57383998
REMARK  2 active torsions:
REMARK  status: ('A' for Active; 'I' for Inactive)
REMARK    1  A    between atoms: C_19  and  O_27
REMARK    2  A    between atoms: C_20  and  O_29
REMARK                            x       y       z     vdW  Elec       q    Type
REMARK                         _______ _______ _______ _____ _____    ______ ____
ROOT
ATOM      1  S   UNL     1     -44.587  29.959   3.289  0.00  0.00    -0.054 S 
ATOM      2  S   UNL     1     -45.022  28.497   1.898  0.00  0.00    -0.054 S 
ATOM      3  O   UNL     1     -46.128  25.994   4.165  0.00  0.00    -0.272 OA
ATOM      4  O   UNL     1     -41.593  28.530   4.558  0.00  0.00    -0.272 OA
ATOM      5  O   UNL     1     -42.930  23.616   0.428  0.00  0.00    -0.291 OA
ATOM      6  O   UNL     1     -44.533  30.351   8.792  0.00  0.00    -0.291 OA
ATOM      7  N   UNL     1     -44.963  27.849   4.983  0.00  0.00    -0.263 N 
ATOM      8  N   UNL     1     -43.020  27.220   3.251  0.00  0.00    -0.263 N 
ATOM      9  C   UNL     1     -44.411  27.020   2.798  0.00  0.00    +0.178 C 
ATOM     10  C   UNL     1     -43.985  28.906   4.664  0.00  0.00    +0.178 C 
ATOM     11  C   UNL     1     -42.125  26.236   2.649  0.00  0.00    +0.115 C 
ATOM     12  C   UNL     1     -45.449  27.977   6.351  0.00  0.00    +0.115 C 
ATOM     13  C   UNL     1     -45.176  29.457   6.646  0.00  0.00    +0.086 C 
ATOM     14  C   UNL     1     -42.910  25.826   1.398  0.00  0.00    +0.086 C 
ATOM     15  C   UNL     1     -44.343  25.765   1.911  0.00  0.00    +0.048 C 
ATOM     16  C   UNL     1     -43.822  29.680   5.984  0.00  0.00    +0.048 C 
ATOM     17  C   UNL     1     -45.256  26.849   4.059  0.00  0.00    +0.253 C 
ATOM     18  C   UNL     1     -42.716  28.195   4.197  0.00  0.00    +0.253 C 
ATOM     19  C   UNL     1     -40.703  26.631   2.242  0.00  0.00    +0.151 C 
ATOM     20  C   UNL     1     -46.911  27.666   6.679  0.00  0.00    +0.151 C 
ATOM     21  C   UNL     1     -45.314  29.677   8.130  0.00  0.00    +0.174 C 
ATOM     22  C   UNL     1     -42.287  24.579   0.829  0.00  0.00    +0.174 C 
ATOM     23  C   UNL     1     -47.278  28.219   8.042  0.00  0.00    +0.007 C 
ATOM     24  C   UNL     1     -40.114  25.601   1.299  0.00  0.00    +0.007 C 
ATOM     25  C   UNL     1     -46.541  29.095   8.744  0.00  0.00    +0.035 C 
ATOM     26  C   UNL     1     -40.805  24.625   0.686  0.00  0.00    +0.035 C 
ENDROOT
BRANCH  19  27
ATOM     27  O   UNL     1     -39.859  26.647   3.391  0.00  0.00    -0.378 OA
ATOM     28  H   UNL     1     -38.931  26.694   3.111  0.00  0.00    +0.211 HD
ENDBRANCH  19  27
BRANCH  20  29
ATOM     29  O   UNL     1     -47.096  26.254   6.765  0.00  0.00    -0.378 OA
ATOM     30  H   UNL     1     -47.702  25.964   6.064  0.00  0.00    +0.211 HD
ENDBRANCH  20  29
TORSDOF 2
ENDMDL
MODEL 8
REMARK VINA RESULT:      -6.5      8.729     10.068
REMARK  Name = 57383998
REMARK  2 active torsions:
REMARK  status: ('A' for Active; 'I' for Inactive)
REMARK    1  A    between atoms: C_19  and  O_27
REMARK    2  A    between atoms: C_20  and  O_29
REMARK                            x       y       z     vdW  Elec       q    Type
REMARK                         _______ _______ _______ _____ _____    ______ ____
ROOT
ATOM      1  S   UNL     1     -45.109  28.612   1.927  0.00  0.00    -0.054 S 
ATOM      2  S   UNL     1     -44.568  30.064   3.292  0.00  0.00    -0.054 S 
ATOM      3  O   UNL     1     -41.603  28.514   4.491  0.00  0.00    -0.272 OA
ATOM      4  O   UNL     1     -46.258  26.183   4.250  0.00  0.00    -0.272 OA
ATOM      5  O   UNL     1     -44.334  30.517   8.778  0.00  0.00    -0.291 OA
ATOM      6  O   UNL     1     -43.264  23.624   0.458  0.00  0.00    -0.291 OA
ATOM      7  N   UNL     1     -43.126  27.261   3.234  0.00  0.00    -0.263 N 
ATOM      8  N   UNL     1     -44.986  27.986   5.018  0.00  0.00    -0.263 N 
ATOM      9  C   UNL     1     -43.972  28.998   4.660  0.00  0.00    +0.178 C 
ATOM     10  C   UNL     1     -44.536  27.118   2.824  0.00  0.00    +0.178 C 
ATOM     11  C   UNL     1     -45.424  28.149   6.401  0.00  0.00    +0.115 C 
ATOM     12  C   UNL     1     -42.293  26.236   2.617  0.00  0.00    +0.115 C 
ATOM     13  C   UNL     1     -43.130  25.843   1.394  0.00  0.00    +0.086 C 
ATOM     14  C   UNL     1     -45.080  29.619   6.666  0.00  0.00    +0.086 C 
ATOM     15  C   UNL     1     -43.737  29.776   5.965  0.00  0.00    +0.048 C 
ATOM     16  C   UNL     1     -44.548  25.852   1.949  0.00  0.00    +0.048 C 
ATOM     17  C   UNL     1     -42.749  28.227   4.163  0.00  0.00    +0.253 C 
ATOM     18  C   UNL     1     -45.350  26.995   4.110  0.00  0.00    +0.253 C 
ATOM     19  C   UNL     1     -46.886  27.899   6.784  0.00  0.00    +0.151 C 
ATOM     20  C   UNL     1     -40.871  26.575   2.160  0.00  0.00    +0.151 C 
ATOM     21  C   UNL     1     -42.569  24.563   0.830  0.00  0.00    +0.174 C 
ATOM     22  C   UNL     1     -45.163  29.871   8.148  0.00  0.00    +0.174 C 
ATOM     23  C   UNL     1     -40.344  25.500   1.229  0.00  0.00    +0.007 C 
ATOM     24  C   UNL     1     -47.191  28.502   8.141  0.00  0.00    +0.007 C 
ATOM     25  C   UNL     1     -41.090  24.543   0.654  0.00  0.00    +0.035 C 
ATOM     26  C   UNL     1     -46.398  29.358   8.806  0.00  0.00    +0.035 C 
ENDROOT
BRANCH  19  27
ATOM     27  O   UNL     1     -47.118  26.498   6.909  0.00  0.00    -0.378 OA
ATOM     28  H   UNL     1     -48.073  26.330   6.949  0.00  0.00    +0.211 HD
ENDBRANCH  19  27
BRANCH  20  29
ATOM     29  O   UNL     1     -39.993  26.587   3.284  0.00  0.00    -0.378 OA
ATOM     30  H   UNL     1     -39.354  27.310   3.187  0.00  0.00    +0.211 HD
ENDBRANCH  20  29
TORSDOF 2
ENDMDL
MODEL 9
REMARK VINA RESULT:      -6.5      5.697      8.564
REMARK  Name = 57383998
REMARK  2 active torsions:
REMARK  status: ('A' for Active; 'I' for Inactive)
REMARK    1  A    between atoms: C_19  and  O_27
REMARK    2  A    between atoms: C_20  and  O_29
REMARK                            x       y       z     vdW  Elec       q    Type
REMARK                         _______ _______ _______ _____ _____    ______ ____
ROOT
ATOM      1  S   UNL     1     -36.340  23.911  -0.920  0.00  0.00    -0.054 S 
ATOM      2  S   UNL     1     -35.231  22.523   0.133  0.00  0.00    -0.054 S 
ATOM      3  O   UNL     1     -37.824  20.155   0.680  0.00  0.00    -0.272 OA
ATOM      4  O   UNL     1     -38.177  25.227   1.821  0.00  0.00    -0.272 OA
ATOM      5  O   UNL     1     -34.996  20.690   5.324  0.00  0.00    -0.291 OA
ATOM      6  O   UNL     1     -41.628  24.537  -2.364  0.00  0.00    -0.291 OA
ATOM      7  N   UNL     1     -38.372  22.311  -0.039  0.00  0.00    -0.263 N 
ATOM      8  N   UNL     1     -37.016  23.217   2.084  0.00  0.00    -0.263 N 
ATOM      9  C   UNL     1     -36.468  22.031   1.396  0.00  0.00    +0.178 C 
ATOM     10  C   UNL     1     -37.954  23.725  -0.068  0.00  0.00    +0.178 C 
ATOM     11  C   UNL     1     -36.720  23.178   3.513  0.00  0.00    +0.115 C 
ATOM     12  C   UNL     1     -39.628  22.120  -0.754  0.00  0.00    +0.115 C 
ATOM     13  C   UNL     1     -39.648  23.335  -1.688  0.00  0.00    +0.086 C 
ATOM     14  C   UNL     1     -35.501  22.250   3.553  0.00  0.00    +0.086 C 
ATOM     15  C   UNL     1     -35.862  21.184   2.527  0.00  0.00    +0.048 C 
ATOM     16  C   UNL     1     -39.102  24.444  -0.798  0.00  0.00    +0.048 C 
ATOM     17  C   UNL     1     -37.642  21.367   0.677  0.00  0.00    +0.253 C 
ATOM     18  C   UNL     1     -37.775  24.153   1.387  0.00  0.00    +0.253 C 
ATOM     19  C   UNL     1     -36.394  24.468   4.271  0.00  0.00    +0.151 C 
ATOM     20  C   UNL     1     -39.856  20.852  -1.581  0.00  0.00    +0.151 C 
ATOM     21  C   UNL     1     -41.035  23.468  -2.261  0.00  0.00    +0.174 C 
ATOM     22  C   UNL     1     -35.261  21.836   4.981  0.00  0.00    +0.174 C 
ATOM     23  C   UNL     1     -41.035  21.034  -2.517  0.00  0.00    +0.007 C 
ATOM     24  C   UNL     1     -35.744  24.152   5.603  0.00  0.00    +0.007 C 
ATOM     25  C   UNL     1     -41.621  22.208  -2.801  0.00  0.00    +0.035 C 
ATOM     26  C   UNL     1     -35.270  22.950   5.970  0.00  0.00    +0.035 C 
ENDROOT
BRANCH  19  27
ATOM     27  O   UNL     1     -37.600  25.167   4.572  0.00  0.00    -0.378 OA
ATOM     28  H   UNL     1     -37.945  24.864   5.427  0.00  0.00    +0.211 HD
ENDBRANCH  19  27
BRANCH  20  29
ATOM     29  O   UNL     1     -40.202  19.769  -0.720  0.00  0.00    -0.378 OA
ATOM     30  H   UNL     1     -40.664  20.112   0.062  0.00  0.00    +0.211 HD
ENDBRANCH  20  29
TORSDOF 2
ENDMDL
