MODEL 1
REMARK VINA RESULT:      -7.5      0.000      0.000
REMARK  Name = 57404276
REMARK  7 active torsions:
REMARK  status: ('A' for Active; 'I' for Inactive)
REMARK    1  A    between atoms: N_2  and  C_28
REMARK    2  A    between atoms: C_4  and  C_24
REMARK    3  A    between atoms: C_5  and  C_12
REMARK    4  A    between atoms: N_11  and  C_19
REMARK    5  A    between atoms: C_24  and  C_25
REMARK    6  A    between atoms: C_28  and  C_29
REMARK    7  A    between atoms: C_29  and  O_32
REMARK                            x       y       z     vdW  Elec       q    Type
REMARK                         _______ _______ _______ _____ _____    ______ ____
ROOT
ATOM      1  N   UNL     1     -34.137  26.452   5.197  0.00  0.00    -0.342 NA
ATOM      2  N   UNL     1     -32.592  28.171   4.964  0.00  0.00    -0.266 N 
ATOM      3  N   UNL     1     -33.886  27.632   3.111  0.00  0.00    -0.170 NA
ATOM      4  C   UNL     1     -35.097  25.703   4.615  0.00  0.00    +0.126 C 
ATOM      5  C   UNL     1     -35.500  25.857   3.305  0.00  0.00    +0.077 C 
ATOM      6  C   UNL     1     -33.582  27.384   4.399  0.00  0.00    +0.144 C 
ATOM      7  C   UNL     1     -34.853  26.846   2.593  0.00  0.00    +0.116 C 
ATOM      8  H   UNL     1     -32.170  28.860   4.402  0.00  0.00    +0.159 HD
ENDROOT
BRANCH   5  12
ATOM      9  N   UNL     1     -36.107  23.875   2.181  0.00  0.00    -0.337 NA
ATOM     10  N   UNL     1     -38.376  23.430   1.504  0.00  0.00    -0.170 NA
ATOM     11  N   UNL     1     -36.663  21.887   1.065  0.00  0.00    -0.247 N 
ATOM     12  C   UNL     1     -36.529  25.050   2.691  0.00  0.00    +0.149 C 
ATOM     13  C   UNL     1     -37.840  25.480   2.646  0.00  0.00    +0.055 C 
ATOM     14  C   UNL     1     -37.069  23.125   1.610  0.00  0.00    +0.149 C 
ATOM     15  C   UNL     1     -38.729  24.620   2.034  0.00  0.00    +0.114 C 
ATOM     16  H   UNL     1     -37.398  21.374   0.659  0.00  0.00    +0.165 HD
BRANCH  11  19
ATOM     17 CL   UNL     1     -31.858  21.732  -0.726  0.00  0.00    -0.061 Cl
ATOM     18  N   UNL     1     -32.932  19.966   0.839  0.00  0.00    -0.232 NA
ATOM     19  C   UNL     1     -35.414  21.244   0.989  0.00  0.00    +0.061 C 
ATOM     20  C   UNL     1     -34.389  21.796   0.229  0.00  0.00    +0.046 C 
ATOM     21  C   UNL     1     -35.199  20.054   1.675  0.00  0.00    +0.036 C 
ATOM     22  C   UNL     1     -33.178  21.125   0.186  0.00  0.00    +0.140 C 
ATOM     23  C   UNL     1     -33.952  19.459   1.568  0.00  0.00    +0.101 C 
ENDBRANCH  11  19
ENDBRANCH   5  12
BRANCH   4  24
ATOM     24  C   UNL     1     -35.722  24.666   5.491  0.00  0.00    +0.060 C 
BRANCH  24  25
ATOM     25  C   UNL     1     -34.888  23.418   5.556  0.00  0.00    +0.007 C 
ATOM     26  C   UNL     1     -35.308  22.302   6.468  0.00  0.00    +0.000 C 
ATOM     27  C   UNL     1     -35.433  22.143   4.981  0.00  0.00    +0.000 C 
ENDBRANCH  24  25
ENDBRANCH   4  24
BRANCH   2  28
ATOM     28  C   UNL     1     -32.146  28.037   6.333  0.00  0.00    +0.125 C 
BRANCH  28  29
ATOM     29  C   UNL     1     -31.442  29.312   6.821  0.00  0.00    +0.107 C 
ATOM     30  C   UNL     1     -29.930  29.171   6.624  0.00  0.00    +0.031 C 
ATOM     31  C   UNL     1     -31.949  30.569   6.108  0.00  0.00    +0.031 C 
BRANCH  29  32
ATOM     32  O   UNL     1     -31.687  29.448   8.223  0.00  0.00    -0.385 OA
ATOM     33  H   UNL     1     -30.842  29.492   8.697  0.00  0.00    +0.210 HD
ENDBRANCH  29  32
ENDBRANCH  28  29
ENDBRANCH   2  28
TORSDOF 7
ENDMDL
MODEL 2
REMARK VINA RESULT:      -7.5      0.874      1.223
REMARK  Name = 57404276
REMARK  7 active torsions:
REMARK  status: ('A' for Active; 'I' for Inactive)
REMARK    1  A    between atoms: N_2  and  C_28
REMARK    2  A    between atoms: C_4  and  C_24
REMARK    3  A    between atoms: C_5  and  C_12
REMARK    4  A    between atoms: N_11  and  C_19
REMARK    5  A    between atoms: C_24  and  C_25
REMARK    6  A    between atoms: C_28  and  C_29
REMARK    7  A    between atoms: C_29  and  O_32
REMARK                            x       y       z     vdW  Elec       q    Type
REMARK                         _______ _______ _______ _____ _____    ______ ____
ROOT
ATOM      1  N   UNL     1     -34.086  26.382   5.239  0.00  0.00    -0.342 NA
ATOM      2  N   UNL     1     -32.581  28.136   5.019  0.00  0.00    -0.266 N 
ATOM      3  N   UNL     1     -33.817  27.541   3.145  0.00  0.00    -0.170 NA
ATOM      4  C   UNL     1     -35.013  25.601   4.646  0.00  0.00    +0.126 C 
ATOM      5  C   UNL     1     -35.390  25.728   3.325  0.00  0.00    +0.077 C 
ATOM      6  C   UNL     1     -33.536  27.318   4.443  0.00  0.00    +0.144 C 
ATOM      7  C   UNL     1     -34.752  26.725   2.615  0.00  0.00    +0.116 C 
ATOM      8  H   UNL     1     -32.163  28.830   4.458  0.00  0.00    +0.159 HD
ENDROOT
BRANCH   5  12
ATOM      9  N   UNL     1     -35.895  23.807   2.056  0.00  0.00    -0.337 NA
ATOM     10  N   UNL     1     -38.158  23.216   1.473  0.00  0.00    -0.170 NA
ATOM     11  N   UNL     1     -36.351  21.884   0.791  0.00  0.00    -0.247 N 
ATOM     12  C   UNL     1     -36.383  24.888   2.699  0.00  0.00    +0.149 C 
ATOM     13  C   UNL     1     -37.727  25.196   2.771  0.00  0.00    +0.055 C 
ATOM     14  C   UNL     1     -36.825  23.025   1.473  0.00  0.00    +0.149 C 
ATOM     15  C   UNL     1     -38.576  24.316   2.134  0.00  0.00    +0.114 C 
ATOM     16  H   UNL     1     -37.064  21.343   0.381  0.00  0.00    +0.165 HD
BRANCH  11  19
ATOM     17 CL   UNL     1     -32.828  18.253   1.654  0.00  0.00    -0.061 Cl
ATOM     18  N   UNL     1     -32.490  20.346   0.162  0.00  0.00    -0.232 NA
ATOM     19  C   UNL     1     -35.058  21.369   0.581  0.00  0.00    +0.061 C 
ATOM     20  C   UNL     1     -34.673  20.178   1.187  0.00  0.00    +0.046 C 
ATOM     21  C   UNL     1     -34.160  22.049  -0.235  0.00  0.00    +0.036 C 
ATOM     22  C   UNL     1     -33.390  19.713   0.948  0.00  0.00    +0.140 C 
ATOM     23  C   UNL     1     -32.900  21.501  -0.410  0.00  0.00    +0.101 C 
ENDBRANCH  11  19
ENDBRANCH   5  12
BRANCH   4  24
ATOM     24  C   UNL     1     -35.631  24.559   5.521  0.00  0.00    +0.060 C 
BRANCH  24  25
ATOM     25  C   UNL     1     -34.832  23.287   5.520  0.00  0.00    +0.007 C 
ATOM     26  C   UNL     1     -35.238  22.165   6.430  0.00  0.00    +0.000 C 
ATOM     27  C   UNL     1     -35.441  22.040   4.949  0.00  0.00    +0.000 C 
ENDBRANCH  24  25
ENDBRANCH   4  24
BRANCH   2  28
ATOM     28  C   UNL     1     -32.163  28.031   6.399  0.00  0.00    +0.125 C 
BRANCH  28  29
ATOM     29  C   UNL     1     -31.479  29.320   6.879  0.00  0.00    +0.107 C 
ATOM     30  C   UNL     1     -29.961  29.187   6.717  0.00  0.00    +0.031 C 
ATOM     31  C   UNL     1     -31.978  30.560   6.131  0.00  0.00    +0.031 C 
BRANCH  29  32
ATOM     32  O   UNL     1     -31.754  29.481   8.272  0.00  0.00    -0.385 OA
ATOM     33  H   UNL     1     -32.709  29.590   8.403  0.00  0.00    +0.210 HD
ENDBRANCH  29  32
ENDBRANCH  28  29
ENDBRANCH   2  28
TORSDOF 7
ENDMDL
MODEL 3
REMARK VINA RESULT:      -7.3      3.525      7.382
REMARK  Name = 57404276
REMARK  7 active torsions:
REMARK  status: ('A' for Active; 'I' for Inactive)
REMARK    1  A    between atoms: N_2  and  C_28
REMARK    2  A    between atoms: C_4  and  C_24
REMARK    3  A    between atoms: C_5  and  C_12
REMARK    4  A    between atoms: N_11  and  C_19
REMARK    5  A    between atoms: C_24  and  C_25
REMARK    6  A    between atoms: C_28  and  C_29
REMARK    7  A    between atoms: C_29  and  O_32
REMARK                            x       y       z     vdW  Elec       q    Type
REMARK                         _______ _______ _______ _____ _____    ______ ____
ROOT
ATOM      1  N   UNL     1     -34.832  20.428   2.319  0.00  0.00    -0.342 NA
ATOM      2  N   UNL     1     -34.406  18.668   0.864  0.00  0.00    -0.266 N 
ATOM      3  N   UNL     1     -36.358  19.885   0.535  0.00  0.00    -0.170 NA
ATOM      4  C   UNL     1     -35.663  21.430   2.675  0.00  0.00    +0.126 C 
ATOM      5  C   UNL     1     -36.842  21.718   2.018  0.00  0.00    +0.077 C 
ATOM      6  C   UNL     1     -35.235  19.706   1.256  0.00  0.00    +0.144 C 
ATOM      7  C   UNL     1     -37.142  20.904   0.945  0.00  0.00    +0.116 C 
ATOM      8  H   UNL     1     -34.678  18.124   0.090  0.00  0.00    +0.159 HD
ENDROOT
BRANCH   5  12
ATOM      9  N   UNL     1     -37.124  23.830   3.027  0.00  0.00    -0.337 NA
ATOM     10  N   UNL     1     -39.281  24.892   3.192  0.00  0.00    -0.170 NA
ATOM     11  N   UNL     1     -37.356  25.934   4.040  0.00  0.00    -0.247 N 
ATOM     12  C   UNL     1     -37.724  22.793   2.407  0.00  0.00    +0.149 C 
ATOM     13  C   UNL     1     -39.078  22.734   2.148  0.00  0.00    +0.055 C 
ATOM     14  C   UNL     1     -37.950  24.831   3.388  0.00  0.00    +0.149 C 
ATOM     15  C   UNL     1     -39.814  23.822   2.567  0.00  0.00    +0.114 C 
ATOM     16  H   UNL     1     -37.997  26.640   4.285  0.00  0.00    +0.165 HD
BRANCH  11  19
ATOM     17 CL   UNL     1     -32.823  28.088   2.974  0.00  0.00    -0.061 Cl
ATOM     18  N   UNL     1     -33.392  26.788   5.144  0.00  0.00    -0.232 NA
ATOM     19  C   UNL     1     -36.029  26.220   4.409  0.00  0.00    +0.061 C 
ATOM     20  C   UNL     1     -35.206  26.945   3.554  0.00  0.00    +0.046 C 
ATOM     21  C   UNL     1     -35.535  25.779   5.632  0.00  0.00    +0.036 C 
ATOM     22  C   UNL     1     -33.908  27.201   3.964  0.00  0.00    +0.140 C 
ATOM     23  C   UNL     1     -34.222  26.086   5.949  0.00  0.00    +0.101 C 
ENDBRANCH  11  19
ENDBRANCH   5  12
BRANCH   4  24
ATOM     24  C   UNL     1     -35.226  22.239   3.852  0.00  0.00    +0.060 C 
BRANCH  24  25
ATOM     25  C   UNL     1     -35.341  21.463   5.133  0.00  0.00    +0.007 C 
ATOM     26  C   UNL     1     -34.399  21.766   6.262  0.00  0.00    +0.000 C 
ATOM     27  C   UNL     1     -35.845  22.154   6.367  0.00  0.00    +0.000 C 
ENDBRANCH  24  25
ENDBRANCH   4  24
BRANCH   2  28
ATOM     28  C   UNL     1     -33.165  18.339   1.529  0.00  0.00    +0.125 C 
BRANCH  28  29
ATOM     29  C   UNL     1     -31.986  18.334   0.544  0.00  0.00    +0.107 C 
ATOM     30  C   UNL     1     -32.384  17.582  -0.730  0.00  0.00    +0.031 C 
ATOM     31  C   UNL     1     -31.512  19.747   0.192  0.00  0.00    +0.031 C 
BRANCH  29  32
ATOM     32  O   UNL     1     -30.902  17.623   1.148  0.00  0.00    -0.385 OA
ATOM     33  H   UNL     1     -30.130  18.205   1.215  0.00  0.00    +0.210 HD
ENDBRANCH  29  32
ENDBRANCH  28  29
ENDBRANCH   2  28
TORSDOF 7
ENDMDL
MODEL 4
REMARK VINA RESULT:      -7.1      3.483      5.647
REMARK  Name = 57404276
REMARK  7 active torsions:
REMARK  status: ('A' for Active; 'I' for Inactive)
REMARK    1  A    between atoms: N_2  and  C_28
REMARK    2  A    between atoms: C_4  and  C_24
REMARK    3  A    between atoms: C_5  and  C_12
REMARK    4  A    between atoms: N_11  and  C_19
REMARK    5  A    between atoms: C_24  and  C_25
REMARK    6  A    between atoms: C_28  and  C_29
REMARK    7  A    between atoms: C_29  and  O_32
REMARK                            x       y       z     vdW  Elec       q    Type
REMARK                         _______ _______ _______ _____ _____    ______ ____
ROOT
ATOM      1  N   UNL     1     -34.801  25.973   4.915  0.00  0.00    -0.342 NA
ATOM      2  N   UNL     1     -33.421  27.803   4.539  0.00  0.00    -0.266 N 
ATOM      3  N   UNL     1     -34.994  27.293   2.908  0.00  0.00    -0.170 NA
ATOM      4  C   UNL     1     -35.807  25.198   4.458  0.00  0.00    +0.126 C 
ATOM      5  C   UNL     1     -36.447  25.405   3.253  0.00  0.00    +0.077 C 
ATOM      6  C   UNL     1     -34.450  26.988   4.101  0.00  0.00    +0.144 C 
ATOM      7  C   UNL     1     -35.994  26.477   2.513  0.00  0.00    +0.116 C 
ATOM      8  H   UNL     1     -33.145  28.553   3.963  0.00  0.00    +0.159 HD
ENDROOT
BRANCH   5  12
ATOM      9  N   UNL     1     -38.728  25.170   2.706  0.00  0.00    -0.337 NA
ATOM     10  N   UNL     1     -39.641  23.098   1.881  0.00  0.00    -0.170 NA
ATOM     11  N   UNL     1     -41.006  24.984   2.174  0.00  0.00    -0.247 N 
ATOM     12  C   UNL     1     -37.522  24.569   2.773  0.00  0.00    +0.149 C 
ATOM     13  C   UNL     1     -37.300  23.254   2.418  0.00  0.00    +0.055 C 
ATOM     14  C   UNL     1     -39.729  24.388   2.258  0.00  0.00    +0.149 C 
ATOM     15  C   UNL     1     -38.406  22.560   1.975  0.00  0.00    +0.114 C 
ATOM     16  H   UNL     1     -41.705  24.376   1.843  0.00  0.00    +0.165 HD
BRANCH  11  19
ATOM     17 CL   UNL     1     -42.437  29.655   0.605  0.00  0.00    -0.061 Cl
ATOM     18  N   UNL     1     -42.406  28.845   3.068  0.00  0.00    -0.232 NA
ATOM     19  C   UNL     1     -41.474  26.276   2.473  0.00  0.00    +0.061 C 
ATOM     20  C   UNL     1     -41.685  27.197   1.452  0.00  0.00    +0.046 C 
ATOM     21  C   UNL     1     -41.729  26.639   3.791  0.00  0.00    +0.036 C 
ATOM     22  C   UNL     1     -42.148  28.456   1.798  0.00  0.00    +0.140 C 
ATOM     23  C   UNL     1     -42.189  27.923   4.033  0.00  0.00    +0.101 C 
ENDBRANCH  11  19
ENDBRANCH   5  12
BRANCH   4  24
ATOM     24  C   UNL     1     -36.205  24.070   5.353  0.00  0.00    +0.060 C 
BRANCH  24  25
ATOM     25  C   UNL     1     -35.077  23.101   5.561  0.00  0.00    +0.007 C 
ATOM     26  C   UNL     1     -35.253  21.966   6.528  0.00  0.00    +0.000 C 
ATOM     27  C   UNL     1     -35.214  21.695   5.052  0.00  0.00    +0.000 C 
ENDBRANCH  24  25
ENDBRANCH   4  24
BRANCH   2  28
ATOM     28  C   UNL     1     -32.729  27.617   5.795  0.00  0.00    +0.125 C 
BRANCH  28  29
ATOM     29  C   UNL     1     -31.437  28.444   5.853  0.00  0.00    +0.107 C 
ATOM     30  C   UNL     1     -30.897  28.652   4.434  0.00  0.00    +0.031 C 
ATOM     31  C   UNL     1     -31.639  29.798   6.540  0.00  0.00    +0.031 C 
BRANCH  29  32
ATOM     32  O   UNL     1     -30.460  27.698   6.584  0.00  0.00    -0.385 OA
ATOM     33  H   UNL     1     -30.420  28.024   7.496  0.00  0.00    +0.210 HD
ENDBRANCH  29  32
ENDBRANCH  28  29
ENDBRANCH   2  28
TORSDOF 7
ENDMDL
MODEL 5
REMARK VINA RESULT:      -7.0      2.707      4.709
REMARK  Name = 57404276
REMARK  7 active torsions:
REMARK  status: ('A' for Active; 'I' for Inactive)
REMARK    1  A    between atoms: N_2  and  C_28
REMARK    2  A    between atoms: C_4  and  C_24
REMARK    3  A    between atoms: C_5  and  C_12
REMARK    4  A    between atoms: N_11  and  C_19
REMARK    5  A    between atoms: C_24  and  C_25
REMARK    6  A    between atoms: C_28  and  C_29
REMARK    7  A    between atoms: C_29  and  O_32
REMARK                            x       y       z     vdW  Elec       q    Type
REMARK                         _______ _______ _______ _____ _____    ______ ____
ROOT
ATOM      1  N   UNL     1     -33.985  25.998   4.925  0.00  0.00    -0.342 NA
ATOM      2  N   UNL     1     -32.456  27.739   4.773  0.00  0.00    -0.266 N 
ATOM      3  N   UNL     1     -33.180  26.772   2.790  0.00  0.00    -0.170 NA
ATOM      4  C   UNL     1     -34.738  25.089   4.271  0.00  0.00    +0.126 C 
ATOM      5  C   UNL     1     -34.765  24.963   2.897  0.00  0.00    +0.077 C 
ATOM      6  C   UNL     1     -33.241  26.795   4.135  0.00  0.00    +0.144 C 
ATOM      7  C   UNL     1     -33.958  25.839   2.201  0.00  0.00    +0.116 C 
ATOM      8  H   UNL     1     -31.902  28.335   4.218  0.00  0.00    +0.159 HD
ENDROOT
BRANCH   5  12
ATOM      9  N   UNL     1     -36.832  24.385   1.922  0.00  0.00    -0.337 NA
ATOM     10  N   UNL     1     -37.209  22.234   0.901  0.00  0.00    -0.170 NA
ATOM     11  N   UNL     1     -38.907  23.853   0.962  0.00  0.00    -0.247 N 
ATOM     12  C   UNL     1     -35.575  23.987   2.206  0.00  0.00    +0.149 C 
ATOM     13  C   UNL     1     -35.069  22.746   1.877  0.00  0.00    +0.055 C 
ATOM     14  C   UNL     1     -37.584  23.472   1.277  0.00  0.00    +0.149 C 
ATOM     15  C   UNL     1     -35.940  21.902   1.218  0.00  0.00    +0.114 C 
ATOM     16  H   UNL     1     -39.418  23.156   0.493  0.00  0.00    +0.165 HD
BRANCH  11  19
ATOM     17 CL   UNL     1     -41.970  26.667   3.966  0.00  0.00    -0.061 Cl
ATOM     18  N   UNL     1     -41.084  27.384   1.638  0.00  0.00    -0.232 NA
ATOM     19  C   UNL     1     -39.636  25.035   1.189  0.00  0.00    +0.061 C 
ATOM     20  C   UNL     1     -40.355  25.198   2.368  0.00  0.00    +0.046 C 
ATOM     21  C   UNL     1     -39.640  26.047   0.234  0.00  0.00    +0.036 C 
ATOM     22  C   UNL     1     -41.056  26.380   2.543  0.00  0.00    +0.140 C 
ATOM     23  C   UNL     1     -40.373  27.191   0.504  0.00  0.00    +0.101 C 
ENDBRANCH  11  19
ENDBRANCH   5  12
BRANCH   4  24
ATOM     24  C   UNL     1     -35.568  24.199   5.138  0.00  0.00    +0.060 C 
BRANCH  24  25
ATOM     25  C   UNL     1     -34.780  23.024   5.644  0.00  0.00    +0.007 C 
ATOM     26  C   UNL     1     -35.421  22.074   6.612  0.00  0.00    +0.000 C 
ATOM     27  C   UNL     1     -35.158  21.642   5.199  0.00  0.00    +0.000 C 
ENDBRANCH  24  25
ENDBRANCH   4  24
BRANCH   2  28
ATOM     28  C   UNL     1     -32.403  27.899   6.209  0.00  0.00    +0.125 C 
BRANCH  28  29
ATOM     29  C   UNL     1     -31.551  29.113   6.608  0.00  0.00    +0.107 C 
ATOM     30  C   UNL     1     -30.071  28.806   6.356  0.00  0.00    +0.031 C 
ATOM     31  C   UNL     1     -31.957  30.385   5.858  0.00  0.00    +0.031 C 
BRANCH  29  32
ATOM     32  O   UNL     1     -31.716  29.334   8.011  0.00  0.00    -0.385 OA
ATOM     33  H   UNL     1     -30.886  29.667   8.386  0.00  0.00    +0.210 HD
ENDBRANCH  29  32
ENDBRANCH  28  29
ENDBRANCH   2  28
TORSDOF 7
ENDMDL
MODEL 6
REMARK VINA RESULT:      -6.9      1.500      1.840
REMARK  Name = 57404276
REMARK  7 active torsions:
REMARK  status: ('A' for Active; 'I' for Inactive)
REMARK    1  A    between atoms: N_2  and  C_28
REMARK    2  A    between atoms: C_4  and  C_24
REMARK    3  A    between atoms: C_5  and  C_12
REMARK    4  A    between atoms: N_11  and  C_19
REMARK    5  A    between atoms: C_24  and  C_25
REMARK    6  A    between atoms: C_28  and  C_29
REMARK    7  A    between atoms: C_29  and  O_32
REMARK                            x       y       z     vdW  Elec       q    Type
REMARK                         _______ _______ _______ _____ _____    ______ ____
ROOT
ATOM      1  N   UNL     1     -34.084  25.788   4.628  0.00  0.00    -0.342 NA
ATOM      2  N   UNL     1     -32.592  27.481   4.076  0.00  0.00    -0.266 N 
ATOM      3  N   UNL     1     -33.432  26.183   2.342  0.00  0.00    -0.170 NA
ATOM      4  C   UNL     1     -34.865  24.779   4.192  0.00  0.00    +0.126 C 
ATOM      5  C   UNL     1     -34.981  24.417   2.866  0.00  0.00    +0.077 C 
ATOM      6  C   UNL     1     -33.405  26.439   3.664  0.00  0.00    +0.144 C 
ATOM      7  C   UNL     1     -34.234  25.161   1.976  0.00  0.00    +0.116 C 
ATOM      8  H   UNL     1     -32.085  27.973   3.391  0.00  0.00    +0.159 HD
ENDROOT
BRANCH   5  12
ATOM      9  N   UNL     1     -35.161  22.260   1.929  0.00  0.00    -0.337 NA
ATOM     10  N   UNL     1     -37.294  21.218   1.514  0.00  0.00    -0.170 NA
ATOM     11  N   UNL     1     -35.290  20.111   0.996  0.00  0.00    -0.247 N 
ATOM     12  C   UNL     1     -35.821  23.334   2.409  0.00  0.00    +0.149 C 
ATOM     13  C   UNL     1     -37.197  23.424   2.472  0.00  0.00    +0.055 C 
ATOM     14  C   UNL     1     -35.948  21.253   1.505  0.00  0.00    +0.149 C 
ATOM     15  C   UNL     1     -37.889  22.325   2.006  0.00  0.00    +0.114 C 
ATOM     16  H   UNL     1     -35.904  19.402   0.698  0.00  0.00    +0.165 HD
BRANCH  11  19
ATOM     17 CL   UNL     1     -30.654  21.272  -0.871  0.00  0.00    -0.061 Cl
ATOM     18  N   UNL     1     -31.228  19.151   0.505  0.00  0.00    -0.232 NA
ATOM     19  C   UNL     1     -33.930  19.790   0.831  0.00  0.00    +0.061 C 
ATOM     20  C   UNL     1     -33.092  20.642   0.121  0.00  0.00    +0.046 C 
ATOM     21  C   UNL     1     -33.419  18.619   1.379  0.00  0.00    +0.036 C 
ATOM     22  C   UNL     1     -31.761  20.281  -0.013  0.00  0.00    +0.140 C 
ATOM     23  C   UNL     1     -32.074  18.347   1.189  0.00  0.00    +0.101 C 
ENDBRANCH  11  19
ENDBRANCH   5  12
BRANCH   4  24
ATOM     24  C   UNL     1     -35.624  24.050   5.253  0.00  0.00    +0.060 C 
BRANCH  24  25
ATOM     25  C   UNL     1     -34.826  22.914   5.826  0.00  0.00    +0.007 C 
ATOM     26  C   UNL     1     -35.489  21.954   6.770  0.00  0.00    +0.000 C 
ATOM     27  C   UNL     1     -35.125  21.511   5.384  0.00  0.00    +0.000 C 
ENDBRANCH  24  25
ENDBRANCH   4  24
BRANCH   2  28
ATOM     28  C   UNL     1     -32.447  27.886   5.456  0.00  0.00    +0.125 C 
BRANCH  28  29
ATOM     29  C   UNL     1     -31.628  29.180   5.578  0.00  0.00    +0.107 C 
ATOM     30  C   UNL     1     -32.279  30.282   4.736  0.00  0.00    +0.031 C 
ATOM     31  C   UNL     1     -31.485  29.646   7.030  0.00  0.00    +0.031 C 
BRANCH  29  32
ATOM     32  O   UNL     1     -30.325  28.936   5.043  0.00  0.00    -0.385 OA
ATOM     33  H   UNL     1     -29.726  29.650   5.312  0.00  0.00    +0.210 HD
ENDBRANCH  29  32
ENDBRANCH  28  29
ENDBRANCH   2  28
TORSDOF 7
ENDMDL
MODEL 7
REMARK VINA RESULT:      -6.8      1.279      1.402
REMARK  Name = 57404276
REMARK  7 active torsions:
REMARK  status: ('A' for Active; 'I' for Inactive)
REMARK    1  A    between atoms: N_2  and  C_28
REMARK    2  A    between atoms: C_4  and  C_24
REMARK    3  A    between atoms: C_5  and  C_12
REMARK    4  A    between atoms: N_11  and  C_19
REMARK    5  A    between atoms: C_24  and  C_25
REMARK    6  A    between atoms: C_28  and  C_29
REMARK    7  A    between atoms: C_29  and  O_32
REMARK                            x       y       z     vdW  Elec       q    Type
REMARK                         _______ _______ _______ _____ _____    ______ ____
ROOT
ATOM      1  N   UNL     1     -34.444  26.329   4.718  0.00  0.00    -0.342 NA
ATOM      2  N   UNL     1     -33.053  28.059   4.035  0.00  0.00    -0.266 N 
ATOM      3  N   UNL     1     -34.677  27.334   2.540  0.00  0.00    -0.170 NA
ATOM      4  C   UNL     1     -35.471  25.510   4.409  0.00  0.00    +0.126 C 
ATOM      5  C   UNL     1     -36.142  25.543   3.204  0.00  0.00    +0.077 C 
ATOM      6  C   UNL     1     -34.104  27.203   3.752  0.00  0.00    +0.144 C 
ATOM      7  C   UNL     1     -35.697  26.484   2.298  0.00  0.00    +0.116 C 
ATOM      8  H   UNL     1     -32.784  28.709   3.346  0.00  0.00    +0.159 HD
ENDROOT
BRANCH   5  12
ATOM      9  N   UNL     1     -36.890  23.502   2.290  0.00  0.00    -0.337 NA
ATOM     10  N   UNL     1     -39.225  22.908   2.225  0.00  0.00    -0.170 NA
ATOM     11  N   UNL     1     -37.588  21.459   1.372  0.00  0.00    -0.247 N 
ATOM     12  C   UNL     1     -37.241  24.662   2.883  0.00  0.00    +0.149 C 
ATOM     13  C   UNL     1     -38.544  25.012   3.174  0.00  0.00    +0.055 C 
ATOM     14  C   UNL     1     -37.917  22.683   1.993  0.00  0.00    +0.149 C 
ATOM     15  C   UNL     1     -39.503  24.087   2.819  0.00  0.00    +0.114 C 
ATOM     16  H   UNL     1     -38.369  20.894   1.173  0.00  0.00    +0.165 HD
BRANCH  11  19
ATOM     17 CL   UNL     1     -34.094  20.520  -2.267  0.00  0.00    -0.061 Cl
ATOM     18  N   UNL     1     -33.926  19.757   0.205  0.00  0.00    -0.232 NA
ATOM     19  C   UNL     1     -36.362  20.889   0.981  0.00  0.00    +0.061 C 
ATOM     20  C   UNL     1     -35.925  21.005  -0.334  0.00  0.00    +0.046 C 
ATOM     21  C   UNL     1     -35.582  20.208   1.909  0.00  0.00    +0.036 C 
ATOM     22  C   UNL     1     -34.711  20.427  -0.669  0.00  0.00    +0.140 C 
ATOM     23  C   UNL     1     -34.383  19.665   1.475  0.00  0.00    +0.101 C 
ENDBRANCH  11  19
ENDBRANCH   5  12
BRANCH   4  24
ATOM     24  C   UNL     1     -35.858  24.536   5.473  0.00  0.00    +0.060 C 
BRANCH  24  25
ATOM     25  C   UNL     1     -34.921  23.362   5.521  0.00  0.00    +0.007 C 
ATOM     26  C   UNL     1     -35.220  22.221   6.448  0.00  0.00    +0.000 C 
ATOM     27  C   UNL     1     -35.371  22.042   4.966  0.00  0.00    +0.000 C 
ENDBRANCH  24  25
ENDBRANCH   4  24
BRANCH   2  28
ATOM     28  C   UNL     1     -32.329  28.052   5.287  0.00  0.00    +0.125 C 
BRANCH  28  29
ATOM     29  C   UNL     1     -31.611  29.388   5.528  0.00  0.00    +0.107 C 
ATOM     30  C   UNL     1     -32.320  30.500   4.748  0.00  0.00    +0.031 C 
ATOM     31  C   UNL     1     -31.540  29.754   7.013  0.00  0.00    +0.031 C 
BRANCH  29  32
ATOM     32  O   UNL     1     -30.280  29.279   5.016  0.00  0.00    -0.385 OA
ATOM     33  H   UNL     1     -29.884  30.162   4.954  0.00  0.00    +0.210 HD
ENDBRANCH  29  32
ENDBRANCH  28  29
ENDBRANCH   2  28
TORSDOF 7
ENDMDL
MODEL 8
REMARK VINA RESULT:      -6.5      2.936      4.142
REMARK  Name = 57404276
REMARK  7 active torsions:
REMARK  status: ('A' for Active; 'I' for Inactive)
REMARK    1  A    between atoms: N_2  and  C_28
REMARK    2  A    between atoms: C_4  and  C_24
REMARK    3  A    between atoms: C_5  and  C_12
REMARK    4  A    between atoms: N_11  and  C_19
REMARK    5  A    between atoms: C_24  and  C_25
REMARK    6  A    between atoms: C_28  and  C_29
REMARK    7  A    between atoms: C_29  and  O_32
REMARK                            x       y       z     vdW  Elec       q    Type
REMARK                         _______ _______ _______ _____ _____    ______ ____
ROOT
ATOM      1  N   UNL     1     -35.924  27.103   2.865  0.00  0.00    -0.342 NA
ATOM      2  N   UNL     1     -34.503  28.757   2.065  0.00  0.00    -0.266 N 
ATOM      3  N   UNL     1     -33.530  26.834   2.934  0.00  0.00    -0.170 NA
ATOM      4  C   UNL     1     -36.039  25.884   3.433  0.00  0.00    +0.126 C 
ATOM      5  C   UNL     1     -34.963  25.092   3.774  0.00  0.00    +0.077 C 
ATOM      6  C   UNL     1     -34.659  27.510   2.647  0.00  0.00    +0.144 C 
ATOM      7  C   UNL     1     -33.720  25.624   3.500  0.00  0.00    +0.116 C 
ATOM      8  H   UNL     1     -33.588  29.079   1.894  0.00  0.00    +0.159 HD
ENDROOT
BRANCH   5  12
ATOM      9  N   UNL     1     -35.254  22.767   3.516  0.00  0.00    -0.337 NA
ATOM     10  N   UNL     1     -35.364  21.272   5.403  0.00  0.00    -0.170 NA
ATOM     11  N   UNL     1     -35.545  20.459   3.209  0.00  0.00    -0.247 N 
ATOM     12  C   UNL     1     -35.098  23.789   4.382  0.00  0.00    +0.149 C 
ATOM     13  C   UNL     1     -35.066  23.635   5.753  0.00  0.00    +0.055 C 
ATOM     14  C   UNL     1     -35.380  21.553   4.086  0.00  0.00    +0.149 C 
ATOM     15  C   UNL     1     -35.205  22.341   6.211  0.00  0.00    +0.114 C 
ATOM     16  H   UNL     1     -35.633  19.593   3.669  0.00  0.00    +0.165 HD
BRANCH  11  19
ATOM     17 CL   UNL     1     -38.275  20.684  -1.130  0.00  0.00    -0.061 Cl
ATOM     18  N   UNL     1     -35.737  20.176  -0.980  0.00  0.00    -0.232 NA
ATOM     19  C   UNL     1     -35.610  20.364   1.807  0.00  0.00    +0.061 C 
ATOM     20  C   UNL     1     -36.818  20.561   1.147  0.00  0.00    +0.046 C 
ATOM     21  C   UNL     1     -34.464  20.073   1.073  0.00  0.00    +0.036 C 
ATOM     22  C   UNL     1     -36.829  20.457  -0.234  0.00  0.00    +0.140 C 
ATOM     23  C   UNL     1     -34.580  19.991  -0.305  0.00  0.00    +0.101 C 
ENDBRANCH  11  19
ENDBRANCH   5  12
BRANCH   4  24
ATOM     24  C   UNL     1     -37.439  25.421   3.679  0.00  0.00    +0.060 C 
BRANCH  24  25
ATOM     25  C   UNL     1     -38.059  24.842   2.439  0.00  0.00    +0.007 C 
ATOM     26  C   UNL     1     -38.701  23.487   2.504  0.00  0.00    +0.000 C 
ATOM     27  C   UNL     1     -39.552  24.714   2.358  0.00  0.00    +0.000 C 
ENDBRANCH  24  25
ENDBRANCH   4  24
BRANCH   2  28
ATOM     28  C   UNL     1     -35.608  29.612   1.694  0.00  0.00    +0.125 C 
BRANCH  28  29
ATOM     29  C   UNL     1     -35.538  30.965   2.418  0.00  0.00    +0.107 C 
ATOM     30  C   UNL     1     -34.208  31.653   2.093  0.00  0.00    +0.031 C 
ATOM     31  C   UNL     1     -36.707  31.885   2.051  0.00  0.00    +0.031 C 
BRANCH  29  32
ATOM     32  O   UNL     1     -35.569  30.721   3.826  0.00  0.00    -0.385 OA
ATOM     33  H   UNL     1     -34.750  30.278   4.097  0.00  0.00    +0.210 HD
ENDBRANCH  29  32
ENDBRANCH  28  29
ENDBRANCH   2  28
TORSDOF 7
ENDMDL
MODEL 9
REMARK VINA RESULT:      -6.5      2.935      5.251
REMARK  Name = 57404276
REMARK  7 active torsions:
REMARK  status: ('A' for Active; 'I' for Inactive)
REMARK    1  A    between atoms: N_2  and  C_28
REMARK    2  A    between atoms: C_4  and  C_24
REMARK    3  A    between atoms: C_5  and  C_12
REMARK    4  A    between atoms: N_11  and  C_19
REMARK    5  A    between atoms: C_24  and  C_25
REMARK    6  A    between atoms: C_28  and  C_29
REMARK    7  A    between atoms: C_29  and  O_32
REMARK                            x       y       z     vdW  Elec       q    Type
REMARK                         _______ _______ _______ _____ _____    ______ ____
ROOT
ATOM      1  N   UNL     1     -33.328  26.248   4.123  0.00  0.00    -0.342 NA
ATOM      2  N   UNL     1     -32.898  27.375   6.108  0.00  0.00    -0.266 N 
ATOM      3  N   UNL     1     -34.556  25.747   6.135  0.00  0.00    -0.170 NA
ATOM      4  C   UNL     1     -34.056  25.306   3.489  0.00  0.00    +0.126 C 
ATOM      5  C   UNL     1     -35.036  24.553   4.101  0.00  0.00    +0.077 C 
ATOM      6  C   UNL     1     -33.626  26.415   5.426  0.00  0.00    +0.144 C 
ATOM      7  C   UNL     1     -35.245  24.820   5.439  0.00  0.00    +0.116 C 
ATOM      8  H   UNL     1     -33.096  27.517   7.062  0.00  0.00    +0.159 HD
ENDROOT
BRANCH   5  12
ATOM      9  N   UNL     1     -36.973  23.978   2.886  0.00  0.00    -0.337 NA
ATOM     10  N   UNL     1     -37.365  21.739   2.085  0.00  0.00    -0.170 NA
ATOM     11  N   UNL     1     -38.916  23.453   1.680  0.00  0.00    -0.247 N 
ATOM     12  C   UNL     1     -35.809  23.546   3.413  0.00  0.00    +0.149 C 
ATOM     13  C   UNL     1     -35.361  22.243   3.319  0.00  0.00    +0.055 C 
ATOM     14  C   UNL     1     -37.691  23.036   2.245  0.00  0.00    +0.149 C 
ATOM     15  C   UNL     1     -36.189  21.376   2.637  0.00  0.00    +0.114 C 
ATOM     16  H   UNL     1     -39.407  22.732   1.223  0.00  0.00    +0.165 HD
BRANCH  11  19
ATOM     17 CL   UNL     1     -41.852  26.985   3.969  0.00  0.00    -0.061 Cl
ATOM     18  N   UNL     1     -40.880  27.168   1.573  0.00  0.00    -0.232 NA
ATOM     19  C   UNL     1     -39.574  24.696   1.645  0.00  0.00    +0.061 C 
ATOM     20  C   UNL     1     -40.303  25.134   2.745  0.00  0.00    +0.046 C 
ATOM     21  C   UNL     1     -39.497  25.494   0.508  0.00  0.00    +0.036 C 
ATOM     22  C   UNL     1     -40.932  26.365   2.660  0.00  0.00    +0.140 C 
ATOM     23  C   UNL     1     -40.162  26.709   0.522  0.00  0.00    +0.101 C 
ENDBRANCH  11  19
ENDBRANCH   5  12
BRANCH   4  24
ATOM     24  C   UNL     1     -33.733  25.111   2.042  0.00  0.00    +0.060 C 
BRANCH  24  25
ATOM     25  C   UNL     1     -32.690  26.083   1.570  0.00  0.00    +0.007 C 
ATOM     26  C   UNL     1     -31.797  25.702   0.425  0.00  0.00    +0.000 C 
ATOM     27  C   UNL     1     -32.857  26.747   0.234  0.00  0.00    +0.000 C 
ENDBRANCH  24  25
ENDBRANCH   4  24
BRANCH   2  28
ATOM     28  C   UNL     1     -31.865  28.181   5.498  0.00  0.00    +0.125 C 
BRANCH  28  29
ATOM     29  C   UNL     1     -31.449  29.345   6.409  0.00  0.00    +0.107 C 
ATOM     30  C   UNL     1     -29.921  29.459   6.432  0.00  0.00    +0.031 C 
ATOM     31  C   UNL     1     -32.066  30.677   5.975  0.00  0.00    +0.031 C 
BRANCH  29  32
ATOM     32  O   UNL     1     -31.882  29.049   7.739  0.00  0.00    -0.385 OA
ATOM     33  H   UNL     1     -32.741  29.468   7.900  0.00  0.00    +0.210 HD
ENDBRANCH  29  32
ENDBRANCH  28  29
ENDBRANCH   2  28
TORSDOF 7
ENDMDL
