MODEL 1
REMARK VINA RESULT:      -6.8      0.000      0.000
REMARK  Name = 5327067
REMARK  10 active torsions:
REMARK  status: ('A' for Active; 'I' for Inactive)
REMARK    1  A    between atoms: C_2  and  C_3
REMARK    2  A    between atoms: C_2  and  C_19
REMARK    3  A    between atoms: C_4  and  O_9
REMARK    4  A    between atoms: O_9  and  C_10
REMARK    5  A    between atoms: C_10  and  C_11
REMARK    6  A    between atoms: C_11  and  O_12
REMARK    7  A    between atoms: C_11  and  C_14
REMARK    8  A    between atoms: C_14  and  O_15
REMARK    9  A    between atoms: N_17  and  C_23
REMARK   10  A    between atoms: C_20  and  N_29
REMARK                            x       y       z     vdW  Elec       q    Type
REMARK                         _______ _______ _______ _____ _____    ______ ____
ROOT
ATOM      1  O   UNL     1     -35.835  25.820   3.383  0.00  0.00    -0.286 OA
ATOM      2  C   UNL     1     -35.068  25.388   4.258  0.00  0.00    +0.200 C 
ENDROOT
BRANCH   2   3
ATOM      3  C   UNL     1     -35.170  23.989   4.645  0.00  0.00    +0.042 C 
ATOM      4  C   UNL     1     -35.382  21.666   4.044  0.00  0.00    +0.139 C 
ATOM      5  C   UNL     1     -35.286  23.001   3.667  0.00  0.00    +0.040 C 
ATOM      6  C   UNL     1     -35.150  23.635   5.995  0.00  0.00    +0.003 C 
ATOM      7  C   UNL     1     -35.363  21.307   5.388  0.00  0.00    +0.037 C 
ATOM      8  C   UNL     1     -35.247  22.294   6.366  0.00  0.00    +0.003 C 
BRANCH   4   9
ATOM      9  O   UNL     1     -35.495  20.696   3.085  0.00  0.00    -0.473 OA
BRANCH   9  10
ATOM     10  C   UNL     1     -35.485  21.132   1.729  0.00  0.00    +0.237 C 
BRANCH  10  11
ATOM     11  C   UNL     1     -36.578  20.413   0.946  0.00  0.00    +0.183 C 
BRANCH  11  12
ATOM     12  O   UNL     1     -36.755  19.108   1.501  0.00  0.00    -0.378 OA
ATOM     13  H   UNL     1     -36.705  19.157   2.468  0.00  0.00    +0.211 HD
ENDBRANCH  11  12
BRANCH  11  14
ATOM     14  C   UNL     1     -37.908  21.149   1.043  0.00  0.00    +0.170 C 
BRANCH  14  15
ATOM     15  O   UNL     1     -38.416  21.013   2.367  0.00  0.00    -0.379 OA
ATOM     16  H   UNL     1     -37.810  21.441   2.991  0.00  0.00    +0.211 HD
ENDBRANCH  14  15
ENDBRANCH  11  14
ENDBRANCH  10  11
ENDBRANCH   9  10
ENDBRANCH   4   9
ENDBRANCH   2   3
BRANCH   2  19
ATOM     17  N   UNL     1     -32.620  27.807   5.239  0.00  0.00    -0.177 N 
ATOM     18  N   UNL     1     -32.783  27.246   6.450  0.00  0.00    -0.171 NA
ATOM     19  C   UNL     1     -34.084  26.283   4.899  0.00  0.00    +0.088 C 
ATOM     20  C   UNL     1     -33.394  27.251   4.264  0.00  0.00    +0.122 C 
ATOM     21  C   UNL     1     -33.698  26.299   6.223  0.00  0.00    +0.124 C 
BRANCH  17  23
ATOM     22  F   UNL     1     -29.050  31.964   4.643  0.00  0.00    -0.204 F 
ATOM     23  C   UNL     1     -31.715  28.861   5.087  0.00  0.00    +0.075 C 
ATOM     24  C   UNL     1     -30.400  28.588   4.737  0.00  0.00    +0.019 C 
ATOM     25  C   UNL     1     -32.145  30.165   5.291  0.00  0.00    +0.019 C 
ATOM     26  C   UNL     1     -29.497  29.640   4.586  0.00  0.00    +0.031 C 
ATOM     27  C   UNL     1     -31.241  31.217   5.140  0.00  0.00    +0.031 C 
ATOM     28  C   UNL     1     -29.917  30.955   4.788  0.00  0.00    +0.140 C 
ENDBRANCH  17  23
BRANCH  20  29
ATOM     29  N   UNL     1     -33.361  27.685   2.985  0.00  0.00    -0.344 N 
ATOM     30  H   UNL     1     -34.156  27.591   2.413  0.00  0.00    +0.144 HD
ATOM     31  H   UNL     1     -32.541  28.096   2.626  0.00  0.00    +0.144 HD
ENDBRANCH  20  29
ENDBRANCH   2  19
TORSDOF 10
ENDMDL
MODEL 2
REMARK VINA RESULT:      -6.7      2.108      2.427
REMARK  Name = 5327067
REMARK  10 active torsions:
REMARK  status: ('A' for Active; 'I' for Inactive)
REMARK    1  A    between atoms: C_2  and  C_3
REMARK    2  A    between atoms: C_2  and  C_19
REMARK    3  A    between atoms: C_4  and  O_9
REMARK    4  A    between atoms: O_9  and  C_10
REMARK    5  A    between atoms: C_10  and  C_11
REMARK    6  A    between atoms: C_11  and  O_12
REMARK    7  A    between atoms: C_11  and  C_14
REMARK    8  A    between atoms: C_14  and  O_15
REMARK    9  A    between atoms: N_17  and  C_23
REMARK   10  A    between atoms: C_20  and  N_29
REMARK                            x       y       z     vdW  Elec       q    Type
REMARK                         _______ _______ _______ _____ _____    ______ ____
ROOT
ATOM      1  O   UNL     1     -37.365  25.542   3.949  0.00  0.00    -0.286 OA
ATOM      2  C   UNL     1     -36.176  25.285   4.193  0.00  0.00    +0.200 C 
ENDROOT
BRANCH   2   3
ATOM      3  C   UNL     1     -35.824  23.933   4.600  0.00  0.00    +0.042 C 
ATOM      4  C   UNL     1     -35.466  21.615   4.052  0.00  0.00    +0.139 C 
ATOM      5  C   UNL     1     -35.804  22.904   3.657  0.00  0.00    +0.040 C 
ATOM      6  C   UNL     1     -35.506  23.665   5.931  0.00  0.00    +0.003 C 
ATOM      7  C   UNL     1     -35.148  21.341   5.378  0.00  0.00    +0.037 C 
ATOM      8  C   UNL     1     -35.168  22.369   6.321  0.00  0.00    +0.003 C 
BRANCH   4   9
ATOM      9  O   UNL     1     -35.445  20.605   3.127  0.00  0.00    -0.473 OA
BRANCH   9  10
ATOM     10  C   UNL     1     -35.360  20.991   1.760  0.00  0.00    +0.237 C 
BRANCH  10  11
ATOM     11  C   UNL     1     -36.494  20.348   0.968  0.00  0.00    +0.183 C 
BRANCH  11  12
ATOM     12  O   UNL     1     -36.765  19.059   1.524  0.00  0.00    -0.378 OA
ATOM     13  H   UNL     1     -37.697  18.832   1.375  0.00  0.00    +0.211 HD
ENDBRANCH  11  12
BRANCH  11  14
ATOM     14  C   UNL     1     -37.770  21.175   1.051  0.00  0.00    +0.170 C 
BRANCH  14  15
ATOM     15  O   UNL     1     -38.431  20.881   2.279  0.00  0.00    -0.379 OA
ATOM     16  H   UNL     1     -38.450  21.676   2.834  0.00  0.00    +0.211 HD
ENDBRANCH  14  15
ENDBRANCH  11  14
ENDBRANCH  10  11
ENDBRANCH   9  10
ENDBRANCH   4   9
ENDBRANCH   2   3
BRANCH   2  19
ATOM     17  N   UNL     1     -34.048  28.074   3.484  0.00  0.00    -0.177 N 
ATOM     18  N   UNL     1     -33.284  27.532   4.448  0.00  0.00    -0.171 NA
ATOM     19  C   UNL     1     -35.146  26.338   4.086  0.00  0.00    +0.088 C 
ATOM     20  C   UNL     1     -35.194  27.379   3.232  0.00  0.00    +0.122 C 
ATOM     21  C   UNL     1     -33.979  26.452   4.813  0.00  0.00    +0.124 C 
BRANCH  17  23
ATOM     22  F   UNL     1     -32.387  32.703   0.993  0.00  0.00    -0.204 F 
ATOM     23  C   UNL     1     -33.627  29.248   2.853  0.00  0.00    +0.075 C 
ATOM     24  C   UNL     1     -34.083  30.474   3.315  0.00  0.00    +0.019 C 
ATOM     25  C   UNL     1     -32.759  29.168   1.772  0.00  0.00    +0.019 C 
ATOM     26  C   UNL     1     -33.663  31.645   2.685  0.00  0.00    +0.031 C 
ATOM     27  C   UNL     1     -32.339  30.339   1.142  0.00  0.00    +0.031 C 
ATOM     28  C   UNL     1     -32.791  31.578   1.598  0.00  0.00    +0.140 C 
ENDBRANCH  17  23
BRANCH  20  29
ATOM     29  N   UNL     1     -36.082  27.774   2.294  0.00  0.00    -0.344 N 
ATOM     30  H   UNL     1     -37.004  28.000   2.554  0.00  0.00    +0.144 HD
ATOM     31  H   UNL     1     -35.808  27.836   1.350  0.00  0.00    +0.144 HD
ENDBRANCH  20  29
ENDBRANCH   2  19
TORSDOF 10
ENDMDL
MODEL 3
REMARK VINA RESULT:      -6.5      4.945      9.283
REMARK  Name = 5327067
REMARK  10 active torsions:
REMARK  status: ('A' for Active; 'I' for Inactive)
REMARK    1  A    between atoms: C_2  and  C_3
REMARK    2  A    between atoms: C_2  and  C_19
REMARK    3  A    between atoms: C_4  and  O_9
REMARK    4  A    between atoms: O_9  and  C_10
REMARK    5  A    between atoms: C_10  and  C_11
REMARK    6  A    between atoms: C_11  and  O_12
REMARK    7  A    between atoms: C_11  and  C_14
REMARK    8  A    between atoms: C_14  and  O_15
REMARK    9  A    between atoms: N_17  and  C_23
REMARK   10  A    between atoms: C_20  and  N_29
REMARK                            x       y       z     vdW  Elec       q    Type
REMARK                         _______ _______ _______ _____ _____    ______ ____
ROOT
ATOM      1  O   UNL     1     -36.028  24.287   1.206  0.00  0.00    -0.286 OA
ATOM      2  C   UNL     1     -35.586  23.747   2.232  0.00  0.00    +0.200 C 
ENDROOT
BRANCH   2   3
ATOM      3  C   UNL     1     -35.313  24.578   3.395  0.00  0.00    +0.042 C 
ATOM      4  C   UNL     1     -33.849  26.058   4.607  0.00  0.00    +0.139 C 
ATOM      5  C   UNL     1     -34.103  25.266   3.493  0.00  0.00    +0.040 C 
ATOM      6  C   UNL     1     -36.261  24.687   4.412  0.00  0.00    +0.003 C 
ATOM      7  C   UNL     1     -34.790  26.171   5.625  0.00  0.00    +0.037 C 
ATOM      8  C   UNL     1     -36.000  25.484   5.528  0.00  0.00    +0.003 C 
BRANCH   4   9
ATOM      9  O   UNL     1     -32.661  26.733   4.703  0.00  0.00    -0.473 OA
BRANCH   9  10
ATOM     10  C   UNL     1     -32.635  28.058   4.182  0.00  0.00    +0.237 C 
BRANCH  10  11
ATOM     11  C   UNL     1     -31.925  28.986   5.163  0.00  0.00    +0.183 C 
BRANCH  11  12
ATOM     12  O   UNL     1     -32.621  30.233   5.199  0.00  0.00    -0.378 OA
ATOM     13  H   UNL     1     -32.639  30.619   4.309  0.00  0.00    +0.211 HD
ENDBRANCH  11  12
BRANCH  11  14
ATOM     14  C   UNL     1     -31.921  28.408   6.572  0.00  0.00    +0.170 C 
BRANCH  14  15
ATOM     15  O   UNL     1     -30.788  27.558   6.720  0.00  0.00    -0.379 OA
ATOM     16  H   UNL     1     -31.071  26.632   6.681  0.00  0.00    +0.211 HD
ENDBRANCH  14  15
ENDBRANCH  11  14
ENDBRANCH  10  11
ENDBRANCH   9  10
ENDBRANCH   4   9
ENDBRANCH   2   3
BRANCH   2  19
ATOM     17  N   UNL     1     -34.706  20.313   1.741  0.00  0.00    -0.177 N 
ATOM     18  N   UNL     1     -35.275  20.160   2.949  0.00  0.00    -0.171 NA
ATOM     19  C   UNL     1     -35.331  22.293   2.262  0.00  0.00    +0.088 C 
ATOM     20  C   UNL     1     -34.718  21.597   1.284  0.00  0.00    +0.122 C 
ATOM     21  C   UNL     1     -35.658  21.400   3.262  0.00  0.00    +0.124 C 
BRANCH  17  23
ATOM     22  F   UNL     1     -32.620  15.914  -0.844  0.00  0.00    -0.204 F 
ATOM     23  C   UNL     1     -34.177  19.198   1.085  0.00  0.00    +0.075 C 
ATOM     24  C   UNL     1     -34.930  18.556   0.112  0.00  0.00    +0.019 C 
ATOM     25  C   UNL     1     -32.906  18.749   1.419  0.00  0.00    +0.019 C 
ATOM     26  C   UNL     1     -34.402  17.443  -0.542  0.00  0.00    +0.031 C 
ATOM     27  C   UNL     1     -32.379  17.635   0.765  0.00  0.00    +0.031 C 
ATOM     28  C   UNL     1     -33.126  16.982  -0.215  0.00  0.00    +0.140 C 
ENDBRANCH  17  23
BRANCH  20  29
ATOM     29  N   UNL     1     -34.193  21.939   0.087  0.00  0.00    -0.344 N 
ATOM     30  H   UNL     1     -34.630  22.628  -0.464  0.00  0.00    +0.144 HD
ATOM     31  H   UNL     1     -33.373  21.498  -0.235  0.00  0.00    +0.144 HD
ENDBRANCH  20  29
ENDBRANCH   2  19
TORSDOF 10
ENDMDL
MODEL 4
REMARK VINA RESULT:      -6.3      2.311      3.030
REMARK  Name = 5327067
REMARK  10 active torsions:
REMARK  status: ('A' for Active; 'I' for Inactive)
REMARK    1  A    between atoms: C_2  and  C_3
REMARK    2  A    between atoms: C_2  and  C_19
REMARK    3  A    between atoms: C_4  and  O_9
REMARK    4  A    between atoms: O_9  and  C_10
REMARK    5  A    between atoms: C_10  and  C_11
REMARK    6  A    between atoms: C_11  and  O_12
REMARK    7  A    between atoms: C_11  and  C_14
REMARK    8  A    between atoms: C_14  and  O_15
REMARK    9  A    between atoms: N_17  and  C_23
REMARK   10  A    between atoms: C_20  and  N_29
REMARK                            x       y       z     vdW  Elec       q    Type
REMARK                         _______ _______ _______ _____ _____    ______ ____
ROOT
ATOM      1  O   UNL     1     -38.430  24.733   3.755  0.00  0.00    -0.286 OA
ATOM      2  C   UNL     1     -37.206  24.698   3.554  0.00  0.00    +0.200 C 
ENDROOT
BRANCH   2   3
ATOM      3  C   UNL     1     -36.460  23.528   3.992  0.00  0.00    +0.042 C 
ATOM      4  C   UNL     1     -35.646  21.298   3.584  0.00  0.00    +0.139 C 
ATOM      5  C   UNL     1     -36.361  22.412   3.159  0.00  0.00    +0.040 C 
ATOM      6  C   UNL     1     -35.843  23.522   5.243  0.00  0.00    +0.003 C 
ATOM      7  C   UNL     1     -35.028  21.285   4.831  0.00  0.00    +0.037 C 
ATOM      8  C   UNL     1     -35.128  22.401   5.663  0.00  0.00    +0.003 C 
BRANCH   4   9
ATOM      9  O   UNL     1     -35.548  20.203   2.768  0.00  0.00    -0.473 OA
BRANCH   9  10
ATOM     10  C   UNL     1     -34.484  20.203   1.821  0.00  0.00    +0.237 C 
BRANCH  10  11
ATOM     11  C   UNL     1     -34.909  19.449   0.566  0.00  0.00    +0.183 C 
BRANCH  11  12
ATOM     12  O   UNL     1     -34.578  18.068   0.727  0.00  0.00    -0.378 OA
ATOM     13  H   UNL     1     -33.646  17.930   0.497  0.00  0.00    +0.211 HD
ENDBRANCH  11  12
BRANCH  11  14
ATOM     14  C   UNL     1     -36.411  19.550   0.338  0.00  0.00    +0.170 C 
BRANCH  14  15
ATOM     15  O   UNL     1     -37.036  18.379   0.855  0.00  0.00    -0.379 OA
ATOM     16  H   UNL     1     -37.114  18.453   1.819  0.00  0.00    +0.211 HD
ENDBRANCH  14  15
ENDBRANCH  11  14
ENDBRANCH  10  11
ENDBRANCH   9  10
ENDBRANCH   4   9
ENDBRANCH   2   3
BRANCH   2  19
ATOM     17  N   UNL     1     -35.375  27.601   2.538  0.00  0.00    -0.177 N 
ATOM     18  N   UNL     1     -35.777  27.229   1.310  0.00  0.00    -0.171 NA
ATOM     19  C   UNL     1     -36.524  25.830   2.895  0.00  0.00    +0.088 C 
ATOM     20  C   UNL     1     -35.808  26.776   3.534  0.00  0.00    +0.122 C 
ATOM     21  C   UNL     1     -36.490  26.125   1.547  0.00  0.00    +0.124 C 
BRANCH  17  23
ATOM     22  F   UNL     1     -32.268  32.117   3.117  0.00  0.00    -0.204 F 
ATOM     23  C   UNL     1     -34.588  28.746   2.684  0.00  0.00    +0.075 C 
ATOM     24  C   UNL     1     -33.207  28.623   2.736  0.00  0.00    +0.019 C 
ATOM     25  C   UNL     1     -35.200  29.989   2.777  0.00  0.00    +0.019 C 
ATOM     26  C   UNL     1     -32.420  29.766   2.883  0.00  0.00    +0.031 C 
ATOM     27  C   UNL     1     -34.413  31.132   2.924  0.00  0.00    +0.031 C 
ATOM     28  C   UNL     1     -33.024  31.021   2.977  0.00  0.00    +0.140 C 
ENDBRANCH  17  23
BRANCH  20  29
ATOM     29  N   UNL     1     -35.504  26.996   4.832  0.00  0.00    -0.344 N 
ATOM     30  H   UNL     1     -35.689  26.303   5.505  0.00  0.00    +0.144 HD
ATOM     31  H   UNL     1     -35.097  27.851   5.104  0.00  0.00    +0.144 HD
ENDBRANCH  20  29
ENDBRANCH   2  19
TORSDOF 10
ENDMDL
MODEL 5
REMARK VINA RESULT:      -6.3      5.548      9.021
REMARK  Name = 5327067
REMARK  10 active torsions:
REMARK  status: ('A' for Active; 'I' for Inactive)
REMARK    1  A    between atoms: C_2  and  C_3
REMARK    2  A    between atoms: C_2  and  C_19
REMARK    3  A    between atoms: C_4  and  O_9
REMARK    4  A    between atoms: O_9  and  C_10
REMARK    5  A    between atoms: C_10  and  C_11
REMARK    6  A    between atoms: C_11  and  O_12
REMARK    7  A    between atoms: C_11  and  C_14
REMARK    8  A    between atoms: C_14  and  O_15
REMARK    9  A    between atoms: N_17  and  C_23
REMARK   10  A    between atoms: C_20  and  N_29
REMARK                            x       y       z     vdW  Elec       q    Type
REMARK                         _______ _______ _______ _____ _____    ______ ____
ROOT
ATOM      1  O   UNL     1     -40.335  20.784   0.981  0.00  0.00    -0.286 OA
ATOM      2  C   UNL     1     -39.345  21.532   0.990  0.00  0.00    +0.200 C 
ENDROOT
BRANCH   2   3
ATOM      3  C   UNL     1     -39.476  22.855   1.580  0.00  0.00    +0.042 C 
ATOM      4  C   UNL     1     -38.692  24.548   3.105  0.00  0.00    +0.139 C 
ATOM      5  C   UNL     1     -38.562  23.281   2.545  0.00  0.00    +0.040 C 
ATOM      6  C   UNL     1     -40.513  23.698   1.182  0.00  0.00    +0.003 C 
ATOM      7  C   UNL     1     -39.725  25.393   2.712  0.00  0.00    +0.037 C 
ATOM      8  C   UNL     1     -40.639  24.966   1.748  0.00  0.00    +0.003 C 
BRANCH   4   9
ATOM      9  O   UNL     1     -37.796  24.967   4.051  0.00  0.00    -0.473 OA
BRANCH   9  10
ATOM     10  C   UNL     1     -36.572  25.518   3.574  0.00  0.00    +0.237 C 
BRANCH  10  11
ATOM     11  C   UNL     1     -35.680  25.893   4.752  0.00  0.00    +0.183 C 
BRANCH  11  12
ATOM     12  O   UNL     1     -36.489  26.492   5.766  0.00  0.00    -0.378 OA
ATOM     13  H   UNL     1     -36.158  27.384   5.960  0.00  0.00    +0.211 HD
ENDBRANCH  11  12
BRANCH  11  14
ATOM     14  C   UNL     1     -35.004  24.667   5.351  0.00  0.00    +0.170 C 
BRANCH  14  15
ATOM     15  O   UNL     1     -35.999  23.690   5.645  0.00  0.00    -0.379 OA
ATOM     16  H   UNL     1     -35.637  22.804   5.488  0.00  0.00    +0.211 HD
ENDBRANCH  14  15
ENDBRANCH  11  14
ENDBRANCH  10  11
ENDBRANCH   9  10
ENDBRANCH   4   9
ENDBRANCH   2   3
BRANCH   2  19
ATOM     17  N   UNL     1     -36.138  20.200   0.121  0.00  0.00    -0.177 N 
ATOM     18  N   UNL     1     -36.406  20.761  -1.071  0.00  0.00    -0.171 NA
ATOM     19  C   UNL     1     -38.067  21.087   0.399  0.00  0.00    +0.088 C 
ATOM     20  C   UNL     1     -37.124  20.374   1.047  0.00  0.00    +0.122 C 
ATOM     21  C   UNL     1     -37.610  21.309  -0.884  0.00  0.00    +0.124 C 
BRANCH  17  23
ATOM     22  F   UNL     1     -31.380  17.513   0.842  0.00  0.00    -0.204 F 
ATOM     23  C   UNL     1     -34.932  19.519   0.303  0.00  0.00    +0.075 C 
ATOM     24  C   UNL     1     -34.883  18.148   0.097  0.00  0.00    +0.019 C 
ATOM     25  C   UNL     1     -33.800  20.225   0.689  0.00  0.00    +0.019 C 
ATOM     26  C   UNL     1     -33.679  17.468   0.280  0.00  0.00    +0.031 C 
ATOM     27  C   UNL     1     -32.596  19.545   0.872  0.00  0.00    +0.031 C 
ATOM     28  C   UNL     1     -32.535  18.167   0.667  0.00  0.00    +0.140 C 
ENDBRANCH  17  23
BRANCH  20  29
ATOM     29  N   UNL     1     -37.027  19.881   2.301  0.00  0.00    -0.344 N 
ATOM     30  H   UNL     1     -36.236  19.360   2.565  0.00  0.00    +0.144 HD
ATOM     31  H   UNL     1     -37.750  20.044   2.951  0.00  0.00    +0.144 HD
ENDBRANCH  20  29
ENDBRANCH   2  19
TORSDOF 10
ENDMDL
MODEL 6
REMARK VINA RESULT:      -6.2      7.040      9.551
REMARK  Name = 5327067
REMARK  10 active torsions:
REMARK  status: ('A' for Active; 'I' for Inactive)
REMARK    1  A    between atoms: C_2  and  C_3
REMARK    2  A    between atoms: C_2  and  C_19
REMARK    3  A    between atoms: C_4  and  O_9
REMARK    4  A    between atoms: O_9  and  C_10
REMARK    5  A    between atoms: C_10  and  C_11
REMARK    6  A    between atoms: C_11  and  O_12
REMARK    7  A    between atoms: C_11  and  C_14
REMARK    8  A    between atoms: C_14  and  O_15
REMARK    9  A    between atoms: N_17  and  C_23
REMARK   10  A    between atoms: C_20  and  N_29
REMARK                            x       y       z     vdW  Elec       q    Type
REMARK                         _______ _______ _______ _____ _____    ______ ____
ROOT
ATOM      1  O   UNL     1     -41.263  25.862   0.060  0.00  0.00    -0.286 OA
ATOM      2  C   UNL     1     -40.987  26.060   1.253  0.00  0.00    +0.200 C 
ENDROOT
BRANCH   2   3
ATOM      3  C   UNL     1     -42.045  26.495   2.152  0.00  0.00    +0.042 C 
ATOM      4  C   UNL     1     -42.829  27.950   3.904  0.00  0.00    +0.139 C 
ATOM      5  C   UNL     1     -41.813  27.539   3.049  0.00  0.00    +0.040 C 
ATOM      6  C   UNL     1     -43.292  25.871   2.116  0.00  0.00    +0.003 C 
ATOM      7  C   UNL     1     -44.075  27.331   3.874  0.00  0.00    +0.037 C 
ATOM      8  C   UNL     1     -44.306  26.288   2.977  0.00  0.00    +0.003 C 
BRANCH   4   9
ATOM      9  O   UNL     1     -42.602  28.974   4.785  0.00  0.00    -0.473 OA
BRANCH   9  10
ATOM     10  C   UNL     1     -43.749  29.650   5.290  0.00  0.00    +0.237 C 
BRANCH  10  11
ATOM     11  C   UNL     1     -43.342  30.581   6.427  0.00  0.00    +0.183 C 
BRANCH  11  12
ATOM     12  O   UNL     1     -43.549  31.932   6.009  0.00  0.00    -0.378 OA
ATOM     13  H   UNL     1     -43.490  31.984   5.042  0.00  0.00    +0.211 HD
ENDBRANCH  11  12
BRANCH  11  14
ATOM     14  C   UNL     1     -44.185  30.339   7.672  0.00  0.00    +0.170 C 
BRANCH  14  15
ATOM     15  O   UNL     1     -43.451  30.766   8.816  0.00  0.00    -0.379 OA
ATOM     16  H   UNL     1     -44.057  31.171   9.456  0.00  0.00    +0.211 HD
ENDBRANCH  14  15
ENDBRANCH  11  14
ENDBRANCH  10  11
ENDBRANCH   9  10
ENDBRANCH   4   9
ENDBRANCH   2   3
BRANCH   2  19
ATOM     17  N   UNL     1     -37.882  25.115   2.764  0.00  0.00    -0.177 N 
ATOM     18  N   UNL     1     -37.406  26.156   2.059  0.00  0.00    -0.171 NA
ATOM     19  C   UNL     1     -39.606  25.869   1.743  0.00  0.00    +0.088 C 
ATOM     20  C   UNL     1     -39.219  24.904   2.600  0.00  0.00    +0.122 C 
ATOM     21  C   UNL     1     -38.490  26.615   1.428  0.00  0.00    +0.124 C 
BRANCH  17  23
ATOM     22  F   UNL     1     -34.443  22.188   5.925  0.00  0.00    -0.204 F 
ATOM     23  C   UNL     1     -37.011  24.373   3.565  0.00  0.00    +0.075 C 
ATOM     24  C   UNL     1     -36.506  24.936   4.729  0.00  0.00    +0.019 C 
ATOM     25  C   UNL     1     -36.662  23.084   3.184  0.00  0.00    +0.019 C 
ATOM     26  C   UNL     1     -35.636  24.195   5.529  0.00  0.00    +0.031 C 
ATOM     27  C   UNL     1     -35.792  22.344   3.984  0.00  0.00    +0.031 C 
ATOM     28  C   UNL     1     -35.279  22.899   5.156  0.00  0.00    +0.140 C 
ENDBRANCH  17  23
BRANCH  20  29
ATOM     29  N   UNL     1     -39.871  23.903   3.233  0.00  0.00    -0.344 N 
ATOM     30  H   UNL     1     -39.405  23.059   3.429  0.00  0.00    +0.144 HD
ATOM     31  H   UNL     1     -40.813  24.019   3.497  0.00  0.00    +0.144 HD
ENDBRANCH  20  29
ENDBRANCH   2  19
TORSDOF 10
ENDMDL
MODEL 7
REMARK VINA RESULT:      -6.2      1.500      1.882
REMARK  Name = 5327067
REMARK  10 active torsions:
REMARK  status: ('A' for Active; 'I' for Inactive)
REMARK    1  A    between atoms: C_2  and  C_3
REMARK    2  A    between atoms: C_2  and  C_19
REMARK    3  A    between atoms: C_4  and  O_9
REMARK    4  A    between atoms: O_9  and  C_10
REMARK    5  A    between atoms: C_10  and  C_11
REMARK    6  A    between atoms: C_11  and  O_12
REMARK    7  A    between atoms: C_11  and  C_14
REMARK    8  A    between atoms: C_14  and  O_15
REMARK    9  A    between atoms: N_17  and  C_23
REMARK   10  A    between atoms: C_20  and  N_29
REMARK                            x       y       z     vdW  Elec       q    Type
REMARK                         _______ _______ _______ _____ _____    ______ ____
ROOT
ATOM      1  O   UNL     1     -36.457  25.717   2.859  0.00  0.00    -0.286 OA
ATOM      2  C   UNL     1     -35.409  25.383   3.433  0.00  0.00    +0.200 C 
ENDROOT
BRANCH   2   3
ATOM      3  C   UNL     1     -35.369  24.103   4.124  0.00  0.00    +0.042 C 
ATOM      4  C   UNL     1     -35.321  21.695   4.058  0.00  0.00    +0.139 C 
ATOM      5  C   UNL     1     -35.360  22.915   3.392  0.00  0.00    +0.040 C 
ATOM      6  C   UNL     1     -35.339  24.063   5.518  0.00  0.00    +0.003 C 
ATOM      7  C   UNL     1     -35.292  21.649   5.449  0.00  0.00    +0.037 C 
ATOM      8  C   UNL     1     -35.301  22.836   6.180  0.00  0.00    +0.003 C 
BRANCH   4   9
ATOM      9  O   UNL     1     -35.312  20.529   3.340  0.00  0.00    -0.473 OA
BRANCH   9  10
ATOM     10  C   UNL     1     -35.580  20.634   1.946  0.00  0.00    +0.237 C 
BRANCH  10  11
ATOM     11  C   UNL     1     -36.870  19.895   1.610  0.00  0.00    +0.183 C 
BRANCH  11  12
ATOM     12  O   UNL     1     -37.977  20.677   2.065  0.00  0.00    -0.378 OA
ATOM     13  H   UNL     1     -38.359  21.163   1.318  0.00  0.00    +0.211 HD
ENDBRANCH  11  12
BRANCH  11  14
ATOM     14  C   UNL     1     -37.022  19.696   0.108  0.00  0.00    +0.170 C 
BRANCH  14  15
ATOM     15  O   UNL     1     -38.162  18.876  -0.136  0.00  0.00    -0.379 OA
ATOM     16  H   UNL     1     -37.872  17.975  -0.348  0.00  0.00    +0.211 HD
ENDBRANCH  14  15
ENDBRANCH  11  14
ENDBRANCH  10  11
ENDBRANCH   9  10
ENDBRANCH   4   9
ENDBRANCH   2   3
BRANCH   2  19
ATOM     17  N   UNL     1     -32.981  28.013   3.449  0.00  0.00    -0.177 N 
ATOM     18  N   UNL     1     -32.110  26.993   3.364  0.00  0.00    -0.171 NA
ATOM     19  C   UNL     1     -34.233  26.277   3.424  0.00  0.00    +0.088 C 
ATOM     20  C   UNL     1     -34.287  27.622   3.488  0.00  0.00    +0.122 C 
ATOM     21  C   UNL     1     -32.903  25.918   3.349  0.00  0.00    +0.124 C 
BRANCH  17  23
ATOM     22  F   UNL     1     -31.084  33.186   3.601  0.00  0.00    -0.204 F 
ATOM     23  C   UNL     1     -32.501  29.324   3.487  0.00  0.00    +0.075 C 
ATOM     24  C   UNL     1     -32.388  30.046   2.307  0.00  0.00    +0.019 C 
ATOM     25  C   UNL     1     -32.142  29.885   4.706  0.00  0.00    +0.019 C 
ATOM     26  C   UNL     1     -31.908  31.355   2.346  0.00  0.00    +0.031 C 
ATOM     27  C   UNL     1     -31.662  31.194   4.744  0.00  0.00    +0.031 C 
ATOM     28  C   UNL     1     -31.544  31.929   3.565  0.00  0.00    +0.140 C 
ENDBRANCH  17  23
BRANCH  20  29
ATOM     29  N   UNL     1     -35.301  28.510   3.571  0.00  0.00    -0.344 N 
ATOM     30  H   UNL     1     -35.584  29.010   2.772  0.00  0.00    +0.144 HD
ATOM     31  H   UNL     1     -35.757  28.659   4.432  0.00  0.00    +0.144 HD
ENDBRANCH  20  29
ENDBRANCH   2  19
TORSDOF 10
ENDMDL
MODEL 8
REMARK VINA RESULT:      -6.2      5.265      7.389
REMARK  Name = 5327067
REMARK  10 active torsions:
REMARK  status: ('A' for Active; 'I' for Inactive)
REMARK    1  A    between atoms: C_2  and  C_3
REMARK    2  A    between atoms: C_2  and  C_19
REMARK    3  A    between atoms: C_4  and  O_9
REMARK    4  A    between atoms: O_9  and  C_10
REMARK    5  A    between atoms: C_10  and  C_11
REMARK    6  A    between atoms: C_11  and  O_12
REMARK    7  A    between atoms: C_11  and  C_14
REMARK    8  A    between atoms: C_14  and  O_15
REMARK    9  A    between atoms: N_17  and  C_23
REMARK   10  A    between atoms: C_20  and  N_29
REMARK                            x       y       z     vdW  Elec       q    Type
REMARK                         _______ _______ _______ _____ _____    ______ ____
ROOT
ATOM      1  O   UNL     1     -34.985  26.358   3.935  0.00  0.00    -0.286 OA
ATOM      2  C   UNL     1     -35.809  25.466   3.680  0.00  0.00    +0.200 C 
ENDROOT
BRANCH   2   3
ATOM      3  C   UNL     1     -35.613  24.149   4.266  0.00  0.00    +0.042 C 
ATOM      4  C   UNL     1     -35.471  21.756   4.024  0.00  0.00    +0.139 C 
ATOM      5  C   UNL     1     -35.659  23.012   3.457  0.00  0.00    +0.040 C 
ATOM      6  C   UNL     1     -35.381  24.022   5.635  0.00  0.00    +0.003 C 
ATOM      7  C   UNL     1     -35.239  21.622   5.390  0.00  0.00    +0.037 C 
ATOM      8  C   UNL     1     -35.194  22.759   6.197  0.00  0.00    +0.003 C 
BRANCH   4   9
ATOM      9  O   UNL     1     -35.514  20.640   3.231  0.00  0.00    -0.473 OA
BRANCH   9  10
ATOM     10  C   UNL     1     -36.233  20.752   2.008  0.00  0.00    +0.237 C 
BRANCH  10  11
ATOM     11  C   UNL     1     -35.487  20.017   0.900  0.00  0.00    +0.183 C 
BRANCH  11  12
ATOM     12  O   UNL     1     -34.561  19.108   1.497  0.00  0.00    -0.378 OA
ATOM     13  H   UNL     1     -34.491  18.310   0.950  0.00  0.00    +0.211 HD
ENDBRANCH  11  12
BRANCH  11  14
ATOM     14  C   UNL     1     -36.440  19.212   0.026  0.00  0.00    +0.170 C 
BRANCH  14  15
ATOM     15  O   UNL     1     -36.976  18.140   0.796  0.00  0.00    -0.379 OA
ATOM     16  H   UNL     1     -37.917  18.031   0.586  0.00  0.00    +0.211 HD
ENDBRANCH  14  15
ENDBRANCH  11  14
ENDBRANCH  10  11
ENDBRANCH   9  10
ENDBRANCH   4   9
ENDBRANCH   2   3
BRANCH   2  19
ATOM     17  N   UNL     1     -38.925  25.833   1.958  0.00  0.00    -0.177 N 
ATOM     18  N   UNL     1     -38.162  26.448   1.038  0.00  0.00    -0.171 NA
ATOM     19  C   UNL     1     -36.954  25.737   2.788  0.00  0.00    +0.088 C 
ATOM     20  C   UNL     1     -38.229  25.384   3.042  0.00  0.00    +0.122 C 
ATOM     21  C   UNL     1     -36.938  26.382   1.568  0.00  0.00    +0.124 C 
BRANCH  17  23
ATOM     22  F   UNL     1     -44.347  25.347   1.093  0.00  0.00    -0.204 F 
ATOM     23  C   UNL     1     -40.300  25.710   1.739  0.00  0.00    +0.075 C 
ATOM     24  C   UNL     1     -41.174  26.579   2.376  0.00  0.00    +0.019 C 
ATOM     25  C   UNL     1     -40.770  24.720   0.886  0.00  0.00    +0.019 C 
ATOM     26  C   UNL     1     -42.546  26.456   2.157  0.00  0.00    +0.031 C 
ATOM     27  C   UNL     1     -42.142  24.597   0.667  0.00  0.00    +0.031 C 
ATOM     28  C   UNL     1     -43.030  25.464   1.303  0.00  0.00    +0.140 C 
ENDBRANCH  17  23
BRANCH  20  29
ATOM     29  N   UNL     1     -38.831  24.740   4.066  0.00  0.00    -0.344 N 
ATOM     30  H   UNL     1     -38.977  23.768   4.017  0.00  0.00    +0.144 HD
ATOM     31  H   UNL     1     -39.125  25.243   4.860  0.00  0.00    +0.144 HD
ENDBRANCH  20  29
ENDBRANCH   2  19
TORSDOF 10
ENDMDL
MODEL 9
REMARK VINA RESULT:      -6.2      4.636      9.136
REMARK  Name = 5327067
REMARK  10 active torsions:
REMARK  status: ('A' for Active; 'I' for Inactive)
REMARK    1  A    between atoms: C_2  and  C_3
REMARK    2  A    between atoms: C_2  and  C_19
REMARK    3  A    between atoms: C_4  and  O_9
REMARK    4  A    between atoms: O_9  and  C_10
REMARK    5  A    between atoms: C_10  and  C_11
REMARK    6  A    between atoms: C_11  and  O_12
REMARK    7  A    between atoms: C_11  and  C_14
REMARK    8  A    between atoms: C_14  and  O_15
REMARK    9  A    between atoms: N_17  and  C_23
REMARK   10  A    between atoms: C_20  and  N_29
REMARK                            x       y       z     vdW  Elec       q    Type
REMARK                         _______ _______ _______ _____ _____    ______ ____
ROOT
ATOM      1  O   UNL     1     -37.371  24.552   4.503  0.00  0.00    -0.286 OA
ATOM      2  C   UNL     1     -36.301  24.307   3.924  0.00  0.00    +0.200 C 
ENDROOT
BRANCH   2   3
ATOM      3  C   UNL     1     -35.467  25.420   3.498  0.00  0.00    +0.042 C 
ATOM      4  C   UNL     1     -33.493  26.773   3.768  0.00  0.00    +0.139 C 
ATOM      5  C   UNL     1     -34.285  25.708   4.181  0.00  0.00    +0.040 C 
ATOM      6  C   UNL     1     -35.850  26.200   2.407  0.00  0.00    +0.003 C 
ATOM      7  C   UNL     1     -33.868  27.555   2.680  0.00  0.00    +0.037 C 
ATOM      8  C   UNL     1     -35.050  27.268   1.998  0.00  0.00    +0.003 C 
BRANCH   4   9
ATOM      9  O   UNL     1     -32.332  27.055   4.437  0.00  0.00    -0.473 OA
BRANCH   9  10
ATOM     10  C   UNL     1     -32.168  28.392   4.899  0.00  0.00    +0.237 C 
BRANCH  10  11
ATOM     11  C   UNL     1     -31.612  28.385   6.319  0.00  0.00    +0.183 C 
BRANCH  11  12
ATOM     12  O   UNL     1     -31.968  27.150   6.943  0.00  0.00    -0.378 OA
ATOM     13  H   UNL     1     -32.824  27.248   7.390  0.00  0.00    +0.211 HD
ENDBRANCH  11  12
BRANCH  11  14
ATOM     14  C   UNL     1     -30.093  28.494   6.323  0.00  0.00    +0.170 C 
BRANCH  14  15
ATOM     15  O   UNL     1     -29.546  27.295   6.863  0.00  0.00    -0.379 OA
ATOM     16  H   UNL     1     -28.607  27.431   7.065  0.00  0.00    +0.211 HD
ENDBRANCH  14  15
ENDBRANCH  11  14
ENDBRANCH  10  11
ENDBRANCH   9  10
ENDBRANCH   4   9
ENDBRANCH   2   3
BRANCH   2  19
ATOM     17  N   UNL     1     -35.413  21.067   2.688  0.00  0.00    -0.177 N 
ATOM     18  N   UNL     1     -35.217  20.799   3.991  0.00  0.00    -0.171 NA
ATOM     19  C   UNL     1     -35.894  22.911   3.663  0.00  0.00    +0.088 C 
ATOM     20  C   UNL     1     -35.826  22.343   2.443  0.00  0.00    +0.122 C 
ATOM     21  C   UNL     1     -35.520  21.956   4.586  0.00  0.00    +0.124 C 
BRANCH  17  23
ATOM     22  F   UNL     1     -34.529  17.113  -1.050  0.00  0.00    -0.204 F 
ATOM     23  C   UNL     1     -35.189  20.065   1.740  0.00  0.00    +0.075 C 
ATOM     24  C   UNL     1     -36.248  19.601   0.973  0.00  0.00    +0.019 C 
ATOM     25  C   UNL     1     -33.910  19.549   1.581  0.00  0.00    +0.019 C 
ATOM     26  C   UNL     1     -36.024  18.600   0.027  0.00  0.00    +0.031 C 
ATOM     27  C   UNL     1     -33.686  18.548   0.636  0.00  0.00    +0.031 C 
ATOM     28  C   UNL     1     -34.743  18.074  -0.141  0.00  0.00    +0.140 C 
ENDBRANCH  17  23
BRANCH  20  29
ATOM     29  N   UNL     1     -36.075  22.790   1.192  0.00  0.00    -0.344 N 
ATOM     30  H   UNL     1     -36.212  23.751   1.031  0.00  0.00    +0.144 HD
ATOM     31  H   UNL     1     -36.121  22.154   0.442  0.00  0.00    +0.144 HD
ENDBRANCH  20  29
ENDBRANCH   2  19
TORSDOF 10
ENDMDL
