MODEL 1
REMARK VINA RESULT:      -5.7      0.000      0.000
REMARK  Name = 5311107
REMARK  6 active torsions:
REMARK  status: ('A' for Active; 'I' for Inactive)
REMARK    1  A    between atoms: C_1  and  C_6
REMARK    2  A    between atoms: C_1  and  C_25
REMARK    3  A    between atoms: C_2  and  C_14
REMARK    4  A    between atoms: C_7  and  C_13
REMARK    5  A    between atoms: C_17  and  O_20
REMARK    6  A    between atoms: C_19  and  O_22
REMARK                            x       y       z     vdW  Elec       q    Type
REMARK                         _______ _______ _______ _____ _____    ______ ____
ROOT
ATOM      1  C   UNL     1     -34.923  26.609   3.211  0.00  0.00    +0.086 C 
ATOM      2  C   UNL     1     -35.898  25.820   3.733  0.00  0.00    +0.012 C 
ENDROOT
BRANCH   1   6
ATOM      3  N   UNL     1     -34.856  28.967   3.508  0.00  0.00    -0.273 N 
ATOM      4  N   UNL     1     -35.221  30.153   2.995  0.00  0.00    -0.157 NA
ATOM      5  N   UNL     1     -36.444  30.685   1.008  0.00  0.00    -0.341 N 
ATOM      6  C   UNL     1     -35.262  27.927   2.752  0.00  0.00    +0.096 A 
ATOM      7  C   UNL     1     -35.927  28.419   1.686  0.00  0.00    +0.119 A 
ATOM      8  C   UNL     1     -35.876  29.813   1.881  0.00  0.00    +0.156 A 
ATOM      9  H   UNL     1     -34.346  28.867   4.346  0.00  0.00    +0.189 HD
ATOM     10  H   UNL     1     -36.390  31.654   1.174  0.00  0.00    +0.144 HD
ATOM     11  H   UNL     1     -36.910  30.349   0.208  0.00  0.00    +0.144 HD
BRANCH   7  13
ATOM     12  N   UNL     1     -37.020  27.069  -0.236  0.00  0.00    -0.191 NA
ATOM     13  C   UNL     1     -36.528  27.677   0.630  0.00  0.00    +0.105 C 
ENDBRANCH   7  13
ENDBRANCH   1   6
BRANCH   2  14
ATOM     14  C   UNL     1     -35.734  24.471   4.247  0.00  0.00    +0.004 C 
ATOM     15  C   UNL     1     -35.969  23.374   3.418  0.00  0.00    +0.040 C 
ATOM     16  C   UNL     1     -35.339  24.272   5.571  0.00  0.00    +0.003 C 
ATOM     17  C   UNL     1     -35.810  22.079   3.912  0.00  0.00    +0.167 C 
ATOM     18  C   UNL     1     -35.181  22.976   6.064  0.00  0.00    +0.040 C 
ATOM     19  C   UNL     1     -35.416  21.880   5.235  0.00  0.00    +0.167 C 
BRANCH  17  20
ATOM     20  O   UNL     1     -36.045  21.016   3.092  0.00  0.00    -0.503 OA
ATOM     21  H   UNL     1     -36.307  21.158   2.204  0.00  0.00    +0.292 HD
ENDBRANCH  17  20
BRANCH  19  22
ATOM     22  O   UNL     1     -35.258  20.621   5.728  0.00  0.00    -0.503 OA
ATOM     23  H   UNL     1     -34.658  20.464   6.430  0.00  0.00    +0.292 HD
ENDBRANCH  19  22
ENDBRANCH   2  14
BRANCH   1  25
ATOM     24  N   UNL     1     -32.461  25.811   3.085  0.00  0.00    -0.191 NA
ATOM     25  C   UNL     1     -33.565  26.167   3.141  0.00  0.00    +0.102 C 
ENDBRANCH   1  25
TORSDOF 6
ENDMDL
MODEL 2
REMARK VINA RESULT:      -5.7      0.991      1.962
REMARK  Name = 5311107
REMARK  6 active torsions:
REMARK  status: ('A' for Active; 'I' for Inactive)
REMARK    1  A    between atoms: C_1  and  C_6
REMARK    2  A    between atoms: C_1  and  C_25
REMARK    3  A    between atoms: C_2  and  C_14
REMARK    4  A    between atoms: C_7  and  C_13
REMARK    5  A    between atoms: C_17  and  O_20
REMARK    6  A    between atoms: C_19  and  O_22
REMARK                            x       y       z     vdW  Elec       q    Type
REMARK                         _______ _______ _______ _____ _____    ______ ____
ROOT
ATOM      1  C   UNL     1     -35.100  26.421   3.085  0.00  0.00    +0.086 C 
ATOM      2  C   UNL     1     -36.053  25.573   3.555  0.00  0.00    +0.012 C 
ENDROOT
BRANCH   1   6
ATOM      3  N   UNL     1     -36.593  27.680   1.729  0.00  0.00    -0.273 N 
ATOM      4  N   UNL     1     -36.886  28.903   1.254  0.00  0.00    -0.157 NA
ATOM      5  N   UNL     1     -35.803  31.010   1.591  0.00  0.00    -0.341 N 
ATOM      6  C   UNL     1     -35.503  27.680   2.522  0.00  0.00    +0.096 A 
ATOM      7  C   UNL     1     -35.035  28.944   2.593  0.00  0.00    +0.119 A 
ATOM      8  C   UNL     1     -35.931  29.671   1.785  0.00  0.00    +0.156 A 
ATOM      9  H   UNL     1     -37.118  26.873   1.520  0.00  0.00    +0.189 HD
ATOM     10  H   UNL     1     -36.447  31.489   1.021  0.00  0.00    +0.144 HD
ATOM     11  H   UNL     1     -35.067  31.502   2.022  0.00  0.00    +0.144 HD
BRANCH   7  13
ATOM     12  N   UNL     1     -32.970  29.776   3.917  0.00  0.00    -0.191 NA
ATOM     13  C   UNL     1     -33.901  29.401   3.320  0.00  0.00    +0.105 C 
ENDBRANCH   7  13
ENDBRANCH   1   6
BRANCH   2  14
ATOM     14  C   UNL     1     -35.827  24.270   4.158  0.00  0.00    +0.004 C 
ATOM     15  C   UNL     1     -35.929  23.115   3.383  0.00  0.00    +0.040 C 
ATOM     16  C   UNL     1     -35.506  24.175   5.513  0.00  0.00    +0.003 C 
ATOM     17  C   UNL     1     -35.710  21.865   3.962  0.00  0.00    +0.167 C 
ATOM     18  C   UNL     1     -35.288  22.924   6.091  0.00  0.00    +0.040 C 
ATOM     19  C   UNL     1     -35.390  21.769   5.316  0.00  0.00    +0.167 C 
BRANCH  17  20
ATOM     20  O   UNL     1     -35.815  20.744   3.194  0.00  0.00    -0.503 OA
ATOM     21  H   UNL     1     -35.069  20.426   2.725  0.00  0.00    +0.292 HD
ENDBRANCH  17  20
BRANCH  19  22
ATOM     22  O   UNL     1     -35.176  20.554   5.892  0.00  0.00    -0.503 OA
ATOM     23  H   UNL     1     -35.766  19.846   5.726  0.00  0.00    +0.292 HD
ENDBRANCH  19  22
ENDBRANCH   2  14
BRANCH   1  25
ATOM     24  N   UNL     1     -32.581  25.838   3.236  0.00  0.00    -0.191 NA
ATOM     25  C   UNL     1     -33.710  26.100   3.170  0.00  0.00    +0.102 C 
ENDBRANCH   1  25
TORSDOF 6
ENDMDL
MODEL 3
REMARK VINA RESULT:      -5.5      4.672      7.101
REMARK  Name = 5311107
REMARK  6 active torsions:
REMARK  status: ('A' for Active; 'I' for Inactive)
REMARK    1  A    between atoms: C_1  and  C_6
REMARK    2  A    between atoms: C_1  and  C_25
REMARK    3  A    between atoms: C_2  and  C_14
REMARK    4  A    between atoms: C_7  and  C_13
REMARK    5  A    between atoms: C_17  and  O_20
REMARK    6  A    between atoms: C_19  and  O_22
REMARK                            x       y       z     vdW  Elec       q    Type
REMARK                         _______ _______ _______ _____ _____    ______ ____
ROOT
ATOM      1  C   UNL     1     -35.009  21.492   1.806  0.00  0.00    +0.086 C 
ATOM      2  C   UNL     1     -35.636  21.660   3.000  0.00  0.00    +0.012 C 
ENDROOT
BRANCH   1   6
ATOM      3  N   UNL     1     -33.684  19.550   1.448  0.00  0.00    -0.273 N 
ATOM      4  N   UNL     1     -33.657  18.318   0.914  0.00  0.00    -0.157 NA
ATOM      5  N   UNL     1     -35.339  17.088  -0.263  0.00  0.00    -0.341 N 
ATOM      6  C   UNL     1     -34.871  20.166   1.272  0.00  0.00    +0.096 A 
ATOM      7  C   UNL     1     -35.683  19.325   0.596  0.00  0.00    +0.119 A 
ATOM      8  C   UNL     1     -34.881  18.186   0.394  0.00  0.00    +0.156 A 
ATOM      9  H   UNL     1     -32.921  19.959   1.917  0.00  0.00    +0.189 HD
ATOM     10  H   UNL     1     -34.752  16.307  -0.387  0.00  0.00    +0.144 HD
ATOM     11  H   UNL     1     -36.258  17.073  -0.616  0.00  0.00    +0.144 HD
BRANCH   7  13
ATOM     12  N   UNL     1     -38.130  19.763  -0.132  0.00  0.00    -0.191 NA
ATOM     13  C   UNL     1     -37.027  19.566   0.195  0.00  0.00    +0.105 C 
ENDBRANCH   7  13
ENDBRANCH   1   6
BRANCH   2  14
ATOM     14  C   UNL     1     -35.869  22.923   3.681  0.00  0.00    +0.004 C 
ATOM     15  C   UNL     1     -36.978  23.701   3.351  0.00  0.00    +0.040 C 
ATOM     16  C   UNL     1     -34.981  23.357   4.667  0.00  0.00    +0.003 C 
ATOM     17  C   UNL     1     -37.201  24.911   4.007  0.00  0.00    +0.167 C 
ATOM     18  C   UNL     1     -35.205  24.569   5.322  0.00  0.00    +0.040 C 
ATOM     19  C   UNL     1     -36.315  25.346   4.992  0.00  0.00    +0.167 C 
BRANCH  17  20
ATOM     20  O   UNL     1     -38.289  25.663   3.674  0.00  0.00    -0.503 OA
ATOM     21  H   UNL     1     -38.793  25.447   2.915  0.00  0.00    +0.292 HD
ENDBRANCH  17  20
BRANCH  19  22
ATOM     22  O   UNL     1     -36.522  26.527   5.637  0.00  0.00    -0.503 OA
ATOM     23  H   UNL     1     -37.396  26.822   5.805  0.00  0.00    +0.292 HD
ENDBRANCH  19  22
ENDBRANCH   2  14
BRANCH   1  25
ATOM     24  N   UNL     1     -34.120  23.514   0.453  0.00  0.00    -0.191 NA
ATOM     25  C   UNL     1     -34.517  22.607   1.059  0.00  0.00    +0.102 C 
ENDBRANCH   1  25
TORSDOF 6
ENDMDL
MODEL 4
REMARK VINA RESULT:      -5.5      3.845      5.574
REMARK  Name = 5311107
REMARK  6 active torsions:
REMARK  status: ('A' for Active; 'I' for Inactive)
REMARK    1  A    between atoms: C_1  and  C_6
REMARK    2  A    between atoms: C_1  and  C_25
REMARK    3  A    between atoms: C_2  and  C_14
REMARK    4  A    between atoms: C_7  and  C_13
REMARK    5  A    between atoms: C_17  and  O_20
REMARK    6  A    between atoms: C_19  and  O_22
REMARK                            x       y       z     vdW  Elec       q    Type
REMARK                         _______ _______ _______ _____ _____    ______ ____
ROOT
ATOM      1  C   UNL     1     -35.399  22.518   2.178  0.00  0.00    +0.086 C 
ATOM      2  C   UNL     1     -35.632  21.200   2.413  0.00  0.00    +0.012 C 
ENDROOT
BRANCH   1   6
ATOM      3  N   UNL     1     -37.304  23.386   3.306  0.00  0.00    -0.273 N 
ATOM      4  N   UNL     1     -37.753  24.346   4.131  0.00  0.00    -0.157 NA
ATOM      5  N   UNL     1     -36.606  26.163   5.185  0.00  0.00    -0.341 N 
ATOM      6  C   UNL     1     -35.984  23.496   3.051  0.00  0.00    +0.096 A 
ATOM      7  C   UNL     1     -35.516  24.567   3.726  0.00  0.00    +0.119 A 
ATOM      8  C   UNL     1     -36.656  25.065   4.385  0.00  0.00    +0.156 A 
ATOM      9  H   UNL     1     -37.876  22.678   2.928  0.00  0.00    +0.189 HD
ATOM     10  H   UNL     1     -37.422  26.484   5.632  0.00  0.00    +0.144 HD
ATOM     11  H   UNL     1     -35.753  26.636   5.318  0.00  0.00    +0.144 HD
BRANCH   7  13
ATOM     12  N   UNL     1     -33.081  25.452   3.760  0.00  0.00    -0.191 NA
ATOM     13  C   UNL     1     -34.178  25.053   3.745  0.00  0.00    +0.105 C 
ENDBRANCH   7  13
ENDBRANCH   1   6
BRANCH   2  14
ATOM     14  C   UNL     1     -35.119  20.082   1.639  0.00  0.00    +0.004 C 
ATOM     15  C   UNL     1     -33.888  19.512   1.967  0.00  0.00    +0.040 C 
ATOM     16  C   UNL     1     -35.858  19.576   0.569  0.00  0.00    +0.003 C 
ATOM     17  C   UNL     1     -33.397  18.439   1.225  0.00  0.00    +0.167 C 
ATOM     18  C   UNL     1     -35.365  18.502  -0.173  0.00  0.00    +0.040 C 
ATOM     19  C   UNL     1     -34.135  17.933   0.155  0.00  0.00    +0.167 C 
BRANCH  17  20
ATOM     20  O   UNL     1     -32.192  17.892   1.554  0.00  0.00    -0.503 OA
ATOM     21  H   UNL     1     -31.411  18.404   1.482  0.00  0.00    +0.292 HD
ENDBRANCH  17  20
BRANCH  19  22
ATOM     22  O   UNL     1     -33.664  16.885  -0.576  0.00  0.00    -0.503 OA
ATOM     23  H   UNL     1     -33.512  16.986  -1.495  0.00  0.00    +0.292 HD
ENDBRANCH  19  22
ENDBRANCH   2  14
BRANCH   1  25
ATOM     24  N   UNL     1     -33.875  23.290   0.230  0.00  0.00    -0.191 NA
ATOM     25  C   UNL     1     -34.559  22.946   1.103  0.00  0.00    +0.102 C 
ENDBRANCH   1  25
TORSDOF 6
ENDMDL
MODEL 5
REMARK VINA RESULT:      -5.5      2.741      4.109
REMARK  Name = 5311107
REMARK  6 active torsions:
REMARK  status: ('A' for Active; 'I' for Inactive)
REMARK    1  A    between atoms: C_1  and  C_6
REMARK    2  A    between atoms: C_1  and  C_25
REMARK    3  A    between atoms: C_2  and  C_14
REMARK    4  A    between atoms: C_7  and  C_13
REMARK    5  A    between atoms: C_17  and  O_20
REMARK    6  A    between atoms: C_19  and  O_22
REMARK                            x       y       z     vdW  Elec       q    Type
REMARK                         _______ _______ _______ _____ _____    ______ ____
ROOT
ATOM      1  C   UNL     1     -35.435  24.594   4.417  0.00  0.00    +0.086 C 
ATOM      2  C   UNL     1     -36.192  24.657   3.290  0.00  0.00    +0.012 C 
ENDROOT
BRANCH   1   6
ATOM      3  N   UNL     1     -34.188  25.913   5.952  0.00  0.00    -0.273 N 
ATOM      4  N   UNL     1     -33.269  26.886   6.076  0.00  0.00    -0.157 NA
ATOM      5  N   UNL     1     -32.088  28.141   4.416  0.00  0.00    -0.341 N 
ATOM      6  C   UNL     1     -34.464  25.623   4.664  0.00  0.00    +0.096 A 
ATOM      7  C   UNL     1     -33.710  26.423   3.882  0.00  0.00    +0.119 A 
ATOM      8  C   UNL     1     -32.981  27.194   4.809  0.00  0.00    +0.156 A 
ATOM      9  H   UNL     1     -34.612  25.461   6.717  0.00  0.00    +0.189 HD
ATOM     10  H   UNL     1     -31.595  28.663   5.089  0.00  0.00    +0.144 HD
ATOM     11  H   UNL     1     -31.935  28.305   3.457  0.00  0.00    +0.144 HD
BRANCH   7  13
ATOM     12  N   UNL     1     -33.658  26.484   1.293  0.00  0.00    -0.191 NA
ATOM     13  C   UNL     1     -33.681  26.456   2.460  0.00  0.00    +0.105 C 
ENDBRANCH   7  13
ENDBRANCH   1   6
BRANCH   2  14
ATOM     14  C   UNL     1     -37.219  23.712   2.886  0.00  0.00    +0.004 C 
ATOM     15  C   UNL     1     -36.880  22.386   2.615  0.00  0.00    +0.040 C 
ATOM     16  C   UNL     1     -38.546  24.130   2.771  0.00  0.00    +0.003 C 
ATOM     17  C   UNL     1     -37.866  21.479   2.228  0.00  0.00    +0.167 C 
ATOM     18  C   UNL     1     -39.532  23.221   2.384  0.00  0.00    +0.040 C 
ATOM     19  C   UNL     1     -39.192  21.896   2.112  0.00  0.00    +0.167 C 
BRANCH  17  20
ATOM     20  O   UNL     1     -37.522  20.187   1.964  0.00  0.00    -0.503 OA
ATOM     21  H   UNL     1     -38.031  19.681   1.362  0.00  0.00    +0.292 HD
ENDBRANCH  17  20
BRANCH  19  22
ATOM     22  O   UNL     1     -40.163  21.020   1.735  0.00  0.00    -0.503 OA
ATOM     23  H   UNL     1     -40.114  20.123   2.002  0.00  0.00    +0.292 HD
ENDBRANCH  19  22
ENDBRANCH   2  14
BRANCH   1  25
ATOM     24  N   UNL     1     -35.749  22.696   6.152  0.00  0.00    -0.191 NA
ATOM     25  C   UNL     1     -35.610  23.545   5.373  0.00  0.00    +0.102 C 
ENDBRANCH   1  25
TORSDOF 6
ENDMDL
MODEL 6
REMARK VINA RESULT:      -5.4      2.492      3.925
REMARK  Name = 5311107
REMARK  6 active torsions:
REMARK  status: ('A' for Active; 'I' for Inactive)
REMARK    1  A    between atoms: C_1  and  C_6
REMARK    2  A    between atoms: C_1  and  C_25
REMARK    3  A    between atoms: C_2  and  C_14
REMARK    4  A    between atoms: C_7  and  C_13
REMARK    5  A    between atoms: C_17  and  O_20
REMARK    6  A    between atoms: C_19  and  O_22
REMARK                            x       y       z     vdW  Elec       q    Type
REMARK                         _______ _______ _______ _____ _____    ______ ____
ROOT
ATOM      1  C   UNL     1     -33.218  26.882   3.931  0.00  0.00    +0.086 C 
ATOM      2  C   UNL     1     -34.223  26.260   4.601  0.00  0.00    +0.012 C 
ENDROOT
BRANCH   1   6
ATOM      3  N   UNL     1     -33.753  29.190   3.730  0.00  0.00    -0.273 N 
ATOM      4  N   UNL     1     -33.392  30.439   4.069  0.00  0.00    -0.157 NA
ATOM      5  N   UNL     1     -31.558  31.231   5.387  0.00  0.00    -0.341 N 
ATOM      6  C   UNL     1     -32.922  28.255   4.233  0.00  0.00    +0.096 A 
ATOM      7  C   UNL     1     -31.961  28.885   4.940  0.00  0.00    +0.119 A 
ATOM      8  C   UNL     1     -32.296  30.246   4.808  0.00  0.00    +0.156 A 
ATOM      9  H   UNL     1     -34.539  28.980   3.174  0.00  0.00    +0.189 HD
ATOM     10  H   UNL     1     -31.820  32.173   5.276  0.00  0.00    +0.144 HD
ATOM     11  H   UNL     1     -30.761  31.001   5.918  0.00  0.00    +0.144 HD
BRANCH   7  13
ATOM     12  N   UNL     1     -29.989  27.795   6.218  0.00  0.00    -0.191 NA
ATOM     13  C   UNL     1     -30.878  28.286   5.642  0.00  0.00    +0.105 C 
ENDBRANCH   7  13
ENDBRANCH   1   6
BRANCH   2  14
ATOM     14  C   UNL     1     -34.652  24.882   4.428  0.00  0.00    +0.004 C 
ATOM     15  C   UNL     1     -34.551  23.982   5.489  0.00  0.00    +0.040 C 
ATOM     16  C   UNL     1     -35.166  24.460   3.201  0.00  0.00    +0.003 C 
ATOM     17  C   UNL     1     -34.964  22.660   5.323  0.00  0.00    +0.167 C 
ATOM     18  C   UNL     1     -35.578  23.137   3.037  0.00  0.00    +0.040 C 
ATOM     19  C   UNL     1     -35.477  22.237   4.097  0.00  0.00    +0.167 C 
BRANCH  17  20
ATOM     20  O   UNL     1     -34.859  21.789   6.366  0.00  0.00    -0.503 OA
ATOM     21  H   UNL     1     -34.072  21.296   6.487  0.00  0.00    +0.292 HD
ENDBRANCH  17  20
BRANCH  19  22
ATOM     22  O   UNL     1     -35.883  20.949   3.924  0.00  0.00    -0.503 OA
ATOM     23  H   UNL     1     -35.274  20.302   3.628  0.00  0.00    +0.292 HD
ENDBRANCH  19  22
ENDBRANCH   2  14
BRANCH   1  25
ATOM     24  N   UNL     1     -31.787  25.630   2.171  0.00  0.00    -0.191 NA
ATOM     25  C   UNL     1     -32.430  26.189   2.960  0.00  0.00    +0.102 C 
ENDBRANCH   1  25
TORSDOF 6
ENDMDL
MODEL 7
REMARK VINA RESULT:      -5.4      2.986      4.217
REMARK  Name = 5311107
REMARK  6 active torsions:
REMARK  status: ('A' for Active; 'I' for Inactive)
REMARK    1  A    between atoms: C_1  and  C_6
REMARK    2  A    between atoms: C_1  and  C_25
REMARK    3  A    between atoms: C_2  and  C_14
REMARK    4  A    between atoms: C_7  and  C_13
REMARK    5  A    between atoms: C_17  and  O_20
REMARK    6  A    between atoms: C_19  and  O_22
REMARK                            x       y       z     vdW  Elec       q    Type
REMARK                         _______ _______ _______ _____ _____    ______ ____
ROOT
ATOM      1  C   UNL     1     -34.904  23.844   4.190  0.00  0.00    +0.086 C 
ATOM      2  C   UNL     1     -35.003  23.495   2.881  0.00  0.00    +0.012 C 
ENDROOT
BRANCH   1   6
ATOM      3  N   UNL     1     -34.347  25.472   5.831  0.00  0.00    -0.273 N 
ATOM      4  N   UNL     1     -33.778  26.670   6.046  0.00  0.00    -0.157 NA
ATOM      5  N   UNL     1     -32.761  28.212   4.525  0.00  0.00    -0.341 N 
ATOM      6  C   UNL     1     -34.322  25.112   4.532  0.00  0.00    +0.096 A 
ATOM      7  C   UNL     1     -33.715  26.096   3.836  0.00  0.00    +0.119 A 
ATOM      8  C   UNL     1     -33.394  27.047   4.823  0.00  0.00    +0.156 A 
ATOM      9  H   UNL     1     -34.739  24.917   6.545  0.00  0.00    +0.189 HD
ATOM     10  H   UNL     1     -32.551  28.856   5.239  0.00  0.00    +0.144 HD
ATOM     11  H   UNL     1     -32.512  28.413   3.593  0.00  0.00    +0.144 HD
BRANCH   7  13
ATOM     12  N   UNL     1     -33.275  26.165   1.284  0.00  0.00    -0.191 NA
ATOM     13  C   UNL     1     -33.473  26.134   2.434  0.00  0.00    +0.105 C 
ENDBRANCH   7  13
ENDBRANCH   1   6
BRANCH   2  14
ATOM     14  C   UNL     1     -35.566  22.262   2.357  0.00  0.00    +0.004 C 
ATOM     15  C   UNL     1     -36.946  22.141   2.188  0.00  0.00    +0.040 C 
ATOM     16  C   UNL     1     -34.727  21.198   2.022  0.00  0.00    +0.003 C 
ATOM     17  C   UNL     1     -37.486  20.958   1.684  0.00  0.00    +0.167 C 
ATOM     18  C   UNL     1     -35.269  20.015   1.519  0.00  0.00    +0.040 C 
ATOM     19  C   UNL     1     -36.648  19.895   1.350  0.00  0.00    +0.167 C 
BRANCH  17  20
ATOM     20  O   UNL     1     -38.835  20.852   1.525  0.00  0.00    -0.503 OA
ATOM     21  H   UNL     1     -39.280  21.406   0.914  0.00  0.00    +0.292 HD
ENDBRANCH  17  20
BRANCH  19  22
ATOM     22  O   UNL     1     -37.165  18.735   0.858  0.00  0.00    -0.503 OA
ATOM     23  H   UNL     1     -36.856  17.911   1.179  0.00  0.00    +0.292 HD
ENDBRANCH  19  22
ENDBRANCH   2  14
BRANCH   1  25
ATOM     24  N   UNL     1     -35.803  22.304   6.069  0.00  0.00    -0.191 NA
ATOM     25  C   UNL     1     -35.398  22.994   5.227  0.00  0.00    +0.102 C 
ENDBRANCH   1  25
TORSDOF 6
ENDMDL
MODEL 8
REMARK VINA RESULT:      -5.4      4.794      7.307
REMARK  Name = 5311107
REMARK  6 active torsions:
REMARK  status: ('A' for Active; 'I' for Inactive)
REMARK    1  A    between atoms: C_1  and  C_6
REMARK    2  A    between atoms: C_1  and  C_25
REMARK    3  A    between atoms: C_2  and  C_14
REMARK    4  A    between atoms: C_7  and  C_13
REMARK    5  A    between atoms: C_17  and  O_20
REMARK    6  A    between atoms: C_19  and  O_22
REMARK                            x       y       z     vdW  Elec       q    Type
REMARK                         _______ _______ _______ _____ _____    ______ ____
ROOT
ATOM      1  C   UNL     1     -35.582  21.458   1.711  0.00  0.00    +0.086 C 
ATOM      2  C   UNL     1     -36.298  21.717   2.836  0.00  0.00    +0.012 C 
ENDROOT
BRANCH   1   6
ATOM      3  N   UNL     1     -36.926  19.702   0.835  0.00  0.00    -0.273 N 
ATOM      4  N   UNL     1     -36.914  18.485   0.266  0.00  0.00    -0.157 NA
ATOM      5  N   UNL     1     -35.091  17.054  -0.326  0.00  0.00    -0.341 N 
ATOM      6  C   UNL     1     -35.686  20.161   1.101  0.00  0.00    +0.096 A 
ATOM      7  C   UNL     1     -34.798  19.227   0.701  0.00  0.00    +0.119 A 
ATOM      8  C   UNL     1     -35.612  18.199   0.187  0.00  0.00    +0.156 A 
ATOM      9  H   UNL     1     -37.749  20.205   1.035  0.00  0.00    +0.189 HD
ATOM     10  H   UNL     1     -35.688  16.355  -0.678  0.00  0.00    +0.144 HD
ATOM     11  H   UNL     1     -34.114  16.923  -0.347  0.00  0.00    +0.144 HD
BRANCH   7  13
ATOM     12  N   UNL     1     -32.216  19.350   0.867  0.00  0.00    -0.191 NA
ATOM     13  C   UNL     1     -33.379  19.294   0.792  0.00  0.00    +0.105 C 
ENDBRANCH   7  13
ENDBRANCH   1   6
BRANCH   2  14
ATOM     14  C   UNL     1     -36.319  22.967   3.577  0.00  0.00    +0.004 C 
ATOM     15  C   UNL     1     -37.228  23.968   3.234  0.00  0.00    +0.040 C 
ATOM     16  C   UNL     1     -35.429  23.166   4.634  0.00  0.00    +0.003 C 
ATOM     17  C   UNL     1     -37.248  25.166   3.946  0.00  0.00    +0.167 C 
ATOM     18  C   UNL     1     -35.450  24.366   5.346  0.00  0.00    +0.040 C 
ATOM     19  C   UNL     1     -36.359  25.366   5.002  0.00  0.00    +0.167 C 
BRANCH  17  20
ATOM     20  O   UNL     1     -38.139  26.137   3.599  0.00  0.00    -0.503 OA
ATOM     21  H   UNL     1     -38.155  26.948   4.068  0.00  0.00    +0.292 HD
ENDBRANCH  17  20
BRANCH  19  22
ATOM     22  O   UNL     1     -36.369  26.533   5.703  0.00  0.00    -0.503 OA
ATOM     23  H   UNL     1     -37.123  26.771   6.206  0.00  0.00    +0.292 HD
ENDBRANCH  19  22
ENDBRANCH   2  14
BRANCH   1  25
ATOM     24  N   UNL     1     -34.086  23.269   0.619  0.00  0.00    -0.191 NA
ATOM     25  C   UNL     1     -34.757  22.457   1.106  0.00  0.00    +0.102 C 
ENDBRANCH   1  25
TORSDOF 6
ENDMDL
MODEL 9
REMARK VINA RESULT:      -5.4      3.294      4.631
REMARK  Name = 5311107
REMARK  6 active torsions:
REMARK  status: ('A' for Active; 'I' for Inactive)
REMARK    1  A    between atoms: C_1  and  C_6
REMARK    2  A    between atoms: C_1  and  C_25
REMARK    3  A    between atoms: C_2  and  C_14
REMARK    4  A    between atoms: C_7  and  C_13
REMARK    5  A    between atoms: C_17  and  O_20
REMARK    6  A    between atoms: C_19  and  O_22
REMARK                            x       y       z     vdW  Elec       q    Type
REMARK                         _______ _______ _______ _____ _____    ______ ____
ROOT
ATOM      1  C   UNL     1     -32.877  27.678   4.316  0.00  0.00    +0.086 C 
ATOM      2  C   UNL     1     -33.528  26.901   5.221  0.00  0.00    +0.012 C 
ENDROOT
BRANCH   1   6
ATOM      3  N   UNL     1     -32.592  29.798   5.355  0.00  0.00    -0.273 N 
ATOM      4  N   UNL     1     -31.698  30.714   5.763  0.00  0.00    -0.157 NA
ATOM      5  N   UNL     1     -29.308  30.727   5.641  0.00  0.00    -0.341 N 
ATOM      6  C   UNL     1     -32.010  28.721   4.788  0.00  0.00    +0.096 A 
ATOM      7  C   UNL     1     -30.673  28.908   4.810  0.00  0.00    +0.119 A 
ATOM      8  C   UNL     1     -30.527  30.165   5.427  0.00  0.00    +0.156 A 
ATOM      9  H   UNL     1     -33.566  29.901   5.459  0.00  0.00    +0.189 HD
ATOM     10  H   UNL     1     -29.240  31.607   6.076  0.00  0.00    +0.144 HD
ATOM     11  H   UNL     1     -28.491  30.252   5.362  0.00  0.00    +0.144 HD
BRANCH   7  13
ATOM     12  N   UNL     1     -28.854  27.297   3.912  0.00  0.00    -0.191 NA
ATOM     13  C   UNL     1     -29.674  28.023   4.316  0.00  0.00    +0.105 C 
ENDBRANCH   7  13
ENDBRANCH   1   6
BRANCH   2  14
ATOM     14  C   UNL     1     -34.433  25.803   4.923  0.00  0.00    +0.004 C 
ATOM     15  C   UNL     1     -35.802  26.041   4.800  0.00  0.00    +0.040 C 
ATOM     16  C   UNL     1     -33.931  24.511   4.758  0.00  0.00    +0.003 C 
ATOM     17  C   UNL     1     -36.669  24.987   4.513  0.00  0.00    +0.167 C 
ATOM     18  C   UNL     1     -34.801  23.458   4.470  0.00  0.00    +0.040 C 
ATOM     19  C   UNL     1     -36.169  23.696   4.348  0.00  0.00    +0.167 C 
BRANCH  17  20
ATOM     20  O   UNL     1     -38.005  25.232   4.397  0.00  0.00    -0.503 OA
ATOM     21  H   UNL     1     -38.574  25.079   5.126  0.00  0.00    +0.292 HD
ENDBRANCH  17  20
BRANCH  19  22
ATOM     22  O   UNL     1     -37.007  22.660   4.068  0.00  0.00    -0.503 OA
ATOM     23  H   UNL     1     -37.614  22.727   3.357  0.00  0.00    +0.292 HD
ENDBRANCH  19  22
ENDBRANCH   2  14
BRANCH   1  25
ATOM     24  N   UNL     1     -33.117  27.279   1.768  0.00  0.00    -0.191 NA
ATOM     25  C   UNL     1     -33.010  27.456   2.910  0.00  0.00    +0.102 C 
ENDBRANCH   1  25
TORSDOF 6
ENDMDL
