MODEL 1
REMARK VINA RESULT:      -7.7      0.000      0.000
REMARK  Name = 54682040
REMARK  4 active torsions:
REMARK  status: ('A' for Active; 'I' for Inactive)
REMARK    1  A    between atoms: C_14  and  C_19
REMARK    2  A    between atoms: C_16  and  O_29
REMARK    3  A    between atoms: N_18  and  C_21
REMARK    4  A    between atoms: C_21  and  C_23
REMARK                            x       y       z     vdW  Elec       q    Type
REMARK                         _______ _______ _______ _____ _____    ______ ____
ROOT
ATOM      1  S   UNL     1     -37.893  25.703   1.748  0.00  0.00    +0.060 S 
ATOM      2  O   UNL     1     -38.566  26.958   2.020  0.00  0.00    -0.154 OA
ATOM      3  O   UNL     1     -38.639  24.461   1.691  0.00  0.00    -0.154 OA
ATOM      4  O   UNL     1     -35.217  22.969   6.603  0.00  0.00    -0.271 OA
ATOM      5  N   UNL     1     -36.534  25.534   2.807  0.00  0.00    -0.155 N 
ATOM      6  N   UNL     1     -35.863  24.280   4.776  0.00  0.00    -0.217 N 
ATOM      7  N   UNL     1     -36.189  23.245   2.659  0.00  0.00    -0.368 NA
ATOM      8  C   UNL     1     -35.966  26.993   0.286  0.00  0.00    +0.029 C 
ATOM      9  C   UNL     1     -36.996  25.872   0.217  0.00  0.00    +0.173 C 
ATOM     10  C   UNL     1     -34.939  26.778   1.402  0.00  0.00    +0.025 C 
ATOM     11  C   UNL     1     -35.585  26.683   2.781  0.00  0.00    +0.119 C 
ATOM     12  C   UNL     1     -36.187  24.299   3.414  0.00  0.00    +0.266 C 
ATOM     13  C   UNL     1     -35.515  23.089   5.417  0.00  0.00    +0.266 C 
ATOM     14  C   UNL     1     -35.853  22.056   3.247  0.00  0.00    +0.201 C 
ATOM     15  C   UNL     1     -35.883  25.512   5.561  0.00  0.00    +0.124 C 
ATOM     16  C   UNL     1     -35.523  21.890   4.535  0.00  0.00    +0.245 C 
ENDROOT
BRANCH  14  19
ATOM     17  O   UNL     1     -36.922  20.415   1.949  0.00  0.00    -0.268 OA
ATOM     18  N   UNL     1     -34.595  20.398   2.100  0.00  0.00    -0.295 N 
ATOM     19  C   UNL     1     -35.863  20.878   2.368  0.00  0.00    +0.275 C 
ATOM     20  H   UNL     1     -33.824  20.863   2.500  0.00  0.00    +0.150 HD
BRANCH  18  21
ATOM     21  C   UNL     1     -34.344  19.248   1.261  0.00  0.00    +0.117 C 
BRANCH  21  23
ATOM     22  F   UNL     1     -28.931  18.876  -0.240  0.00  0.00    -0.204 F 
ATOM     23  C   UNL     1     -32.901  19.149   0.861  0.00  0.00    -0.002 C 
ATOM     24  C   UNL     1     -32.316  20.162   0.100  0.00  0.00    -0.000 C 
ATOM     25  C   UNL     1     -32.144  18.044   1.249  0.00  0.00    -0.000 C 
ATOM     26  C   UNL     1     -30.975  20.070  -0.272  0.00  0.00    +0.029 C 
ATOM     27  C   UNL     1     -30.803  17.952   0.877  0.00  0.00    +0.029 C 
ATOM     28  C   UNL     1     -30.219  18.964   0.117  0.00  0.00    +0.140 C 
ENDBRANCH  21  23
ENDBRANCH  18  21
ENDBRANCH  14  19
BRANCH  16  29
ATOM     29  O   UNL     1     -35.190  20.673   5.087  0.00  0.00    -0.370 OA
ATOM     30  H   UNL     1     -34.300  20.490   5.317  0.00  0.00    +0.211 HD
ENDBRANCH  16  29
TORSDOF 4
ENDMDL
MODEL 2
REMARK VINA RESULT:      -7.4      2.187      3.345
REMARK  Name = 54682040
REMARK  4 active torsions:
REMARK  status: ('A' for Active; 'I' for Inactive)
REMARK    1  A    between atoms: C_14  and  C_19
REMARK    2  A    between atoms: C_16  and  O_29
REMARK    3  A    between atoms: N_18  and  C_21
REMARK    4  A    between atoms: C_21  and  C_23
REMARK                            x       y       z     vdW  Elec       q    Type
REMARK                         _______ _______ _______ _____ _____    ______ ____
ROOT
ATOM      1  S   UNL     1     -34.707  25.772   2.736  0.00  0.00    +0.060 S 
ATOM      2  O   UNL     1     -34.646  27.214   2.599  0.00  0.00    -0.154 OA
ATOM      3  O   UNL     1     -34.385  24.908   1.617  0.00  0.00    -0.154 OA
ATOM      4  O   UNL     1     -40.306  23.236   2.077  0.00  0.00    -0.271 OA
ATOM      5  N   UNL     1     -36.233  25.321   3.417  0.00  0.00    -0.155 N 
ATOM      6  N   UNL     1     -38.338  24.313   2.743  0.00  0.00    -0.217 N 
ATOM      7  N   UNL     1     -36.303  23.084   2.804  0.00  0.00    -0.368 NA
ATOM      8  C   UNL     1     -34.126  25.949   5.409  0.00  0.00    +0.029 C 
ATOM      9  C   UNL     1     -33.673  25.298   4.108  0.00  0.00    +0.173 C 
ATOM     10  C   UNL     1     -35.569  25.589   5.773  0.00  0.00    +0.025 C 
ATOM     11  C   UNL     1     -36.566  26.009   4.697  0.00  0.00    +0.119 C 
ATOM     12  C   UNL     1     -36.963  24.187   2.973  0.00  0.00    +0.266 C 
ATOM     13  C   UNL     1     -39.099  23.225   2.306  0.00  0.00    +0.266 C 
ATOM     14  C   UNL     1     -37.009  21.993   2.377  0.00  0.00    +0.201 C 
ATOM     15  C   UNL     1     -39.013  25.591   2.956  0.00  0.00    +0.124 C 
ATOM     16  C   UNL     1     -38.324  21.968   2.119  0.00  0.00    +0.245 C 
ENDROOT
BRANCH  14  19
ATOM     17  O   UNL     1     -35.605  20.266   3.131  0.00  0.00    -0.268 OA
ATOM     18  N   UNL     1     -36.311  20.261   0.908  0.00  0.00    -0.295 N 
ATOM     19  C   UNL     1     -36.235  20.756   2.196  0.00  0.00    +0.275 C 
ATOM     20  H   UNL     1     -36.853  20.751   0.248  0.00  0.00    +0.150 HD
BRANCH  18  21
ATOM     21  C   UNL     1     -35.635  19.056   0.482  0.00  0.00    +0.117 C 
BRANCH  21  23
ATOM     22  F   UNL     1     -30.060  19.774   0.163  0.00  0.00    -0.204 F 
ATOM     23  C   UNL     1     -34.148  19.247   0.397  0.00  0.00    -0.002 C 
ATOM     24  C   UNL     1     -33.291  18.340   1.021  0.00  0.00    -0.000 C 
ATOM     25  C   UNL     1     -33.624  20.332  -0.305  0.00  0.00    -0.000 C 
ATOM     26  C   UNL     1     -31.910  18.518   0.942  0.00  0.00    +0.029 C 
ATOM     27  C   UNL     1     -32.243  20.510  -0.384  0.00  0.00    +0.029 C 
ATOM     28  C   UNL     1     -31.386  19.603   0.240  0.00  0.00    +0.140 C 
ENDBRANCH  21  23
ENDBRANCH  18  21
ENDBRANCH  14  19
BRANCH  16  29
ATOM     29  O   UNL     1     -38.996  20.846   1.691  0.00  0.00    -0.370 OA
ATOM     30  H   UNL     1     -39.151  20.137   2.284  0.00  0.00    +0.211 HD
ENDBRANCH  16  29
TORSDOF 4
ENDMDL
MODEL 3
REMARK VINA RESULT:      -7.0      5.052      7.013
REMARK  Name = 54682040
REMARK  4 active torsions:
REMARK  status: ('A' for Active; 'I' for Inactive)
REMARK    1  A    between atoms: C_14  and  C_19
REMARK    2  A    between atoms: C_16  and  O_29
REMARK    3  A    between atoms: N_18  and  C_21
REMARK    4  A    between atoms: C_21  and  C_23
REMARK                            x       y       z     vdW  Elec       q    Type
REMARK                         _______ _______ _______ _____ _____    ______ ____
ROOT
ATOM      1  S   UNL     1     -34.638  30.878   2.580  0.00  0.00    +0.060 S 
ATOM      2  O   UNL     1     -34.708  32.116   1.828  0.00  0.00    -0.154 OA
ATOM      3  O   UNL     1     -34.985  30.847   3.987  0.00  0.00    -0.154 OA
ATOM      4  O   UNL     1     -29.048  29.335   4.722  0.00  0.00    -0.271 OA
ATOM      5  N   UNL     1     -33.094  30.137   2.330  0.00  0.00    -0.155 N 
ATOM      6  N   UNL     1     -31.002  29.767   3.509  0.00  0.00    -0.217 N 
ATOM      7  N   UNL     1     -33.031  28.708   4.157  0.00  0.00    -0.368 NA
ATOM      8  C   UNL     1     -35.153  29.416   0.320  0.00  0.00    +0.029 C 
ATOM      9  C   UNL     1     -35.636  29.661   1.744  0.00  0.00    +0.173 C 
ATOM     10  C   UNL     1     -33.700  28.935   0.267  0.00  0.00    +0.025 C 
ATOM     11  C   UNL     1     -32.732  29.932   0.899  0.00  0.00    +0.119 C 
ATOM     12  C   UNL     1     -32.371  29.505   3.375  0.00  0.00    +0.266 C 
ATOM     13  C   UNL     1     -30.249  29.168   4.522  0.00  0.00    +0.266 C 
ATOM     14  C   UNL     1     -32.332  28.100   5.163  0.00  0.00    +0.201 C 
ATOM     15  C   UNL     1     -30.328  30.678   2.588  0.00  0.00    +0.124 C 
ATOM     16  C   UNL     1     -31.024  28.258   5.409  0.00  0.00    +0.245 C 
ENDROOT
BRANCH  14  19
ATOM     17  O   UNL     1     -32.830  27.090   7.225  0.00  0.00    -0.268 OA
ATOM     18  N   UNL     1     -34.118  26.545   5.359  0.00  0.00    -0.295 N 
ATOM     19  C   UNL     1     -33.106  27.202   6.033  0.00  0.00    +0.275 C 
ATOM     20  H   UNL     1     -34.235  26.725   4.398  0.00  0.00    +0.150 HD
BRANCH  18  21
ATOM     21  C   UNL     1     -35.016  25.609   5.997  0.00  0.00    +0.117 C 
BRANCH  21  23
ATOM     22  F   UNL     1     -35.451  20.802   3.098  0.00  0.00    -0.204 F 
ATOM     23  C   UNL     1     -35.132  24.327   5.225  0.00  0.00    -0.002 C 
ATOM     24  C   UNL     1     -35.122  24.350   3.829  0.00  0.00    -0.000 C 
ATOM     25  C   UNL     1     -35.251  23.114   5.900  0.00  0.00    -0.000 C 
ATOM     26  C   UNL     1     -35.230  23.159   3.111  0.00  0.00    +0.029 C 
ATOM     27  C   UNL     1     -35.359  21.923   5.182  0.00  0.00    +0.029 C 
ATOM     28  C   UNL     1     -35.348  21.946   3.788  0.00  0.00    +0.140 C 
ENDBRANCH  21  23
ENDBRANCH  18  21
ENDBRANCH  14  19
BRANCH  16  29
ATOM     29  O   UNL     1     -30.358  27.625   6.434  0.00  0.00    -0.370 OA
ATOM     30  H   UNL     1     -30.806  27.428   7.234  0.00  0.00    +0.211 HD
ENDBRANCH  16  29
TORSDOF 4
ENDMDL
MODEL 4
REMARK VINA RESULT:      -6.7      5.025      7.103
REMARK  Name = 54682040
REMARK  4 active torsions:
REMARK  status: ('A' for Active; 'I' for Inactive)
REMARK    1  A    between atoms: C_14  and  C_19
REMARK    2  A    between atoms: C_16  and  O_29
REMARK    3  A    between atoms: N_18  and  C_21
REMARK    4  A    between atoms: C_21  and  C_23
REMARK                            x       y       z     vdW  Elec       q    Type
REMARK                         _______ _______ _______ _____ _____    ______ ____
ROOT
ATOM      1  S   UNL     1     -33.862  32.131   2.123  0.00  0.00    +0.060 S 
ATOM      2  O   UNL     1     -33.675  33.564   2.238  0.00  0.00    -0.154 OA
ATOM      3  O   UNL     1     -35.067  31.500   2.623  0.00  0.00    -0.154 OA
ATOM      4  O   UNL     1     -31.175  28.698   6.505  0.00  0.00    -0.271 OA
ATOM      5  N   UNL     1     -32.464  31.315   2.734  0.00  0.00    -0.155 N 
ATOM      6  N   UNL     1     -31.768  30.028   4.673  0.00  0.00    -0.217 N 
ATOM      7  N   UNL     1     -33.357  29.206   3.105  0.00  0.00    -0.368 NA
ATOM      8  C   UNL     1     -32.308  32.059  -0.134  0.00  0.00    +0.029 C 
ATOM      9  C   UNL     1     -33.682  31.683   0.407  0.00  0.00    +0.173 C 
ATOM     10  C   UNL     1     -31.169  31.389   0.640  0.00  0.00    +0.025 C 
ATOM     11  C   UNL     1     -31.177  31.753   2.122  0.00  0.00    +0.119 C 
ATOM     12  C   UNL     1     -32.548  30.133   3.516  0.00  0.00    +0.266 C 
ATOM     13  C   UNL     1     -31.818  28.884   5.474  0.00  0.00    +0.266 C 
ATOM     14  C   UNL     1     -33.436  28.068   3.860  0.00  0.00    +0.201 C 
ATOM     15  C   UNL     1     -30.880  31.117   5.071  0.00  0.00    +0.124 C 
ATOM     16  C   UNL     1     -32.751  27.831   4.987  0.00  0.00    +0.245 C 
ENDROOT
BRANCH  14  19
ATOM     17  O   UNL     1     -34.148  26.456   2.307  0.00  0.00    -0.268 OA
ATOM     18  N   UNL     1     -35.429  26.824   4.220  0.00  0.00    -0.295 N 
ATOM     19  C   UNL     1     -34.359  27.034   3.370  0.00  0.00    +0.275 C 
ATOM     20  H   UNL     1     -35.482  27.357   5.047  0.00  0.00    +0.150 HD
BRANCH  18  21
ATOM     21  C   UNL     1     -36.472  25.859   3.956  0.00  0.00    +0.117 C 
BRANCH  21  23
ATOM     22  F   UNL     1     -34.903  20.634   5.347  0.00  0.00    -0.204 F 
ATOM     23  C   UNL     1     -36.054  24.465   4.327  0.00  0.00    -0.002 C 
ATOM     24  C   UNL     1     -35.581  24.198   5.612  0.00  0.00    -0.000 C 
ATOM     25  C   UNL     1     -36.137  23.439   3.387  0.00  0.00    -0.000 C 
ATOM     26  C   UNL     1     -35.192  22.903   5.956  0.00  0.00    +0.029 C 
ATOM     27  C   UNL     1     -35.748  22.145   3.731  0.00  0.00    +0.029 C 
ATOM     28  C   UNL     1     -35.276  21.877   5.016  0.00  0.00    +0.140 C 
ENDBRANCH  21  23
ENDBRANCH  18  21
ENDBRANCH  14  19
BRANCH  16  29
ATOM     29  O   UNL     1     -32.860  26.670   5.717  0.00  0.00    -0.370 OA
ATOM     30  H   UNL     1     -33.164  25.884   5.306  0.00  0.00    +0.211 HD
ENDBRANCH  16  29
TORSDOF 4
ENDMDL
MODEL 5
REMARK VINA RESULT:      -6.7      3.512      6.960
REMARK  Name = 54682040
REMARK  4 active torsions:
REMARK  status: ('A' for Active; 'I' for Inactive)
REMARK    1  A    between atoms: C_14  and  C_19
REMARK    2  A    between atoms: C_16  and  O_29
REMARK    3  A    between atoms: N_18  and  C_21
REMARK    4  A    between atoms: C_21  and  C_23
REMARK                            x       y       z     vdW  Elec       q    Type
REMARK                         _______ _______ _______ _____ _____    ______ ____
ROOT
ATOM      1  S   UNL     1     -35.450  20.135   0.969  0.00  0.00    +0.060 S 
ATOM      2  O   UNL     1     -35.738  19.154  -0.060  0.00  0.00    -0.154 OA
ATOM      3  O   UNL     1     -35.781  19.873   2.355  0.00  0.00    -0.154 OA
ATOM      4  O   UNL     1     -39.620  24.649   1.635  0.00  0.00    -0.271 OA
ATOM      5  N   UNL     1     -36.074  21.676   0.488  0.00  0.00    -0.155 N 
ATOM      6  N   UNL     1     -37.906  23.181   1.016  0.00  0.00    -0.217 N 
ATOM      7  N   UNL     1     -36.138  22.746   2.545  0.00  0.00    -0.368 NA
ATOM      8  C   UNL     1     -33.327  21.098  -0.474  0.00  0.00    +0.029 C 
ATOM      9  C   UNL     1     -33.714  20.533   0.887  0.00  0.00    +0.173 C 
ATOM     10  C   UNL     1     -34.109  22.367  -0.827  0.00  0.00    +0.025 C 
ATOM     11  C   UNL     1     -35.617  22.136  -0.855  0.00  0.00    +0.119 C 
ATOM     12  C   UNL     1     -36.711  22.561   1.396  0.00  0.00    +0.266 C 
ATOM     13  C   UNL     1     -38.569  24.059   1.876  0.00  0.00    +0.266 C 
ATOM     14  C   UNL     1     -36.753  23.600   3.419  0.00  0.00    +0.201 C 
ATOM     15  C   UNL     1     -38.491  22.922  -0.298  0.00  0.00    +0.124 C 
ATOM     16  C   UNL     1     -37.897  24.259   3.189  0.00  0.00    +0.245 C 
ENDROOT
BRANCH  14  19
ATOM     17  O   UNL     1     -36.098  22.908   5.566  0.00  0.00    -0.268 OA
ATOM     18  N   UNL     1     -35.471  25.027   4.821  0.00  0.00    -0.295 N 
ATOM     19  C   UNL     1     -36.081  23.791   4.712  0.00  0.00    +0.275 C 
ATOM     20  H   UNL     1     -35.532  25.648   4.060  0.00  0.00    +0.150 HD
BRANCH  18  21
ATOM     21  C   UNL     1     -34.746  25.450   5.999  0.00  0.00    +0.117 C 
BRANCH  21  23
ATOM     22  F   UNL     1     -30.895  29.379   4.800  0.00  0.00    -0.204 F 
ATOM     23  C   UNL     1     -33.719  26.497   5.679  0.00  0.00    -0.002 C 
ATOM     24  C   UNL     1     -32.935  27.040   6.697  0.00  0.00    -0.000 C 
ATOM     25  C   UNL     1     -33.550  26.930   4.364  0.00  0.00    -0.000 C 
ATOM     26  C   UNL     1     -31.981  28.013   6.400  0.00  0.00    +0.029 C 
ATOM     27  C   UNL     1     -32.596  27.903   4.067  0.00  0.00    +0.029 C 
ATOM     28  C   UNL     1     -31.812  28.444   5.085  0.00  0.00    +0.140 C 
ENDBRANCH  21  23
ENDBRANCH  18  21
ENDBRANCH  14  19
BRANCH  16  29
ATOM     29  O   UNL     1     -38.482  25.111   4.098  0.00  0.00    -0.370 OA
ATOM     30  H   UNL     1     -39.003  24.766   4.797  0.00  0.00    +0.211 HD
ENDBRANCH  16  29
TORSDOF 4
ENDMDL
MODEL 6
REMARK VINA RESULT:      -6.7      3.779      6.251
REMARK  Name = 54682040
REMARK  4 active torsions:
REMARK  status: ('A' for Active; 'I' for Inactive)
REMARK    1  A    between atoms: C_14  and  C_19
REMARK    2  A    between atoms: C_16  and  O_29
REMARK    3  A    between atoms: N_18  and  C_21
REMARK    4  A    between atoms: C_21  and  C_23
REMARK                            x       y       z     vdW  Elec       q    Type
REMARK                         _______ _______ _______ _____ _____    ______ ____
ROOT
ATOM      1  S   UNL     1     -37.868  25.557   0.689  0.00  0.00    +0.060 S 
ATOM      2  O   UNL     1     -38.111  25.922  -0.693  0.00  0.00    -0.154 OA
ATOM      3  O   UNL     1     -36.608  25.882   1.329  0.00  0.00    -0.154 OA
ATOM      4  O   UNL     1     -35.975  19.753   1.657  0.00  0.00    -0.271 OA
ATOM      5  N   UNL     1     -38.240  23.883   0.919  0.00  0.00    -0.155 N 
ATOM      6  N   UNL     1     -37.105  21.759   1.239  0.00  0.00    -0.217 N 
ATOM      7  N   UNL     1     -37.074  23.477   2.883  0.00  0.00    -0.368 NA
ATOM      8  C   UNL     1     -40.545  25.721   1.256  0.00  0.00    +0.029 C 
ATOM      9  C   UNL     1     -39.179  26.243   1.684  0.00  0.00    +0.173 C 
ATOM     10  C   UNL     1     -40.645  24.195   1.347  0.00  0.00    +0.025 C 
ATOM     11  C   UNL     1     -39.608  23.488   0.479  0.00  0.00    +0.119 C 
ATOM     12  C   UNL     1     -37.445  23.027   1.725  0.00  0.00    +0.266 C 
ATOM     13  C   UNL     1     -36.325  20.881   1.995  0.00  0.00    +0.266 C 
ATOM     14  C   UNL     1     -36.308  22.649   3.658  0.00  0.00    +0.201 C 
ATOM     15  C   UNL     1     -37.562  21.323  -0.079  0.00  0.00    +0.124 C 
ATOM     16  C   UNL     1     -35.909  21.415   3.321  0.00  0.00    +0.245 C 
ENDROOT
BRANCH  14  19
ATOM     17  O   UNL     1     -36.110  22.549   5.997  0.00  0.00    -0.268 OA
ATOM     18  N   UNL     1     -35.302  24.426   4.873  0.00  0.00    -0.295 N 
ATOM     19  C   UNL     1     -35.904  23.185   4.966  0.00  0.00    +0.275 C 
ATOM     20  H   UNL     1     -35.196  24.830   3.982  0.00  0.00    +0.150 HD
BRANCH  18  21
ATOM     21  C   UNL     1     -34.818  25.158   6.022  0.00  0.00    +0.117 C 
BRANCH  21  23
ATOM     22  F   UNL     1     -31.325  29.320   4.548  0.00  0.00    -0.204 F 
ATOM     23  C   UNL     1     -33.887  26.268   5.629  0.00  0.00    -0.002 C 
ATOM     24  C   UNL     1     -33.074  26.870   6.590  0.00  0.00    -0.000 C 
ATOM     25  C   UNL     1     -33.834  26.697   4.303  0.00  0.00    -0.000 C 
ATOM     26  C   UNL     1     -32.209  27.901   6.225  0.00  0.00    +0.029 C 
ATOM     27  C   UNL     1     -32.968  27.729   3.938  0.00  0.00    +0.029 C 
ATOM     28  C   UNL     1     -32.156  28.330   4.899  0.00  0.00    +0.140 C 
ENDBRANCH  21  23
ENDBRANCH  18  21
ENDBRANCH  14  19
BRANCH  16  29
ATOM     29  O   UNL     1     -35.138  20.614   4.133  0.00  0.00    -0.370 OA
ATOM     30  H   UNL     1     -34.661  20.990   4.847  0.00  0.00    +0.211 HD
ENDBRANCH  16  29
TORSDOF 4
ENDMDL
MODEL 7
REMARK VINA RESULT:      -6.6      2.020      2.732
REMARK  Name = 54682040
REMARK  4 active torsions:
REMARK  status: ('A' for Active; 'I' for Inactive)
REMARK    1  A    between atoms: C_14  and  C_19
REMARK    2  A    between atoms: C_16  and  O_29
REMARK    3  A    between atoms: N_18  and  C_21
REMARK    4  A    between atoms: C_21  and  C_23
REMARK                            x       y       z     vdW  Elec       q    Type
REMARK                         _______ _______ _______ _____ _____    ______ ____
ROOT
ATOM      1  S   UNL     1     -40.179  23.119   1.163  0.00  0.00    +0.060 S 
ATOM      2  O   UNL     1     -41.429  23.849   1.096  0.00  0.00    -0.154 OA
ATOM      3  O   UNL     1     -40.060  21.931   1.985  0.00  0.00    -0.154 OA
ATOM      4  O   UNL     1     -35.971  25.332   5.113  0.00  0.00    -0.271 OA
ATOM      5  N   UNL     1     -38.886  24.216   1.510  0.00  0.00    -0.155 N 
ATOM      6  N   UNL     1     -37.428  24.841   3.349  0.00  0.00    -0.217 N 
ATOM      7  N   UNL     1     -37.284  22.724   2.276  0.00  0.00    -0.368 NA
ATOM      8  C   UNL     1     -39.516  23.917  -1.374  0.00  0.00    +0.029 C 
ATOM      9  C   UNL     1     -39.698  22.684  -0.498  0.00  0.00    +0.173 C 
ATOM     10  C   UNL     1     -38.459  24.878  -0.824  0.00  0.00    +0.025 C 
ATOM     11  C   UNL     1     -38.795  25.377   0.579  0.00  0.00    +0.119 C 
ATOM     12  C   UNL     1     -37.828  23.895   2.399  0.00  0.00    +0.266 C 
ATOM     13  C   UNL     1     -36.391  24.570   4.246  0.00  0.00    +0.266 C 
ATOM     14  C   UNL     1     -36.263  22.417   3.134  0.00  0.00    +0.201 C 
ATOM     15  C   UNL     1     -38.091  26.141   3.427  0.00  0.00    +0.124 C 
ATOM     16  C   UNL     1     -35.779  23.222   4.089  0.00  0.00    +0.245 C 
ENDROOT
BRANCH  14  19
ATOM     17  O   UNL     1     -35.178  20.492   3.931  0.00  0.00    -0.268 OA
ATOM     18  N   UNL     1     -35.725  20.626   1.668  0.00  0.00    -0.295 N 
ATOM     19  C   UNL     1     -35.665  21.084   2.971  0.00  0.00    +0.275 C 
ATOM     20  H   UNL     1     -36.144  21.201   0.987  0.00  0.00    +0.150 HD
BRANCH  18  21
ATOM     21  C   UNL     1     -35.202  19.342   1.255  0.00  0.00    +0.117 C 
BRANCH  21  23
ATOM     22  F   UNL     1     -29.757  19.639  -0.145  0.00  0.00    -0.204 F 
ATOM     23  C   UNL     1     -33.751  19.422   0.881  0.00  0.00    -0.002 C 
ATOM     24  C   UNL     1     -32.890  18.370   1.198  0.00  0.00    -0.000 C 
ATOM     25  C   UNL     1     -33.261  20.547   0.219  0.00  0.00    -0.000 C 
ATOM     26  C   UNL     1     -31.541  18.443   0.851  0.00  0.00    +0.029 C 
ATOM     27  C   UNL     1     -31.912  20.620  -0.127  0.00  0.00    +0.029 C 
ATOM     28  C   UNL     1     -31.053  19.568   0.189  0.00  0.00    +0.140 C 
ENDBRANCH  21  23
ENDBRANCH  18  21
ENDBRANCH  14  19
BRANCH  16  29
ATOM     29  O   UNL     1     -34.749  22.873   4.932  0.00  0.00    -0.370 OA
ATOM     30  H   UNL     1     -34.876  22.205   5.577  0.00  0.00    +0.211 HD
ENDBRANCH  16  29
TORSDOF 4
ENDMDL
MODEL 8
REMARK VINA RESULT:      -6.6      5.591      7.926
REMARK  Name = 54682040
REMARK  4 active torsions:
REMARK  status: ('A' for Active; 'I' for Inactive)
REMARK    1  A    between atoms: C_14  and  C_19
REMARK    2  A    between atoms: C_16  and  O_29
REMARK    3  A    between atoms: N_18  and  C_21
REMARK    4  A    between atoms: C_21  and  C_23
REMARK                            x       y       z     vdW  Elec       q    Type
REMARK                         _______ _______ _______ _____ _____    ______ ____
ROOT
ATOM      1  S   UNL     1     -28.577  27.083   2.744  0.00  0.00    +0.060 S 
ATOM      2  O   UNL     1     -27.562  27.150   1.710  0.00  0.00    -0.154 OA
ATOM      3  O   UNL     1     -29.505  25.971   2.798  0.00  0.00    -0.154 OA
ATOM      4  O   UNL     1     -33.732  30.324   1.678  0.00  0.00    -0.271 OA
ATOM      5  N   UNL     1     -29.439  28.582   2.805  0.00  0.00    -0.155 N 
ATOM      6  N   UNL     1     -31.599  29.506   2.187  0.00  0.00    -0.217 N 
ATOM      7  N   UNL     1     -31.353  27.902   3.926  0.00  0.00    -0.368 NA
ATOM      8  C   UNL     1     -26.985  28.496   4.471  0.00  0.00    +0.029 C 
ATOM      9  C   UNL     1     -27.767  27.197   4.328  0.00  0.00    +0.173 C 
ATOM     10  C   UNL     1     -27.872  29.735   4.316  0.00  0.00    +0.025 C 
ATOM     11  C   UNL     1     -28.574  29.786   2.962  0.00  0.00    +0.119 C 
ATOM     12  C   UNL     1     -30.844  28.650   2.997  0.00  0.00    +0.266 C 
ATOM     13  C   UNL     1     -32.984  29.605   2.338  0.00  0.00    +0.266 C 
ATOM     14  C   UNL     1     -32.707  27.969   4.109  0.00  0.00    +0.201 C 
ATOM     15  C   UNL     1     -30.952  30.318   1.159  0.00  0.00    +0.124 C 
ATOM     16  C   UNL     1     -33.551  28.741   3.409  0.00  0.00    +0.245 C 
ENDROOT
BRANCH  14  19
ATOM     17  O   UNL     1     -32.826  27.181   6.319  0.00  0.00    -0.268 OA
ATOM     18  N   UNL     1     -34.256  26.272   4.716  0.00  0.00    -0.295 N 
ATOM     19  C   UNL     1     -33.256  27.112   5.170  0.00  0.00    +0.275 C 
ATOM     20  H   UNL     1     -34.508  26.315   3.765  0.00  0.00    +0.150 HD
BRANCH  18  21
ATOM     21  C   UNL     1     -34.949  25.334   5.570  0.00  0.00    +0.117 C 
BRANCH  21  23
ATOM     22  F   UNL     1     -35.540  20.299   3.123  0.00  0.00    -0.204 F 
ATOM     23  C   UNL     1     -35.106  23.992   4.918  0.00  0.00    -0.002 C 
ATOM     24  C   UNL     1     -35.265  23.902   3.534  0.00  0.00    -0.000 C 
ATOM     25  C   UNL     1     -35.095  22.833   5.694  0.00  0.00    -0.000 C 
ATOM     26  C   UNL     1     -35.412  22.654   2.928  0.00  0.00    +0.029 C 
ATOM     27  C   UNL     1     -35.242  21.586   5.088  0.00  0.00    +0.029 C 
ATOM     28  C   UNL     1     -35.400  21.497   3.705  0.00  0.00    +0.140 C 
ENDBRANCH  21  23
ENDBRANCH  18  21
ENDBRANCH  14  19
BRANCH  16  29
ATOM     29  O   UNL     1     -34.909  28.778   3.627  0.00  0.00    -0.370 OA
ATOM     30  H   UNL     1     -35.487  29.049   2.941  0.00  0.00    +0.211 HD
ENDBRANCH  16  29
TORSDOF 4
ENDMDL
MODEL 9
REMARK VINA RESULT:      -6.6      4.725      6.878
REMARK  Name = 54682040
REMARK  4 active torsions:
REMARK  status: ('A' for Active; 'I' for Inactive)
REMARK    1  A    between atoms: C_14  and  C_19
REMARK    2  A    between atoms: C_16  and  O_29
REMARK    3  A    between atoms: N_18  and  C_21
REMARK    4  A    between atoms: C_21  and  C_23
REMARK                            x       y       z     vdW  Elec       q    Type
REMARK                         _______ _______ _______ _____ _____    ______ ____
ROOT
ATOM      1  S   UNL     1     -33.311  28.320   0.651  0.00  0.00    +0.060 S 
ATOM      2  O   UNL     1     -33.185  29.144  -0.535  0.00  0.00    -0.154 OA
ATOM      3  O   UNL     1     -34.462  28.449   1.522  0.00  0.00    -0.154 OA
ATOM      4  O   UNL     1     -30.274  30.310   5.653  0.00  0.00    -0.271 OA
ATOM      5  N   UNL     1     -31.850  28.410   1.575  0.00  0.00    -0.155 N 
ATOM      6  N   UNL     1     -31.010  29.416   3.620  0.00  0.00    -0.217 N 
ATOM      7  N   UNL     1     -32.628  27.674   3.633  0.00  0.00    -0.368 NA
ATOM      8  C   UNL     1     -31.858  26.315  -0.525  0.00  0.00    +0.029 C 
ATOM      9  C   UNL     1     -33.187  26.611   0.157  0.00  0.00    +0.173 C 
ATOM     10  C   UNL     1     -30.656  26.624   0.371  0.00  0.00    +0.025 C 
ATOM     11  C   UNL     1     -30.613  28.085   0.808  0.00  0.00    +0.119 C 
ATOM     12  C   UNL     1     -31.845  28.486   2.992  0.00  0.00    +0.266 C 
ATOM     13  C   UNL     1     -30.971  29.527   5.012  0.00  0.00    +0.266 C 
ATOM     14  C   UNL     1     -32.621  27.748   4.999  0.00  0.00    +0.201 C 
ATOM     15  C   UNL     1     -30.155  30.299   2.829  0.00  0.00    +0.124 C 
ATOM     16  C   UNL     1     -31.875  28.588   5.730  0.00  0.00    +0.245 C 
ENDROOT
BRANCH  14  19
ATOM     17  O   UNL     1     -33.157  26.253   6.730  0.00  0.00    -0.268 OA
ATOM     18  N   UNL     1     -34.738  26.671   5.067  0.00  0.00    -0.295 N 
ATOM     19  C   UNL     1     -33.516  26.815   5.698  0.00  0.00    +0.275 C 
ATOM     20  H   UNL     1     -34.902  27.181   4.241  0.00  0.00    +0.150 HD
BRANCH  18  21
ATOM     21  C   UNL     1     -35.787  25.808   5.561  0.00  0.00    +0.117 C 
BRANCH  21  23
ATOM     22  F   UNL     1     -35.418  20.610   3.430  0.00  0.00    -0.204 F 
ATOM     23  C   UNL     1     -35.688  24.422   4.993  0.00  0.00    -0.002 C 
ATOM     24  C   UNL     1     -35.987  24.196   3.649  0.00  0.00    -0.000 C 
ATOM     25  C   UNL     1     -35.299  23.360   5.808  0.00  0.00    -0.000 C 
ATOM     26  C   UNL     1     -35.896  22.908   3.121  0.00  0.00    +0.029 C 
ATOM     27  C   UNL     1     -35.208  22.072   5.280  0.00  0.00    +0.029 C 
ATOM     28  C   UNL     1     -35.506  21.847   3.937  0.00  0.00    +0.140 C 
ENDBRANCH  21  23
ENDBRANCH  18  21
ENDBRANCH  14  19
BRANCH  16  29
ATOM     29  O   UNL     1     -31.898  28.629   7.105  0.00  0.00    -0.370 OA
ATOM     30  H   UNL     1     -32.164  27.873   7.593  0.00  0.00    +0.211 HD
ENDBRANCH  16  29
TORSDOF 4
ENDMDL
