MODEL 1
REMARK VINA RESULT:      -6.0      0.000      0.000
REMARK  Name = 5281736
REMARK  8 active torsions:
REMARK  status: ('A' for Active; 'I' for Inactive)
REMARK    1  A    between atoms: C_3  and  O_10
REMARK    2  A    between atoms: C_6  and  C_17
REMARK    3  A    between atoms: O_10  and  C_12
REMARK    4  A    between atoms: C_12  and  C_13
REMARK    5  A    between atoms: C_17  and  O_18
REMARK    6  A    between atoms: O_18  and  C_20
REMARK    7  A    between atoms: C_20  and  C_23
REMARK    8  A    between atoms: C_23  and  O_29
REMARK                            x       y       z     vdW  Elec       q    Type
REMARK                         _______ _______ _______ _____ _____    ______ ____
ROOT
ATOM      1  N   UNL     1     -35.795  21.720   4.215  0.00  0.00    +0.396 N 
ATOM      2  C   UNL     1     -36.315  23.118   4.102  0.00  0.00    +0.006 C 
ATOM      3  C   UNL     1     -35.832  23.853   5.357  0.00  0.00    +0.152 C 
ATOM      4  C   UNL     1     -35.491  22.726   6.320  0.00  0.00    +0.019 C 
ATOM      5  C   UNL     1     -34.925  21.659   5.395  0.00  0.00    -0.073 C 
ATOM      6  C   UNL     1     -35.875  23.619   2.764  0.00  0.00    -0.023 C 
ATOM      7  C   UNL     1     -35.086  21.430   2.952  0.00  0.00    -0.050 C 
ATOM      8  C   UNL     1     -35.185  22.670   2.125  0.00  0.00    -0.056 C 
ATOM      9  H   UNL     1     -36.525  21.020   4.342  0.00  0.00    -0.079 HD
ENDROOT
BRANCH   3  10
ATOM     10  O   UNL     1     -34.674  24.647   5.125  0.00  0.00    -0.451 OA
BRANCH  10  12
ATOM     11  O   UNL     1     -35.891  26.592   5.313  0.00  0.00    -0.245 OA
ATOM     12  C   UNL     1     -34.826  25.992   5.303  0.00  0.00    +0.337 C 
BRANCH  12  13
ATOM     13  C   UNL     1     -33.487  26.631   5.482  0.00  0.00    +0.049 C 
ATOM     14  C   UNL     1     -32.960  26.803   6.876  0.00  0.00    +0.037 C 
ATOM     15  C   UNL     1     -32.873  27.032   4.354  0.00  0.00    -0.024 C 
ATOM     16  C   UNL     1     -33.383  26.908   2.952  0.00  0.00    +0.031 C 
ENDBRANCH  12  13
ENDBRANCH  10  12
ENDBRANCH   3  10
BRANCH   6  17
ATOM     17  C   UNL     1     -36.231  24.969   2.258  0.00  0.00    +0.229 C 
BRANCH  17  18
ATOM     18  O   UNL     1     -37.562  25.297   2.627  0.00  0.00    -0.442 OA
BRANCH  18  20
ATOM     19  O   UNL     1     -38.406  25.201   0.479  0.00  0.00    -0.247 OA
ATOM     20  C   UNL     1     -38.522  25.042   1.686  0.00  0.00    +0.346 C 
BRANCH  20  23
ATOM     21  O   UNL     1     -41.487  24.562   0.759  0.00  0.00    -0.449 OA
ATOM     22  O   UNL     1     -41.281  22.436  -0.066  0.00  0.00    -0.250 OA
ATOM     23  C   UNL     1     -39.770  24.527   2.353  0.00  0.00    +0.224 C 
ATOM     24  C   UNL     1     -40.096  23.088   1.963  0.00  0.00    +0.137 C 
ATOM     25  C   UNL     1     -41.044  25.250   1.938  0.00  0.00    +0.204 C 
ATOM     26  C   UNL     1     -41.000  23.282   0.767  0.00  0.00    +0.319 C 
ATOM     27  C   UNL     1     -38.905  22.192   1.660  0.00  0.00    +0.015 C 
ATOM     28  C   UNL     1     -40.913  26.738   1.650  0.00  0.00    +0.051 C 
BRANCH  23  29
ATOM     29  O   UNL     1     -39.566  24.627   3.750  0.00  0.00    -0.373 OA
ATOM     30  H   UNL     1     -40.363  24.328   4.216  0.00  0.00    +0.211 HD
ENDBRANCH  23  29
ENDBRANCH  20  23
ENDBRANCH  18  20
ENDBRANCH  17  18
ENDBRANCH   6  17
TORSDOF 8
ENDMDL
MODEL 2
REMARK VINA RESULT:      -5.9      3.754      5.607
REMARK  Name = 5281736
REMARK  8 active torsions:
REMARK  status: ('A' for Active; 'I' for Inactive)
REMARK    1  A    between atoms: C_3  and  O_10
REMARK    2  A    between atoms: C_6  and  C_17
REMARK    3  A    between atoms: O_10  and  C_12
REMARK    4  A    between atoms: C_12  and  C_13
REMARK    5  A    between atoms: C_17  and  O_18
REMARK    6  A    between atoms: O_18  and  C_20
REMARK    7  A    between atoms: C_20  and  C_23
REMARK    8  A    between atoms: C_23  and  O_29
REMARK                            x       y       z     vdW  Elec       q    Type
REMARK                         _______ _______ _______ _____ _____    ______ ____
ROOT
ATOM      1  N   UNL     1     -39.160  23.939   1.751  0.00  0.00    +0.396 N 
ATOM      2  C   UNL     1     -37.683  23.924   1.986  0.00  0.00    +0.006 C 
ATOM      3  C   UNL     1     -37.415  24.981   3.064  0.00  0.00    +0.152 C 
ATOM      4  C   UNL     1     -38.660  25.853   3.024  0.00  0.00    +0.019 C 
ATOM      5  C   UNL     1     -39.762  24.845   2.735  0.00  0.00    -0.073 C 
ATOM      6  C   UNL     1     -37.321  22.503   2.271  0.00  0.00    -0.023 C 
ATOM      7  C   UNL     1     -39.622  22.542   1.885  0.00  0.00    -0.050 C 
ATOM      8  C   UNL     1     -38.411  21.733   2.215  0.00  0.00    -0.056 C 
ATOM      9  H   UNL     1     -39.425  24.278   0.827  0.00  0.00    -0.079 HD
ENDROOT
BRANCH   3  10
ATOM     10  O   UNL     1     -37.266  24.423   4.364  0.00  0.00    -0.451 OA
BRANCH  10  12
ATOM     11  O   UNL     1     -36.340  26.085   5.660  0.00  0.00    -0.245 OA
ATOM     12  C   UNL     1     -36.293  24.978   5.145  0.00  0.00    +0.337 C 
BRANCH  12  13
ATOM     13  C   UNL     1     -35.148  24.027   5.274  0.00  0.00    +0.049 C 
ATOM     14  C   UNL     1     -35.333  22.799   6.116  0.00  0.00    +0.037 C 
ATOM     15  C   UNL     1     -34.017  24.379   4.635  0.00  0.00    -0.024 C 
ATOM     16  C   UNL     1     -33.786  25.610   3.816  0.00  0.00    +0.031 C 
ENDBRANCH  12  13
ENDBRANCH  10  12
ENDBRANCH   3  10
BRANCH   6  17
ATOM     17  C   UNL     1     -35.923  22.067   2.523  0.00  0.00    +0.229 C 
BRANCH  17  18
ATOM     18  O   UNL     1     -35.755  20.709   2.143  0.00  0.00    -0.442 OA
BRANCH  18  20
ATOM     19  O   UNL     1     -34.156  21.197   0.549  0.00  0.00    -0.247 OA
ATOM     20  C   UNL     1     -35.058  20.496   0.986  0.00  0.00    +0.346 C 
BRANCH  20  23
ATOM     21  O   UNL     1     -34.931  19.374  -1.948  0.00  0.00    -0.449 OA
ATOM     22  O   UNL     1     -32.928  18.270  -1.840  0.00  0.00    -0.250 OA
ATOM     23  C   UNL     1     -35.563  19.251   0.305  0.00  0.00    +0.224 C 
ATOM     24  C   UNL     1     -34.460  18.226   0.055  0.00  0.00    +0.137 C 
ATOM     25  C   UNL     1     -36.088  19.480  -1.106  0.00  0.00    +0.204 C 
ATOM     26  C   UNL     1     -33.984  18.604  -1.328  0.00  0.00    +0.319 C 
ATOM     27  C   UNL     1     -33.335  18.195   1.078  0.00  0.00    +0.015 C 
ATOM     28  C   UNL     1     -36.791  20.806  -1.358  0.00  0.00    +0.051 C 
BRANCH  23  29
ATOM     29  O   UNL     1     -36.571  18.704   1.134  0.00  0.00    -0.373 OA
ATOM     30  H   UNL     1     -37.444  18.937   0.780  0.00  0.00    +0.211 HD
ENDBRANCH  23  29
ENDBRANCH  20  23
ENDBRANCH  18  20
ENDBRANCH  17  18
ENDBRANCH   6  17
TORSDOF 8
ENDMDL
MODEL 3
REMARK VINA RESULT:      -5.9      3.058      6.478
REMARK  Name = 5281736
REMARK  8 active torsions:
REMARK  status: ('A' for Active; 'I' for Inactive)
REMARK    1  A    between atoms: C_3  and  O_10
REMARK    2  A    between atoms: C_6  and  C_17
REMARK    3  A    between atoms: O_10  and  C_12
REMARK    4  A    between atoms: C_12  and  C_13
REMARK    5  A    between atoms: C_17  and  O_18
REMARK    6  A    between atoms: O_18  and  C_20
REMARK    7  A    between atoms: C_20  and  C_23
REMARK    8  A    between atoms: C_23  and  O_29
REMARK                            x       y       z     vdW  Elec       q    Type
REMARK                         _______ _______ _______ _____ _____    ______ ____
ROOT
ATOM      1  N   UNL     1     -38.247  20.512  -1.087  0.00  0.00    +0.396 N 
ATOM      2  C   UNL     1     -37.907  20.390   0.364  0.00  0.00    +0.006 C 
ATOM      3  C   UNL     1     -36.609  19.577   0.428  0.00  0.00    +0.152 C 
ATOM      4  C   UNL     1     -36.557  18.884  -0.926  0.00  0.00    +0.019 C 
ATOM      5  C   UNL     1     -37.141  19.934  -1.858  0.00  0.00    -0.073 C 
ATOM      6  C   UNL     1     -37.907  21.782   0.910  0.00  0.00    -0.023 C 
ATOM      7  C   UNL     1     -38.454  21.951  -1.353  0.00  0.00    -0.050 C 
ATOM      8  C   UNL     1     -38.212  22.652  -0.057  0.00  0.00    -0.056 C 
ATOM      9  H   UNL     1     -39.094  20.011  -1.353  0.00  0.00    -0.079 HD
ENDROOT
BRANCH   3  10
ATOM     10  O   UNL     1     -35.451  20.388   0.591  0.00  0.00    -0.451 OA
BRANCH  10  12
ATOM     11  O   UNL     1     -34.800  20.073   2.777  0.00  0.00    -0.245 OA
ATOM     12  C   UNL     1     -34.587  20.004   1.575  0.00  0.00    +0.337 C 
BRANCH  12  13
ATOM     13  C   UNL     1     -33.326  19.484   0.964  0.00  0.00    +0.049 C 
ATOM     14  C   UNL     1     -32.944  18.056   1.224  0.00  0.00    +0.037 C 
ATOM     15  C   UNL     1     -32.615  20.369   0.242  0.00  0.00    -0.024 C 
ATOM     16  C   UNL     1     -32.947  21.807  -0.010  0.00  0.00    +0.031 C 
ENDBRANCH  12  13
ENDBRANCH  10  12
ENDBRANCH   3  10
BRANCH   6  17
ATOM     17  C   UNL     1     -37.646  22.080   2.342  0.00  0.00    +0.229 C 
BRANCH  17  18
ATOM     18  O   UNL     1     -37.381  23.465   2.515  0.00  0.00    -0.442 OA
BRANCH  18  20
ATOM     19  O   UNL     1     -35.072  23.419   2.529  0.00  0.00    -0.247 OA
ATOM     20  C   UNL     1     -36.141  23.778   3.001  0.00  0.00    +0.346 C 
BRANCH  20  23
ATOM     21  O   UNL     1     -34.230  24.573   5.366  0.00  0.00    -0.449 OA
ATOM     22  O   UNL     1     -33.206  26.392   4.424  0.00  0.00    -0.250 OA
ATOM     23  C   UNL     1     -36.275  24.645   4.225  0.00  0.00    +0.224 C 
ATOM     24  C   UNL     1     -35.585  25.998   4.068  0.00  0.00    +0.137 C 
ATOM     25  C   UNL     1     -35.578  24.092   5.461  0.00  0.00    +0.204 C 
ATOM     26  C   UNL     1     -34.203  25.713   4.609  0.00  0.00    +0.319 C 
ATOM     27  C   UNL     1     -35.559  26.573   2.660  0.00  0.00    +0.015 C 
ATOM     28  C   UNL     1     -35.578  22.579   5.616  0.00  0.00    +0.051 C 
BRANCH  23  29
ATOM     29  O   UNL     1     -37.659  24.819   4.462  0.00  0.00    -0.373 OA
ATOM     30  H   UNL     1     -37.807  25.669   4.907  0.00  0.00    +0.211 HD
ENDBRANCH  23  29
ENDBRANCH  20  23
ENDBRANCH  18  20
ENDBRANCH  17  18
ENDBRANCH   6  17
TORSDOF 8
ENDMDL
MODEL 4
REMARK VINA RESULT:      -5.8      3.789      5.951
REMARK  Name = 5281736
REMARK  8 active torsions:
REMARK  status: ('A' for Active; 'I' for Inactive)
REMARK    1  A    between atoms: C_3  and  O_10
REMARK    2  A    between atoms: C_6  and  C_17
REMARK    3  A    between atoms: O_10  and  C_12
REMARK    4  A    between atoms: C_12  and  C_13
REMARK    5  A    between atoms: C_17  and  O_18
REMARK    6  A    between atoms: O_18  and  C_20
REMARK    7  A    between atoms: C_20  and  C_23
REMARK    8  A    between atoms: C_23  and  O_29
REMARK                            x       y       z     vdW  Elec       q    Type
REMARK                         _______ _______ _______ _____ _____    ______ ____
ROOT
ATOM      1  N   UNL     1     -39.145  23.994   1.711  0.00  0.00    +0.396 N 
ATOM      2  C   UNL     1     -37.674  23.883   1.956  0.00  0.00    +0.006 C 
ATOM      3  C   UNL     1     -37.344  24.925   3.031  0.00  0.00    +0.152 C 
ATOM      4  C   UNL     1     -38.529  25.877   2.978  0.00  0.00    +0.019 C 
ATOM      5  C   UNL     1     -39.692  24.942   2.687  0.00  0.00    -0.073 C 
ATOM      6  C   UNL     1     -37.408  22.442   2.250  0.00  0.00    -0.023 C 
ATOM      7  C   UNL     1     -39.699  22.631   1.848  0.00  0.00    -0.050 C 
ATOM      8  C   UNL     1     -38.546  21.746   2.189  0.00  0.00    -0.056 C 
ATOM      9  H   UNL     1     -39.381  24.345   0.783  0.00  0.00    -0.079 HD
ENDROOT
BRANCH   3  10
ATOM     10  O   UNL     1     -37.240  24.365   4.335  0.00  0.00    -0.451 OA
BRANCH  10  12
ATOM     11  O   UNL     1     -36.320  26.001   5.668  0.00  0.00    -0.245 OA
ATOM     12  C   UNL     1     -36.276  24.899   5.140  0.00  0.00    +0.337 C 
BRANCH  12  13
ATOM     13  C   UNL     1     -35.144  23.933   5.279  0.00  0.00    +0.049 C 
ATOM     14  C   UNL     1     -35.345  22.719   6.137  0.00  0.00    +0.037 C 
ATOM     15  C   UNL     1     -34.010  24.261   4.633  0.00  0.00    -0.024 C 
ATOM     16  C   UNL     1     -33.763  25.478   3.798  0.00  0.00    +0.031 C 
ENDBRANCH  12  13
ENDBRANCH  10  12
ENDBRANCH   3  10
BRANCH   6  17
ATOM     17  C   UNL     1     -36.043  21.917   2.513  0.00  0.00    +0.229 C 
BRANCH  17  18
ATOM     18  O   UNL     1     -35.411  21.558   1.293  0.00  0.00    -0.442 OA
BRANCH  18  20
ATOM     19  O   UNL     1     -34.484  19.672   2.252  0.00  0.00    -0.247 OA
ATOM     20  C   UNL     1     -34.805  20.332   1.273  0.00  0.00    +0.346 C 
BRANCH  20  23
ATOM     21  O   UNL     1     -33.285  17.942  -0.090  0.00  0.00    -0.449 OA
ATOM     22  O   UNL     1     -34.957  16.378  -0.075  0.00  0.00    -0.250 OA
ATOM     23  C   UNL     1     -34.580  19.894  -0.150  0.00  0.00    +0.224 C 
ATOM     24  C   UNL     1     -35.463  18.715  -0.551  0.00  0.00    +0.137 C 
ATOM     25  C   UNL     1     -33.189  19.335  -0.419  0.00  0.00    +0.204 C 
ATOM     26  C   UNL     1     -34.585  17.533  -0.210  0.00  0.00    +0.319 C 
ATOM     27  C   UNL     1     -36.828  18.647   0.116  0.00  0.00    +0.015 C 
ATOM     28  C   UNL     1     -32.044  19.972   0.355  0.00  0.00    +0.051 C 
BRANCH  23  29
ATOM     29  O   UNL     1     -34.842  21.013  -0.975  0.00  0.00    -0.373 OA
ATOM     30  H   UNL     1     -35.800  21.155  -1.034  0.00  0.00    +0.211 HD
ENDBRANCH  23  29
ENDBRANCH  20  23
ENDBRANCH  18  20
ENDBRANCH  17  18
ENDBRANCH   6  17
TORSDOF 8
ENDMDL
MODEL 5
REMARK VINA RESULT:      -5.7      3.221      7.111
REMARK  Name = 5281736
REMARK  8 active torsions:
REMARK  status: ('A' for Active; 'I' for Inactive)
REMARK    1  A    between atoms: C_3  and  O_10
REMARK    2  A    between atoms: C_6  and  C_17
REMARK    3  A    between atoms: O_10  and  C_12
REMARK    4  A    between atoms: C_12  and  C_13
REMARK    5  A    between atoms: C_17  and  O_18
REMARK    6  A    between atoms: O_18  and  C_20
REMARK    7  A    between atoms: C_20  and  C_23
REMARK    8  A    between atoms: C_23  and  O_29
REMARK                            x       y       z     vdW  Elec       q    Type
REMARK                         _______ _______ _______ _____ _____    ______ ____
ROOT
ATOM      1  N   UNL     1     -34.161  23.339  -0.125  0.00  0.00    +0.396 N 
ATOM      2  C   UNL     1     -34.960  24.353   0.629  0.00  0.00    +0.006 C 
ATOM      3  C   UNL     1     -35.848  23.561   1.596  0.00  0.00    +0.152 C 
ATOM      4  C   UNL     1     -35.857  22.160   1.002  0.00  0.00    +0.019 C 
ATOM      5  C   UNL     1     -34.443  22.022   0.457  0.00  0.00    -0.073 C 
ATOM      6  C   UNL     1     -33.973  25.323   1.195  0.00  0.00    -0.023 C 
ATOM      7  C   UNL     1     -32.745  23.740  -0.001  0.00  0.00    -0.050 C 
ATOM      8  C   UNL     1     -32.734  24.973   0.840  0.00  0.00    -0.056 C 
ATOM      9  H   UNL     1     -34.395  23.286  -1.116  0.00  0.00    -0.079 HD
ENDROOT
BRANCH   3  10
ATOM     10  O   UNL     1     -35.326  23.514   2.918  0.00  0.00    -0.451 OA
BRANCH  10  12
ATOM     11  O   UNL     1     -37.438  23.304   3.811  0.00  0.00    -0.245 OA
ATOM     12  C   UNL     1     -36.247  23.553   3.925  0.00  0.00    +0.337 C 
BRANCH  12  13
ATOM     13  C   UNL     1     -35.581  23.956   5.202  0.00  0.00    +0.049 C 
ATOM     14  C   UNL     1     -35.489  25.418   5.526  0.00  0.00    +0.037 C 
ATOM     15  C   UNL     1     -35.088  22.951   5.949  0.00  0.00    -0.024 C 
ATOM     16  C   UNL     1     -35.132  21.488   5.640  0.00  0.00    +0.031 C 
ENDBRANCH  12  13
ENDBRANCH  10  12
ENDBRANCH   3  10
BRANCH   6  17
ATOM     17  C   UNL     1     -34.383  26.511   1.987  0.00  0.00    +0.229 C 
BRANCH  17  18
ATOM     18  O   UNL     1     -33.554  26.649   3.132  0.00  0.00    -0.442 OA
BRANCH  18  20
ATOM     19  O   UNL     1     -34.307  28.723   3.816  0.00  0.00    -0.247 OA
ATOM     20  C   UNL     1     -33.405  27.921   3.611  0.00  0.00    +0.346 C 
BRANCH  20  23
ATOM     21  O   UNL     1     -31.739  30.511   4.241  0.00  0.00    -0.449 OA
ATOM     22  O   UNL     1     -31.934  30.535   6.523  0.00  0.00    -0.250 OA
ATOM     23  C   UNL     1     -31.948  28.210   3.859  0.00  0.00    +0.224 C 
ATOM     24  C   UNL     1     -31.632  28.427   5.337  0.00  0.00    +0.137 C 
ATOM     25  C   UNL     1     -31.456  29.515   3.249  0.00  0.00    +0.204 C 
ATOM     26  C   UNL     1     -31.793  29.923   5.476  0.00  0.00    +0.319 C 
ATOM     27  C   UNL     1     -32.488  27.648   6.323  0.00  0.00    +0.015 C 
ATOM     28  C   UNL     1     -32.080  29.917   1.921  0.00  0.00    +0.051 C 
BRANCH  23  29
ATOM     29  O   UNL     1     -31.215  27.110   3.353  0.00  0.00    -0.373 OA
ATOM     30  H   UNL     1     -30.365  27.046   3.816  0.00  0.00    +0.211 HD
ENDBRANCH  23  29
ENDBRANCH  20  23
ENDBRANCH  18  20
ENDBRANCH  17  18
ENDBRANCH   6  17
TORSDOF 8
ENDMDL
MODEL 6
REMARK VINA RESULT:      -5.7      3.631      6.548
REMARK  Name = 5281736
REMARK  8 active torsions:
REMARK  status: ('A' for Active; 'I' for Inactive)
REMARK    1  A    between atoms: C_3  and  O_10
REMARK    2  A    between atoms: C_6  and  C_17
REMARK    3  A    between atoms: O_10  and  C_12
REMARK    4  A    between atoms: C_12  and  C_13
REMARK    5  A    between atoms: C_17  and  O_18
REMARK    6  A    between atoms: O_18  and  C_20
REMARK    7  A    between atoms: C_20  and  C_23
REMARK    8  A    between atoms: C_23  and  O_29
REMARK                            x       y       z     vdW  Elec       q    Type
REMARK                         _______ _______ _______ _____ _____    ______ ____
ROOT
ATOM      1  N   UNL     1     -31.948  30.473   4.642  0.00  0.00    +0.396 N 
ATOM      2  C   UNL     1     -32.448  29.067   4.553  0.00  0.00    +0.006 C 
ATOM      3  C   UNL     1     -31.739  28.440   3.347  0.00  0.00    +0.152 C 
ATOM      4  C   UNL     1     -31.263  29.645   2.549  0.00  0.00    +0.019 C 
ATOM      5  C   UNL     1     -30.889  30.638   3.639  0.00  0.00    -0.073 C 
ATOM      6  C   UNL     1     -32.233  28.462   5.903  0.00  0.00    -0.023 C 
ATOM      7  C   UNL     1     -31.473  30.666   6.028  0.00  0.00    -0.050 C 
ATOM      8  C   UNL     1     -31.685  29.362   6.724  0.00  0.00    -0.056 C 
ATOM      9  H   UNL     1     -32.660  31.176   4.446  0.00  0.00    -0.079 HD
ENDROOT
BRANCH   3  10
ATOM     10  O   UNL     1     -30.620  27.641   3.713  0.00  0.00    -0.451 OA
BRANCH  10  12
ATOM     11  O   UNL     1     -30.919  25.906   2.228  0.00  0.00    -0.245 OA
ATOM     12  C   UNL     1     -30.207  26.731   2.783  0.00  0.00    +0.337 C 
BRANCH  12  13
ATOM     13  C   UNL     1     -28.740  26.887   2.542  0.00  0.00    +0.049 C 
ATOM     14  C   UNL     1     -27.796  26.562   3.662  0.00  0.00    +0.037 C 
ATOM     15  C   UNL     1     -28.390  27.342   1.325  0.00  0.00    -0.024 C 
ATOM     16  C   UNL     1     -29.304  27.706   0.197  0.00  0.00    +0.031 C 
ENDBRANCH  12  13
ENDBRANCH  10  12
ENDBRANCH   3  10
BRANCH   6  17
ATOM     17  C   UNL     1     -32.639  27.072   6.232  0.00  0.00    +0.229 C 
BRANCH  17  18
ATOM     18  O   UNL     1     -33.984  26.846   5.834  0.00  0.00    -0.442 OA
BRANCH  18  20
ATOM     19  O   UNL     1     -33.297  25.181   4.388  0.00  0.00    -0.247 OA
ATOM     20  C   UNL     1     -34.174  25.850   4.916  0.00  0.00    +0.346 C 
BRANCH  20  23
ATOM     21  O   UNL     1     -35.858  24.817   2.470  0.00  0.00    -0.449 OA
ATOM     22  O   UNL     1     -35.896  22.580   2.961  0.00  0.00    -0.250 OA
ATOM     23  C   UNL     1     -35.645  25.685   4.636  0.00  0.00    +0.224 C 
ATOM     24  C   UNL     1     -36.106  24.234   4.740  0.00  0.00    +0.137 C 
ATOM     25  C   UNL     1     -36.053  26.030   3.210  0.00  0.00    +0.204 C 
ATOM     26  C   UNL     1     -35.938  23.746   3.320  0.00  0.00    +0.319 C 
ATOM     27  C   UNL     1     -35.367  23.370   5.750  0.00  0.00    +0.015 C 
ATOM     28  C   UNL     1     -35.290  27.168   2.547  0.00  0.00    +0.051 C 
BRANCH  23  29
ATOM     29  O   UNL     1     -36.338  26.493   5.568  0.00  0.00    -0.373 OA
ATOM     30  H   UNL     1     -37.200  26.093   5.767  0.00  0.00    +0.211 HD
ENDBRANCH  23  29
ENDBRANCH  20  23
ENDBRANCH  18  20
ENDBRANCH  17  18
ENDBRANCH   6  17
TORSDOF 8
ENDMDL
MODEL 7
REMARK VINA RESULT:      -5.7      2.981      5.973
REMARK  Name = 5281736
REMARK  8 active torsions:
REMARK  status: ('A' for Active; 'I' for Inactive)
REMARK    1  A    between atoms: C_3  and  O_10
REMARK    2  A    between atoms: C_6  and  C_17
REMARK    3  A    between atoms: O_10  and  C_12
REMARK    4  A    between atoms: C_12  and  C_13
REMARK    5  A    between atoms: C_17  and  O_18
REMARK    6  A    between atoms: O_18  and  C_20
REMARK    7  A    between atoms: C_20  and  C_23
REMARK    8  A    between atoms: C_23  and  O_29
REMARK                            x       y       z     vdW  Elec       q    Type
REMARK                         _______ _______ _______ _____ _____    ______ ____
ROOT
ATOM      1  N   UNL     1     -35.317  22.834   0.067  0.00  0.00    +0.396 N 
ATOM      2  C   UNL     1     -36.268  23.682   0.849  0.00  0.00    +0.006 C 
ATOM      3  C   UNL     1     -36.324  23.070   2.254  0.00  0.00    +0.152 C 
ATOM      4  C   UNL     1     -35.795  21.659   2.048  0.00  0.00    +0.019 C 
ATOM      5  C   UNL     1     -34.723  21.858   0.988  0.00  0.00    -0.073 C 
ATOM      6  C   UNL     1     -35.789  25.090   0.700  0.00  0.00    -0.023 C 
ATOM      7  C   UNL     1     -34.325  23.752  -0.530  0.00  0.00    -0.050 C 
ATOM      8  C   UNL     1     -34.699  25.123  -0.072  0.00  0.00    -0.056 C 
ATOM      9  H   UNL     1     -35.760  22.307  -0.685  0.00  0.00    -0.079 HD
ENDROOT
BRANCH   3  10
ATOM     10  O   UNL     1     -35.502  23.755   3.192  0.00  0.00    -0.451 OA
BRANCH  10  12
ATOM     11  O   UNL     1     -37.293  24.429   4.472  0.00  0.00    -0.245 OA
ATOM     12  C   UNL     1     -36.112  24.139   4.351  0.00  0.00    +0.337 C 
BRANCH  12  13
ATOM     13  C   UNL     1     -35.113  24.157   5.463  0.00  0.00    +0.049 C 
ATOM     14  C   UNL     1     -34.457  25.462   5.809  0.00  0.00    +0.037 C 
ATOM     15  C   UNL     1     -34.864  22.972   6.049  0.00  0.00    -0.024 C 
ATOM     16  C   UNL     1     -35.474  21.648   5.708  0.00  0.00    +0.031 C 
ENDBRANCH  12  13
ENDBRANCH  10  12
ENDBRANCH   3  10
BRANCH   6  17
ATOM     17  C   UNL     1     -36.498  26.245   1.307  0.00  0.00    +0.229 C 
BRANCH  17  18
ATOM     18  O   UNL     1     -35.674  27.402   1.272  0.00  0.00    -0.442 OA
BRANCH  18  20
ATOM     19  O   UNL     1     -35.547  27.538   3.575  0.00  0.00    -0.247 OA
ATOM     20  C   UNL     1     -35.094  27.757   2.459  0.00  0.00    +0.346 C 
BRANCH  20  23
ATOM     21  O   UNL     1     -33.121  29.460   4.216  0.00  0.00    -0.449 OA
ATOM     22  O   UNL     1     -31.811  27.775   5.047  0.00  0.00    -0.250 OA
ATOM     23  C   UNL     1     -33.793  28.470   2.202  0.00  0.00    +0.224 C 
ATOM     24  C   UNL     1     -32.585  27.706   2.736  0.00  0.00    +0.137 C 
ATOM     25  C   UNL     1     -33.656  29.801   2.929  0.00  0.00    +0.204 C 
ATOM     26  C   UNL     1     -32.443  28.274   4.129  0.00  0.00    +0.319 C 
ATOM     27  C   UNL     1     -32.698  26.189   2.727  0.00  0.00    +0.015 C 
ATOM     28  C   UNL     1     -34.931  30.613   3.098  0.00  0.00    +0.051 C 
BRANCH  23  29
ATOM     29  O   UNL     1     -33.687  28.648   0.802  0.00  0.00    -0.373 OA
ATOM     30  H   UNL     1     -34.339  29.305   0.508  0.00  0.00    +0.211 HD
ENDBRANCH  23  29
ENDBRANCH  20  23
ENDBRANCH  18  20
ENDBRANCH  17  18
ENDBRANCH   6  17
TORSDOF 8
ENDMDL
MODEL 8
REMARK VINA RESULT:      -5.6      1.233      2.020
REMARK  Name = 5281736
REMARK  8 active torsions:
REMARK  status: ('A' for Active; 'I' for Inactive)
REMARK    1  A    between atoms: C_3  and  O_10
REMARK    2  A    between atoms: C_6  and  C_17
REMARK    3  A    between atoms: O_10  and  C_12
REMARK    4  A    between atoms: C_12  and  C_13
REMARK    5  A    between atoms: C_17  and  O_18
REMARK    6  A    between atoms: O_18  and  C_20
REMARK    7  A    between atoms: C_20  and  C_23
REMARK    8  A    between atoms: C_23  and  O_29
REMARK                            x       y       z     vdW  Elec       q    Type
REMARK                         _______ _______ _______ _____ _____    ______ ____
ROOT
ATOM      1  N   UNL     1     -35.898  21.586   4.071  0.00  0.00    +0.396 N 
ATOM      2  C   UNL     1     -36.406  22.980   3.884  0.00  0.00    +0.006 C 
ATOM      3  C   UNL     1     -35.883  23.785   5.079  0.00  0.00    +0.152 C 
ATOM      4  C   UNL     1     -35.531  22.716   6.102  0.00  0.00    +0.019 C 
ATOM      5  C   UNL     1     -35.000  21.587   5.232  0.00  0.00    -0.073 C 
ATOM      6  C   UNL     1     -35.993  23.392   2.508  0.00  0.00    -0.023 C 
ATOM      7  C   UNL     1     -35.223  21.209   2.812  0.00  0.00    -0.050 C 
ATOM      8  C   UNL     1     -35.329  22.396   1.913  0.00  0.00    -0.056 C 
ATOM      9  H   UNL     1     -36.632  20.903   4.259  0.00  0.00    -0.079 HD
ENDROOT
BRANCH   3  10
ATOM     10  O   UNL     1     -34.723  24.549   4.770  0.00  0.00    -0.451 OA
BRANCH  10  12
ATOM     11  O   UNL     1     -35.797  26.479   5.418  0.00  0.00    -0.245 OA
ATOM     12  C   UNL     1     -34.834  25.899   4.938  0.00  0.00    +0.337 C 
BRANCH  12  13
ATOM     13  C   UNL     1     -33.597  26.573   4.440  0.00  0.00    +0.049 C 
ATOM     14  C   UNL     1     -33.359  26.621   2.959  0.00  0.00    +0.037 C 
ATOM     15  C   UNL     1     -32.773  27.061   5.385  0.00  0.00    -0.024 C 
ATOM     16  C   UNL     1     -32.961  27.001   6.868  0.00  0.00    +0.031 C 
ENDBRANCH  12  13
ENDBRANCH  10  12
ENDBRANCH   3  10
BRANCH   6  17
ATOM     17  C   UNL     1     -36.346  24.713   1.927  0.00  0.00    +0.229 C 
BRANCH  17  18
ATOM     18  O   UNL     1     -37.668  25.075   2.299  0.00  0.00    -0.442 OA
BRANCH  18  20
ATOM     19  O   UNL     1     -37.547  27.327   1.800  0.00  0.00    -0.247 OA
ATOM     20  C   UNL     1     -38.131  26.253   1.780  0.00  0.00    +0.346 C 
BRANCH  20  23
ATOM     21  O   UNL     1     -39.504  23.909   0.197  0.00  0.00    -0.449 OA
ATOM     22  O   UNL     1     -40.327  22.700   1.959  0.00  0.00    -0.250 OA
ATOM     23  C   UNL     1     -39.490  26.043   1.165  0.00  0.00    +0.224 C 
ATOM     24  C   UNL     1     -40.385  25.136   2.006  0.00  0.00    +0.137 C 
ATOM     25  C   UNL     1     -39.467  25.297  -0.163  0.00  0.00    +0.204 C 
ATOM     26  C   UNL     1     -40.083  23.772   1.430  0.00  0.00    +0.319 C 
ATOM     27  C   UNL     1     -40.173  25.200   3.511  0.00  0.00    +0.015 C 
ATOM     28  C   UNL     1     -38.273  25.565  -1.067  0.00  0.00    +0.051 C 
BRANCH  23  29
ATOM     29  O   UNL     1     -40.080  27.320   1.015  0.00  0.00    -0.373 OA
ATOM     30  H   UNL     1     -40.951  27.228   0.596  0.00  0.00    +0.211 HD
ENDBRANCH  23  29
ENDBRANCH  20  23
ENDBRANCH  18  20
ENDBRANCH  17  18
ENDBRANCH   6  17
TORSDOF 8
ENDMDL
MODEL 9
REMARK VINA RESULT:      -5.6      3.375      8.012
REMARK  Name = 5281736
REMARK  8 active torsions:
REMARK  status: ('A' for Active; 'I' for Inactive)
REMARK    1  A    between atoms: C_3  and  O_10
REMARK    2  A    between atoms: C_6  and  C_17
REMARK    3  A    between atoms: O_10  and  C_12
REMARK    4  A    between atoms: C_12  and  C_13
REMARK    5  A    between atoms: C_17  and  O_18
REMARK    6  A    between atoms: O_18  and  C_20
REMARK    7  A    between atoms: C_20  and  C_23
REMARK    8  A    between atoms: C_23  and  O_29
REMARK                            x       y       z     vdW  Elec       q    Type
REMARK                         _______ _______ _______ _____ _____    ______ ____
ROOT
ATOM      1  N   UNL     1     -34.597  25.373  -0.006  0.00  0.00    +0.396 N 
ATOM      2  C   UNL     1     -34.810  25.995   1.337  0.00  0.00    +0.006 C 
ATOM      3  C   UNL     1     -35.947  25.204   1.995  0.00  0.00    +0.152 C 
ATOM      4  C   UNL     1     -36.624  24.513   0.821  0.00  0.00    +0.019 C 
ATOM      5  C   UNL     1     -35.453  24.184  -0.091  0.00  0.00    -0.073 C 
ATOM      6  C   UNL     1     -33.473  26.015   2.004  0.00  0.00    -0.023 C 
ATOM      7  C   UNL     1     -33.156  25.062  -0.103  0.00  0.00    -0.050 C 
ATOM      8  C   UNL     1     -32.550  25.490   1.193  0.00  0.00    -0.056 C 
ATOM      9  H   UNL     1     -34.847  25.981  -0.784  0.00  0.00    -0.079 HD
ENDROOT
BRANCH   3  10
ATOM     10  O   UNL     1     -35.482  24.226   2.919  0.00  0.00    -0.451 OA
BRANCH  10  12
ATOM     11  O   UNL     1     -37.431  23.303   3.723  0.00  0.00    -0.245 OA
ATOM     12  C   UNL     1     -36.360  23.866   3.899  0.00  0.00    +0.337 C 
BRANCH  12  13
ATOM     13  C   UNL     1     -35.820  24.267   5.233  0.00  0.00    +0.049 C 
ATOM     14  C   UNL     1     -35.896  25.713   5.627  0.00  0.00    +0.037 C 
ATOM     15  C   UNL     1     -35.275  23.279   5.967  0.00  0.00    -0.024 C 
ATOM     16  C   UNL     1     -35.152  21.835   5.593  0.00  0.00    +0.031 C 
ENDBRANCH  12  13
ENDBRANCH  10  12
ENDBRANCH   3  10
BRANCH   6  17
ATOM     17  C   UNL     1     -33.260  26.596   3.354  0.00  0.00    +0.229 C 
BRANCH  17  18
ATOM     18  O   UNL     1     -32.714  27.903   3.246  0.00  0.00    -0.442 OA
BRANCH  18  20
ATOM     19  O   UNL     1     -30.552  27.541   3.975  0.00  0.00    -0.247 OA
ATOM     20  C   UNL     1     -31.610  28.154   4.014  0.00  0.00    +0.346 C 
BRANCH  20  23
ATOM     21  O   UNL     1     -30.466  29.082   6.791  0.00  0.00    -0.449 OA
ATOM     22  O   UNL     1     -28.683  30.323   6.065  0.00  0.00    -0.250 OA
ATOM     23  C   UNL     1     -31.879  29.313   4.937  0.00  0.00    +0.224 C 
ATOM     24  C   UNL     1     -30.801  30.391   4.861  0.00  0.00    +0.137 C 
ATOM     25  C   UNL     1     -31.845  28.955   6.417  0.00  0.00    +0.204 C 
ATOM     26  C   UNL     1     -29.840  29.953   5.941  0.00  0.00    +0.319 C 
ATOM     27  C   UNL     1     -30.128  30.566   3.508  0.00  0.00    +0.015 C 
ATOM     28  C   UNL     1     -32.357  27.572   6.789  0.00  0.00    +0.051 C 
BRANCH  23  29
ATOM     29  O   UNL     1     -33.140  29.846   4.577  0.00  0.00    -0.373 OA
ATOM     30  H   UNL     1     -33.676  29.155   4.157  0.00  0.00    +0.211 HD
ENDBRANCH  23  29
ENDBRANCH  20  23
ENDBRANCH  18  20
ENDBRANCH  17  18
ENDBRANCH   6  17
TORSDOF 8
ENDMDL
