MODEL 1
REMARK VINA RESULT:      -6.4      0.000      0.000
REMARK  Name = 5748611
REMARK  6 active torsions:
REMARK  status: ('A' for Active; 'I' for Inactive)
REMARK    1  A    between atoms: C_5  and  C_12
REMARK    2  A    between atoms: C_6  and  O_24
REMARK    3  A    between atoms: C_9  and  O_26
REMARK    4  A    between atoms: C_10  and  O_20
REMARK    5  A    between atoms: C_11  and  O_22
REMARK    6  A    between atoms: C_17  and  O_18
REMARK                            x       y       z     vdW  Elec       q    Type
REMARK                         _______ _______ _______ _____ _____    ______ ____
ROOT
ATOM      1  O   UNL     1     -33.228  26.581   5.210  0.00  0.00    -0.450 OA
ATOM      2  O   UNL     1     -35.541  28.200   2.271  0.00  0.00    -0.283 OA
ATOM      3  C   UNL     1     -35.204  26.442   3.807  0.00  0.00    +0.113 A 
ATOM      4  C   UNL     1     -34.373  25.942   4.806  0.00  0.00    +0.155 A 
ATOM      5  C   UNL     1     -32.882  27.771   4.591  0.00  0.00    +0.182 A 
ATOM      6  C   UNL     1     -36.359  25.748   3.437  0.00  0.00    +0.177 C 
ATOM      7  C   UNL     1     -34.847  27.710   3.153  0.00  0.00    +0.238 A 
ATOM      8  C   UNL     1     -34.691  24.743   5.443  0.00  0.00    +0.078 C 
ATOM      9  C   UNL     1     -33.602  28.365   3.622  0.00  0.00    +0.208 A 
ATOM     10  C   UNL     1     -36.674  24.548   4.076  0.00  0.00    +0.206 C 
ATOM     11  C   UNL     1     -35.842  24.045   5.077  0.00  0.00    +0.178 C 
ENDROOT
BRANCH   5  12
ATOM     12  C   UNL     1     -31.635  28.353   5.121  0.00  0.00    +0.038 C 
ATOM     13  C   UNL     1     -30.450  28.252   4.392  0.00  0.00    +0.006 C 
ATOM     14  C   UNL     1     -31.639  29.006   6.354  0.00  0.00    +0.006 C 
ATOM     15  C   UNL     1     -29.271  28.802   4.894  0.00  0.00    +0.037 C 
ATOM     16  C   UNL     1     -30.461  29.557   6.857  0.00  0.00    +0.037 C 
ATOM     17  C   UNL     1     -29.276  29.454   6.127  0.00  0.00    +0.134 C 
BRANCH  17  18
ATOM     18  O   UNL     1     -28.126  29.992   6.617  0.00  0.00    -0.506 OA
ATOM     19  H   UNL     1     -27.962  30.910   6.523  0.00  0.00    +0.292 HD
ENDBRANCH  17  18
ENDBRANCH   5  12
BRANCH  10  20
ATOM     20  O   UNL     1     -37.799  23.860   3.722  0.00  0.00    -0.465 OA
ATOM     21  C   UNL     1     -37.652  22.850   2.727  0.00  0.00    +0.253 C 
ENDBRANCH  10  20
BRANCH  11  22
ATOM     22  O   UNL     1     -36.144  22.876   5.707  0.00  0.00    -0.468 OA
ATOM     23  C   UNL     1     -35.050  22.109   6.205  0.00  0.00    +0.253 C 
ENDBRANCH  11  22
BRANCH   6  24
ATOM     24  O   UNL     1     -37.198  26.205   2.464  0.00  0.00    -0.503 OA
ATOM     25  H   UNL     1     -37.123  25.878   1.589  0.00  0.00    +0.292 HD
ENDBRANCH   6  24
BRANCH   9  26
ATOM     26  O   UNL     1     -33.247  29.567   3.049  0.00  0.00    -0.501 OA
ATOM     27  H   UNL     1     -32.597  29.592   2.376  0.00  0.00    +0.292 HD
ENDBRANCH   9  26
TORSDOF 6
ENDMDL
MODEL 2
REMARK VINA RESULT:      -6.2      5.510      8.472
REMARK  Name = 5748611
REMARK  6 active torsions:
REMARK  status: ('A' for Active; 'I' for Inactive)
REMARK    1  A    between atoms: C_5  and  C_12
REMARK    2  A    between atoms: C_6  and  O_24
REMARK    3  A    between atoms: C_9  and  O_26
REMARK    4  A    between atoms: C_10  and  O_20
REMARK    5  A    between atoms: C_11  and  O_22
REMARK    6  A    between atoms: C_17  and  O_18
REMARK                            x       y       z     vdW  Elec       q    Type
REMARK                         _______ _______ _______ _____ _____    ______ ____
ROOT
ATOM      1  O   UNL     1     -34.941  20.863   1.621  0.00  0.00    -0.450 OA
ATOM      2  O   UNL     1     -38.014  19.014  -0.314  0.00  0.00    -0.283 OA
ATOM      3  C   UNL     1     -37.319  20.723   1.155  0.00  0.00    +0.113 A 
ATOM      4  C   UNL     1     -36.225  21.312   1.786  0.00  0.00    +0.155 A 
ATOM      5  C   UNL     1     -34.723  19.770   0.796  0.00  0.00    +0.182 A 
ATOM      6  C   UNL     1     -38.607  21.225   1.360  0.00  0.00    +0.177 C 
ATOM      7  C   UNL     1     -37.093  19.570   0.270  0.00  0.00    +0.238 A 
ATOM      8  C   UNL     1     -36.414  22.409   2.628  0.00  0.00    +0.078 C 
ATOM      9  C   UNL     1     -35.688  19.120   0.122  0.00  0.00    +0.208 A 
ATOM     10  C   UNL     1     -38.791  22.321   2.203  0.00  0.00    +0.206 C 
ATOM     11  C   UNL     1     -37.697  22.913   2.836  0.00  0.00    +0.178 C 
ENDROOT
BRANCH   5  12
ATOM     12  C   UNL     1     -33.300  19.395   0.704  0.00  0.00    +0.038 C 
ATOM     13  C   UNL     1     -32.411  20.189  -0.021  0.00  0.00    +0.006 C 
ATOM     14  C   UNL     1     -32.841  18.242   1.344  0.00  0.00    +0.006 C 
ATOM     15  C   UNL     1     -31.066  19.832  -0.107  0.00  0.00    +0.037 C 
ATOM     16  C   UNL     1     -31.495  17.886   1.258  0.00  0.00    +0.037 C 
ATOM     17  C   UNL     1     -30.607  18.681   0.532  0.00  0.00    +0.134 C 
BRANCH  17  18
ATOM     18  O   UNL     1     -29.294  18.333   0.449  0.00  0.00    -0.506 OA
ATOM     19  H   UNL     1     -28.791  18.217   1.231  0.00  0.00    +0.292 HD
ENDBRANCH  17  18
ENDBRANCH   5  12
BRANCH  10  20
ATOM     20  O   UNL     1     -40.045  22.819   2.412  0.00  0.00    -0.465 OA
ATOM     21  C   UNL     1     -40.458  23.899   1.577  0.00  0.00    +0.253 C 
ENDBRANCH  10  20
BRANCH  11  22
ATOM     22  O   UNL     1     -37.869  23.984   3.659  0.00  0.00    -0.468 OA
ATOM     23  C   UNL     1     -36.691  24.661   4.094  0.00  0.00    +0.253 C 
ENDBRANCH  11  22
BRANCH   6  24
ATOM     24  O   UNL     1     -39.701  20.676   0.760  0.00  0.00    -0.503 OA
ATOM     25  H   UNL     1     -40.528  20.680   1.200  0.00  0.00    +0.292 HD
ENDBRANCH   6  24
BRANCH   9  26
ATOM     26  O   UNL     1     -35.434  18.056  -0.717  0.00  0.00    -0.501 OA
ATOM     27  H   UNL     1     -35.231  18.209  -1.619  0.00  0.00    +0.292 HD
ENDBRANCH   9  26
TORSDOF 6
ENDMDL
MODEL 3
REMARK VINA RESULT:      -6.0      3.881      6.614
REMARK  Name = 5748611
REMARK  6 active torsions:
REMARK  status: ('A' for Active; 'I' for Inactive)
REMARK    1  A    between atoms: C_5  and  C_12
REMARK    2  A    between atoms: C_6  and  O_24
REMARK    3  A    between atoms: C_9  and  O_26
REMARK    4  A    between atoms: C_10  and  O_20
REMARK    5  A    between atoms: C_11  and  O_22
REMARK    6  A    between atoms: C_17  and  O_18
REMARK                            x       y       z     vdW  Elec       q    Type
REMARK                         _______ _______ _______ _____ _____    ______ ____
ROOT
ATOM      1  O   UNL     1     -35.232  22.055   2.495  0.00  0.00    -0.450 OA
ATOM      2  O   UNL     1     -39.232  21.911   1.733  0.00  0.00    -0.283 OA
ATOM      3  C   UNL     1     -37.100  20.959   1.400  0.00  0.00    +0.113 A 
ATOM      4  C   UNL     1     -35.744  21.062   1.699  0.00  0.00    +0.155 A 
ATOM      5  C   UNL     1     -36.101  22.999   3.017  0.00  0.00    +0.182 A 
ATOM      6  C   UNL     1     -37.566  19.925   0.582  0.00  0.00    +0.177 C 
ATOM      7  C   UNL     1     -38.030  21.952   1.959  0.00  0.00    +0.238 A 
ATOM      8  C   UNL     1     -34.843  20.131   1.183  0.00  0.00    +0.078 C 
ATOM      9  C   UNL     1     -37.431  23.006   2.813  0.00  0.00    +0.208 A 
ATOM     10  C   UNL     1     -36.662  18.996   0.068  0.00  0.00    +0.206 C 
ATOM     11  C   UNL     1     -35.303  19.098   0.366  0.00  0.00    +0.178 C 
ENDROOT
BRANCH   5  12
ATOM     12  C   UNL     1     -35.422  24.004   3.854  0.00  0.00    +0.038 C 
ATOM     13  C   UNL     1     -35.599  23.997   5.238  0.00  0.00    +0.006 C 
ATOM     14  C   UNL     1     -34.600  24.965   3.263  0.00  0.00    +0.006 C 
ATOM     15  C   UNL     1     -34.957  24.949   6.030  0.00  0.00    +0.037 C 
ATOM     16  C   UNL     1     -33.957  25.916   4.055  0.00  0.00    +0.037 C 
ATOM     17  C   UNL     1     -34.135  25.908   5.439  0.00  0.00    +0.134 C 
BRANCH  17  18
ATOM     18  O   UNL     1     -33.507  26.836   6.211  0.00  0.00    -0.506 OA
ATOM     19  H   UNL     1     -33.927  27.653   6.396  0.00  0.00    +0.292 HD
ENDBRANCH  17  18
ENDBRANCH   5  12
BRANCH  10  20
ATOM     20  O   UNL     1     -37.105  17.982  -0.732  0.00  0.00    -0.465 OA
ATOM     21  C   UNL     1     -37.488  16.770  -0.086  0.00  0.00    +0.253 C 
ENDBRANCH  10  20
BRANCH  11  22
ATOM     22  O   UNL     1     -34.414  18.193  -0.131  0.00  0.00    -0.468 OA
ATOM     23  C   UNL     1     -33.359  17.780   0.735  0.00  0.00    +0.253 C 
ENDBRANCH  11  22
BRANCH   6  24
ATOM     24  O   UNL     1     -38.886  19.791   0.267  0.00  0.00    -0.503 OA
ATOM     25  H   UNL     1     -39.475  19.393   0.876  0.00  0.00    +0.292 HD
ENDBRANCH   6  24
BRANCH   9  26
ATOM     26  O   UNL     1     -38.274  23.941   3.374  0.00  0.00    -0.501 OA
ATOM     27  H   UNL     1     -39.202  23.835   3.309  0.00  0.00    +0.292 HD
ENDBRANCH   9  26
TORSDOF 6
ENDMDL
MODEL 4
REMARK VINA RESULT:      -5.9      5.479      8.720
REMARK  Name = 5748611
REMARK  6 active torsions:
REMARK  status: ('A' for Active; 'I' for Inactive)
REMARK    1  A    between atoms: C_5  and  C_12
REMARK    2  A    between atoms: C_6  and  O_24
REMARK    3  A    between atoms: C_9  and  O_26
REMARK    4  A    between atoms: C_10  and  O_20
REMARK    5  A    between atoms: C_11  and  O_22
REMARK    6  A    between atoms: C_17  and  O_18
REMARK                            x       y       z     vdW  Elec       q    Type
REMARK                         _______ _______ _______ _____ _____    ______ ____
ROOT
ATOM      1  O   UNL     1     -34.508  20.049   2.143  0.00  0.00    -0.450 OA
ATOM      2  O   UNL     1     -36.983  21.577  -0.710  0.00  0.00    -0.283 OA
ATOM      3  C   UNL     1     -36.254  21.621   1.532  0.00  0.00    +0.113 A 
ATOM      4  C   UNL     1     -35.381  21.057   2.460  0.00  0.00    +0.155 A 
ATOM      5  C   UNL     1     -34.499  19.565   0.844  0.00  0.00    +0.182 A 
ATOM      6  C   UNL     1     -37.122  22.648   1.912  0.00  0.00    +0.177 C 
ATOM      7  C   UNL     1     -36.242  21.119   0.149  0.00  0.00    +0.238 A 
ATOM      8  C   UNL     1     -35.371  21.518   3.777  0.00  0.00    +0.078 C 
ATOM      9  C   UNL     1     -35.282  20.029  -0.147  0.00  0.00    +0.208 A 
ATOM     10  C   UNL     1     -37.110  23.105   3.230  0.00  0.00    +0.206 C 
ATOM     11  C   UNL     1     -36.237  22.542   4.161  0.00  0.00    +0.178 C 
ENDROOT
BRANCH   5  12
ATOM     12  C   UNL     1     -33.514  18.488   0.639  0.00  0.00    +0.038 C 
ATOM     13  C   UNL     1     -32.158  18.727   0.864  0.00  0.00    +0.006 C 
ATOM     14  C   UNL     1     -33.938  17.226   0.219  0.00  0.00    +0.006 C 
ATOM     15  C   UNL     1     -31.227  17.708   0.669  0.00  0.00    +0.037 C 
ATOM     16  C   UNL     1     -33.006  16.206   0.025  0.00  0.00    +0.037 C 
ATOM     17  C   UNL     1     -31.650  16.447   0.249  0.00  0.00    +0.134 C 
BRANCH  17  18
ATOM     18  O   UNL     1     -30.742  15.452   0.061  0.00  0.00    -0.506 OA
ATOM     19  H   UNL     1     -30.245  15.127   0.786  0.00  0.00    +0.292 HD
ENDBRANCH  17  18
ENDBRANCH   5  12
BRANCH  10  20
ATOM     20  O   UNL     1     -37.954  24.107   3.613  0.00  0.00    -0.465 OA
ATOM     21  C   UNL     1     -37.455  25.440   3.528  0.00  0.00    +0.253 C 
ENDBRANCH  10  20
BRANCH  11  22
ATOM     22  O   UNL     1     -36.218  22.985   5.449  0.00  0.00    -0.468 OA
ATOM     23  C   UNL     1     -35.454  22.224   6.383  0.00  0.00    +0.253 C 
ENDBRANCH  11  22
BRANCH   6  24
ATOM     24  O   UNL     1     -37.990  23.224   1.032  0.00  0.00    -0.503 OA
ATOM     25  H   UNL     1     -38.885  23.356   1.275  0.00  0.00    +0.292 HD
ENDBRANCH   6  24
BRANCH   9  26
ATOM     26  O   UNL     1     -35.225  19.548  -1.438  0.00  0.00    -0.501 OA
ATOM     27  H   UNL     1     -35.948  19.069  -1.791  0.00  0.00    +0.292 HD
ENDBRANCH   9  26
TORSDOF 6
ENDMDL
MODEL 5
REMARK VINA RESULT:      -5.7      3.052      5.865
REMARK  Name = 5748611
REMARK  6 active torsions:
REMARK  status: ('A' for Active; 'I' for Inactive)
REMARK    1  A    between atoms: C_5  and  C_12
REMARK    2  A    between atoms: C_6  and  O_24
REMARK    3  A    between atoms: C_9  and  O_26
REMARK    4  A    between atoms: C_10  and  O_20
REMARK    5  A    between atoms: C_11  and  O_22
REMARK    6  A    between atoms: C_17  and  O_18
REMARK                            x       y       z     vdW  Elec       q    Type
REMARK                         _______ _______ _______ _____ _____    ______ ____
ROOT
ATOM      1  O   UNL     1     -36.791  23.355   2.584  0.00  0.00    -0.450 OA
ATOM      2  O   UNL     1     -40.512  24.955   2.131  0.00  0.00    -0.283 OA
ATOM      3  C   UNL     1     -39.038  23.169   1.683  0.00  0.00    +0.113 A 
ATOM      4  C   UNL     1     -37.749  22.676   1.876  0.00  0.00    +0.155 A 
ATOM      5  C   UNL     1     -37.119  24.588   3.125  0.00  0.00    +0.182 A 
ATOM      6  C   UNL     1     -39.974  22.432   0.952  0.00  0.00    +0.177 C 
ATOM      7  C   UNL     1     -39.395  24.472   2.264  0.00  0.00    +0.238 A 
ATOM      8  C   UNL     1     -37.387  21.441   1.337  0.00  0.00    +0.078 C 
ATOM      9  C   UNL     1     -38.328  25.169   3.022  0.00  0.00    +0.208 A 
ATOM     10  C   UNL     1     -39.608  21.197   0.414  0.00  0.00    +0.206 C 
ATOM     11  C   UNL     1     -38.317  20.702   0.606  0.00  0.00    +0.178 C 
ENDROOT
BRANCH   5  12
ATOM     12  C   UNL     1     -36.002  25.206   3.863  0.00  0.00    +0.038 C 
ATOM     13  C   UNL     1     -35.818  24.927   5.217  0.00  0.00    +0.006 C 
ATOM     14  C   UNL     1     -35.128  26.073   3.206  0.00  0.00    +0.006 C 
ATOM     15  C   UNL     1     -34.761  25.513   5.914  0.00  0.00    +0.037 C 
ATOM     16  C   UNL     1     -34.070  26.658   3.903  0.00  0.00    +0.037 C 
ATOM     17  C   UNL     1     -33.887  26.379   5.258  0.00  0.00    +0.134 C 
BRANCH  17  18
ATOM     18  O   UNL     1     -32.856  26.949   5.937  0.00  0.00    -0.506 OA
ATOM     19  H   UNL     1     -32.114  27.281   5.470  0.00  0.00    +0.292 HD
ENDBRANCH  17  18
ENDBRANCH   5  12
BRANCH  10  20
ATOM     20  O   UNL     1     -40.513  20.470  -0.303  0.00  0.00    -0.465 OA
ATOM     21  C   UNL     1     -40.536  20.677  -1.713  0.00  0.00    +0.253 C 
ENDBRANCH  10  20
BRANCH  11  22
ATOM     22  O   UNL     1     -37.953  19.497   0.086  0.00  0.00    -0.468 OA
ATOM     23  C   UNL     1     -36.576  19.140   0.184  0.00  0.00    +0.253 C 
ENDBRANCH  11  22
BRANCH   6  24
ATOM     24  O   UNL     1     -41.244  22.881   0.742  0.00  0.00    -0.503 OA
ATOM     25  H   UNL     1     -41.816  23.024   1.470  0.00  0.00    +0.292 HD
ENDBRANCH   6  24
BRANCH   9  26
ATOM     26  O   UNL     1     -38.632  26.383   3.600  0.00  0.00    -0.501 OA
ATOM     27  H   UNL     1     -38.007  26.808   4.153  0.00  0.00    +0.292 HD
ENDBRANCH   9  26
TORSDOF 6
ENDMDL
MODEL 6
REMARK VINA RESULT:      -5.7      2.007      6.797
REMARK  Name = 5748611
REMARK  6 active torsions:
REMARK  status: ('A' for Active; 'I' for Inactive)
REMARK    1  A    between atoms: C_5  and  C_12
REMARK    2  A    between atoms: C_6  and  O_24
REMARK    3  A    between atoms: C_9  and  O_26
REMARK    4  A    between atoms: C_10  and  O_20
REMARK    5  A    between atoms: C_11  and  O_22
REMARK    6  A    between atoms: C_17  and  O_18
REMARK                            x       y       z     vdW  Elec       q    Type
REMARK                         _______ _______ _______ _____ _____    ______ ____
ROOT
ATOM      1  O   UNL     1     -34.258  26.396   3.897  0.00  0.00    -0.450 OA
ATOM      2  O   UNL     1     -37.171  27.874   1.461  0.00  0.00    -0.283 OA
ATOM      3  C   UNL     1     -35.118  28.234   2.565  0.00  0.00    +0.113 A 
ATOM      4  C   UNL     1     -34.157  27.670   3.400  0.00  0.00    +0.155 A 
ATOM      5  C   UNL     1     -35.369  25.641   3.559  0.00  0.00    +0.182 A 
ATOM      6  C   UNL     1     -34.962  29.539   2.088  0.00  0.00    +0.177 C 
ATOM      7  C   UNL     1     -36.295  27.434   2.194  0.00  0.00    +0.238 A 
ATOM      8  C   UNL     1     -33.031  28.408   3.765  0.00  0.00    +0.078 C 
ATOM      9  C   UNL     1     -36.362  26.062   2.754  0.00  0.00    +0.208 A 
ATOM     10  C   UNL     1     -33.834  30.274   2.455  0.00  0.00    +0.206 C 
ATOM     11  C   UNL     1     -32.870  29.711   3.292  0.00  0.00    +0.178 C 
ENDROOT
BRANCH   5  12
ATOM     12  C   UNL     1     -35.351  24.293   4.155  0.00  0.00    +0.038 C 
ATOM     13  C   UNL     1     -35.352  24.141   5.542  0.00  0.00    +0.006 C 
ATOM     14  C   UNL     1     -35.333  23.166   3.332  0.00  0.00    +0.006 C 
ATOM     15  C   UNL     1     -35.334  22.865   6.106  0.00  0.00    +0.037 C 
ATOM     16  C   UNL     1     -35.316  21.890   3.895  0.00  0.00    +0.037 C 
ATOM     17  C   UNL     1     -35.316  21.739   5.283  0.00  0.00    +0.134 C 
BRANCH  17  18
ATOM     18  O   UNL     1     -35.300  20.495   5.832  0.00  0.00    -0.506 OA
ATOM     19  H   UNL     1     -34.977  19.769   5.337  0.00  0.00    +0.292 HD
ENDBRANCH  17  18
ENDBRANCH   5  12
BRANCH  10  20
ATOM     20  O   UNL     1     -33.671  31.549   1.996  0.00  0.00    -0.465 OA
ATOM     21  C   UNL     1     -32.948  31.709   0.778  0.00  0.00    +0.253 C 
ENDBRANCH  10  20
BRANCH  11  22
ATOM     22  O   UNL     1     -31.766  30.422   3.653  0.00  0.00    -0.468 OA
ATOM     23  C   UNL     1     -31.591  30.682   5.044  0.00  0.00    +0.253 C 
ENDBRANCH  11  22
BRANCH   6  24
ATOM     24  O   UNL     1     -35.881  30.124   1.269  0.00  0.00    -0.503 OA
ATOM     25  H   UNL     1     -35.675  30.278   0.368  0.00  0.00    +0.292 HD
ENDBRANCH   6  24
BRANCH   9  26
ATOM     26  O   UNL     1     -37.438  25.274   2.410  0.00  0.00    -0.501 OA
ATOM     27  H   UNL     1     -37.330  24.348   2.314  0.00  0.00    +0.292 HD
ENDBRANCH   9  26
TORSDOF 6
ENDMDL
MODEL 7
REMARK VINA RESULT:      -5.7      1.968      2.757
REMARK  Name = 5748611
REMARK  6 active torsions:
REMARK  status: ('A' for Active; 'I' for Inactive)
REMARK    1  A    between atoms: C_5  and  C_12
REMARK    2  A    between atoms: C_6  and  O_24
REMARK    3  A    between atoms: C_9  and  O_26
REMARK    4  A    between atoms: C_10  and  O_20
REMARK    5  A    between atoms: C_11  and  O_22
REMARK    6  A    between atoms: C_17  and  O_18
REMARK                            x       y       z     vdW  Elec       q    Type
REMARK                         _______ _______ _______ _____ _____    ______ ____
ROOT
ATOM      1  O   UNL     1     -34.424  24.935   4.019  0.00  0.00    -0.450 OA
ATOM      2  O   UNL     1     -37.321  26.847   1.885  0.00  0.00    -0.283 OA
ATOM      3  C   UNL     1     -36.351  24.802   2.549  0.00  0.00    +0.113 A 
ATOM      4  C   UNL     1     -35.338  24.210   3.300  0.00  0.00    +0.155 A 
ATOM      5  C   UNL     1     -34.507  26.318   3.991  0.00  0.00    +0.182 A 
ATOM      6  C   UNL     1     -37.256  24.012   1.835  0.00  0.00    +0.177 C 
ATOM      7  C   UNL     1     -36.451  26.270   2.523  0.00  0.00    +0.238 A 
ATOM      8  C   UNL     1     -35.224  22.820   3.341  0.00  0.00    +0.078 C 
ATOM      9  C   UNL     1     -35.442  27.012   3.316  0.00  0.00    +0.208 A 
ATOM     10  C   UNL     1     -37.137  22.622   1.879  0.00  0.00    +0.206 C 
ATOM     11  C   UNL     1     -36.124  22.026   2.630  0.00  0.00    +0.178 C 
ENDROOT
BRANCH   5  12
ATOM     12  C   UNL     1     -33.470  26.973   4.808  0.00  0.00    +0.038 C 
ATOM     13  C   UNL     1     -32.538  27.820   4.208  0.00  0.00    +0.006 C 
ATOM     14  C   UNL     1     -33.418  26.745   6.184  0.00  0.00    +0.006 C 
ATOM     15  C   UNL     1     -31.556  28.439   4.982  0.00  0.00    +0.037 C 
ATOM     16  C   UNL     1     -32.437  27.364   6.958  0.00  0.00    +0.037 C 
ATOM     17  C   UNL     1     -31.505  28.211   6.357  0.00  0.00    +0.134 C 
BRANCH  17  18
ATOM     18  O   UNL     1     -30.548  28.816   7.112  0.00  0.00    -0.506 OA
ATOM     19  H   UNL     1     -29.782  29.167   6.703  0.00  0.00    +0.292 HD
ENDBRANCH  17  18
ENDBRANCH   5  12
BRANCH  10  20
ATOM     20  O   UNL     1     -38.015  21.840   1.185  0.00  0.00    -0.465 OA
ATOM     21  C   UNL     1     -39.235  21.501   1.840  0.00  0.00    +0.253 C 
ENDBRANCH  10  20
BRANCH  11  22
ATOM     22  O   UNL     1     -36.003  20.671   2.679  0.00  0.00    -0.468 OA
ATOM     23  C   UNL     1     -34.935  20.089   1.935  0.00  0.00    +0.253 C 
ENDBRANCH  11  22
BRANCH   6  24
ATOM     24  O   UNL     1     -38.260  24.555   1.089  0.00  0.00    -0.503 OA
ATOM     25  H   UNL     1     -38.573  24.107   0.329  0.00  0.00    +0.292 HD
ENDBRANCH   6  24
BRANCH   9  26
ATOM     26  O   UNL     1     -35.518  28.388   3.336  0.00  0.00    -0.501 OA
ATOM     27  H   UNL     1     -35.207  28.885   2.606  0.00  0.00    +0.292 HD
ENDBRANCH   9  26
TORSDOF 6
ENDMDL
MODEL 8
REMARK VINA RESULT:      -5.7      4.952      7.664
REMARK  Name = 5748611
REMARK  6 active torsions:
REMARK  status: ('A' for Active; 'I' for Inactive)
REMARK    1  A    between atoms: C_5  and  C_12
REMARK    2  A    between atoms: C_6  and  O_24
REMARK    3  A    between atoms: C_9  and  O_26
REMARK    4  A    between atoms: C_10  and  O_20
REMARK    5  A    between atoms: C_11  and  O_22
REMARK    6  A    between atoms: C_17  and  O_18
REMARK                            x       y       z     vdW  Elec       q    Type
REMARK                         _______ _______ _______ _____ _____    ______ ____
ROOT
ATOM      1  O   UNL     1     -34.634  21.085   2.334  0.00  0.00    -0.450 OA
ATOM      2  O   UNL     1     -38.195  20.349   0.496  0.00  0.00    -0.283 OA
ATOM      3  C   UNL     1     -35.962  19.685   0.862  0.00  0.00    +0.113 A 
ATOM      4  C   UNL     1     -34.773  19.991   1.520  0.00  0.00    +0.155 A 
ATOM      5  C   UNL     1     -35.722  21.927   2.503  0.00  0.00    +0.182 A 
ATOM      6  C   UNL     1     -36.046  18.555   0.044  0.00  0.00    +0.177 C 
ATOM      7  C   UNL     1     -37.124  20.569   1.045  0.00  0.00    +0.238 A 
ATOM      8  C   UNL     1     -33.658  19.167   1.364  0.00  0.00    +0.078 C 
ATOM      9  C   UNL     1     -36.927  21.739   1.934  0.00  0.00    +0.208 A 
ATOM     10  C   UNL     1     -34.929  17.733  -0.109  0.00  0.00    +0.206 C 
ATOM     11  C   UNL     1     -33.737  18.038   0.549  0.00  0.00    +0.178 C 
ENDROOT
BRANCH   5  12
ATOM     12  C   UNL     1     -35.438  23.059   3.403  0.00  0.00    +0.038 C 
ATOM     13  C   UNL     1     -35.660  22.936   4.775  0.00  0.00    +0.006 C 
ATOM     14  C   UNL     1     -34.947  24.258   2.883  0.00  0.00    +0.006 C 
ATOM     15  C   UNL     1     -35.391  24.008   5.626  0.00  0.00    +0.037 C 
ATOM     16  C   UNL     1     -34.678  25.330   3.734  0.00  0.00    +0.037 C 
ATOM     17  C   UNL     1     -34.900  25.205   5.106  0.00  0.00    +0.134 C 
BRANCH  17  18
ATOM     18  O   UNL     1     -34.637  26.250   5.936  0.00  0.00    -0.506 OA
ATOM     19  H   UNL     1     -34.057  26.136   6.662  0.00  0.00    +0.292 HD
ENDBRANCH  17  18
ENDBRANCH   5  12
BRANCH  10  20
ATOM     20  O   UNL     1     -34.999  16.627  -0.906  0.00  0.00    -0.465 OA
ATOM     21  C   UNL     1     -35.380  15.404  -0.280  0.00  0.00    +0.253 C 
ENDBRANCH  10  20
BRANCH  11  22
ATOM     22  O   UNL     1     -32.642  17.240   0.405  0.00  0.00    -0.468 OA
ATOM     23  C   UNL     1     -31.383  17.795   0.780  0.00  0.00    +0.253 C 
ENDBRANCH  11  22
BRANCH   6  24
ATOM     24  O   UNL     1     -37.192  18.223  -0.616  0.00  0.00    -0.503 OA
ATOM     25  H   UNL     1     -37.160  17.631  -1.341  0.00  0.00    +0.292 HD
ENDBRANCH   6  24
BRANCH   9  26
ATOM     26  O   UNL     1     -37.999  22.577   2.149  0.00  0.00    -0.501 OA
ATOM     27  H   UNL     1     -38.662  22.341   2.766  0.00  0.00    +0.292 HD
ENDBRANCH   9  26
TORSDOF 6
ENDMDL
MODEL 9
REMARK VINA RESULT:      -5.7      5.923      8.497
REMARK  Name = 5748611
REMARK  6 active torsions:
REMARK  status: ('A' for Active; 'I' for Inactive)
REMARK    1  A    between atoms: C_5  and  C_12
REMARK    2  A    between atoms: C_6  and  O_24
REMARK    3  A    between atoms: C_9  and  O_26
REMARK    4  A    between atoms: C_10  and  O_20
REMARK    5  A    between atoms: C_11  and  O_22
REMARK    6  A    between atoms: C_17  and  O_18
REMARK                            x       y       z     vdW  Elec       q    Type
REMARK                         _______ _______ _______ _____ _____    ______ ____
ROOT
ATOM      1  O   UNL     1     -36.486  21.883   0.992  0.00  0.00    -0.450 OA
ATOM      2  O   UNL     1     -36.447  22.894   4.939  0.00  0.00    -0.283 OA
ATOM      3  C   UNL     1     -37.161  23.412   2.752  0.00  0.00    +0.113 A 
ATOM      4  C   UNL     1     -37.138  23.011   1.418  0.00  0.00    +0.155 A 
ATOM      5  C   UNL     1     -35.814  21.113   1.928  0.00  0.00    +0.182 A 
ATOM      6  C   UNL     1     -37.843  24.573   3.129  0.00  0.00    +0.177 C 
ATOM      7  C   UNL     1     -36.459  22.594   3.752  0.00  0.00    +0.238 A 
ATOM      8  C   UNL     1     -37.798  23.769   0.450  0.00  0.00    +0.078 C 
ATOM      9  C   UNL     1     -35.768  21.384   3.246  0.00  0.00    +0.208 A 
ATOM     10  C   UNL     1     -38.502  25.328   2.158  0.00  0.00    +0.206 C 
ATOM     11  C   UNL     1     -38.480  24.928   0.821  0.00  0.00    +0.178 C 
ENDROOT
BRANCH   5  12
ATOM     12  C   UNL     1     -35.161  19.931   1.339  0.00  0.00    +0.038 C 
ATOM     13  C   UNL     1     -33.849  19.609   1.687  0.00  0.00    +0.006 C 
ATOM     14  C   UNL     1     -35.856  19.131   0.430  0.00  0.00    +0.006 C 
ATOM     15  C   UNL     1     -33.232  18.490   1.128  0.00  0.00    +0.037 C 
ATOM     16  C   UNL     1     -35.239  18.011  -0.128  0.00  0.00    +0.037 C 
ATOM     17  C   UNL     1     -33.926  17.691   0.220  0.00  0.00    +0.134 C 
BRANCH  17  18
ATOM     18  O   UNL     1     -33.325  16.599  -0.324  0.00  0.00    -0.506 OA
ATOM     19  H   UNL     1     -32.648  16.707  -0.963  0.00  0.00    +0.292 HD
ENDBRANCH  17  18
ENDBRANCH   5  12
BRANCH  10  20
ATOM     20  O   UNL     1     -39.171  26.463   2.514  0.00  0.00    -0.465 OA
ATOM     21  C   UNL     1     -40.550  26.323   2.848  0.00  0.00    +0.253 C 
ENDBRANCH  10  20
BRANCH  11  22
ATOM     22  O   UNL     1     -39.122  25.659  -0.131  0.00  0.00    -0.468 OA
ATOM     23  C   UNL     1     -40.231  25.043  -0.782  0.00  0.00    +0.253 C 
ENDBRANCH  11  22
BRANCH   6  24
ATOM     24  O   UNL     1     -37.888  24.997   4.424  0.00  0.00    -0.503 OA
ATOM     25  H   UNL     1     -38.441  25.714   4.662  0.00  0.00    +0.292 HD
ENDBRANCH   6  24
BRANCH   9  26
ATOM     26  O   UNL     1     -35.119  20.579   4.157  0.00  0.00    -0.501 OA
ATOM     27  H   UNL     1     -34.846  20.930   4.981  0.00  0.00    +0.292 HD
ENDBRANCH   9  26
TORSDOF 6
ENDMDL
