MODEL 1
REMARK VINA RESULT:      -4.8      0.000      0.000
REMARK  Name = 19981195
REMARK  14 active torsions:
REMARK  status: ('A' for Active; 'I' for Inactive)
REMARK    1  A    between atoms: C_1  and  O_2
REMARK    2  A    between atoms: C_1  and  C_5
REMARK    3  A    between atoms: C_1  and  C_10
REMARK    4  A    between atoms: C_1  and  C_14
REMARK    5  A    between atoms: C_5  and  C_6
REMARK    6  A    between atoms: C_6  and  C_7
REMARK    7  A    between atoms: C_10  and  C_11
REMARK    8  A    between atoms: C_11  and  C_12
REMARK    9  A    between atoms: C_14  and  O_15
REMARK   10  A    between atoms: C_14  and  C_18
REMARK   11  A    between atoms: C_14  and  C_22
REMARK   12  A    between atoms: C_18  and  C_19
REMARK   13  A    between atoms: C_19  and  C_20
REMARK   14  A    between atoms: C_22  and  O_23
REMARK                            x       y       z     vdW  Elec       q    Type
REMARK                         _______ _______ _______ _____ _____    ______ ____
ROOT
ATOM      1  C   UNL     1     -36.461  23.276   2.819  0.00  0.00    +0.221 C 
ENDROOT
BRANCH   1   2
ATOM      2  O   UNL     1     -37.002  22.649   3.983  0.00  0.00    -0.371 OA
ATOM      3  H   UNL     1     -36.676  21.737   4.038  0.00  0.00    +0.211 HD
ENDBRANCH   1   2
BRANCH   1   5
ATOM      4  O   UNL     1     -34.326  24.353   2.425  0.00  0.00    -0.293 OA
ATOM      5  C   UNL     1     -35.084  23.831   3.247  0.00  0.00    +0.184 C 
BRANCH   5   6
ATOM      6  C   UNL     1     -34.702  23.761   4.721  0.00  0.00    +0.068 C 
BRANCH   6   7
ATOM      7  C   UNL     1     -34.534  25.138   5.362  0.00  0.00    +0.008 C 
ATOM      8  C   UNL     1     -35.862  25.849   5.577  0.00  0.00    +0.000 C 
ENDBRANCH   6   7
ENDBRANCH   5   6
ENDBRANCH   1   5
BRANCH   1  10
ATOM      9  O   UNL     1     -37.296  25.058   1.382  0.00  0.00    -0.293 OA
ATOM     10  C   UNL     1     -37.430  24.411   2.423  0.00  0.00    +0.184 C 
BRANCH  10  11
ATOM     11  C   UNL     1     -38.566  24.754   3.370  0.00  0.00    +0.068 C 
BRANCH  11  12
ATOM     12  C   UNL     1     -39.906  24.689   2.648  0.00  0.00    +0.008 C 
ATOM     13  C   UNL     1     -40.764  25.904   2.958  0.00  0.00    +0.000 C 
ENDBRANCH  11  12
ENDBRANCH  10  11
ENDBRANCH   1  10
BRANCH   1  14
ATOM     14  C   UNL     1     -36.318  22.172   1.723  0.00  0.00    +0.201 C 
BRANCH  14  15
ATOM     15  O   UNL     1     -35.706  22.761   0.568  0.00  0.00    -0.375 OA
ATOM     16  H   UNL     1     -36.388  23.179   0.018  0.00  0.00    +0.211 HD
ENDBRANCH  14  15
BRANCH  14  18
ATOM     17  O   UNL     1     -35.498  20.438   3.210  0.00  0.00    -0.293 OA
ATOM     18  C   UNL     1     -35.363  21.020   2.130  0.00  0.00    +0.180 C 
BRANCH  18  19
ATOM     19  C   UNL     1     -34.246  20.629   1.171  0.00  0.00    +0.067 C 
BRANCH  19  20
ATOM     20  C   UNL     1     -33.710  19.226   1.450  0.00  0.00    +0.008 C 
ATOM     21  C   UNL     1     -32.324  19.031   0.855  0.00  0.00    +0.000 C 
ENDBRANCH  19  20
ENDBRANCH  18  19
ENDBRANCH  14  18
BRANCH  14  22
ATOM     22  C   UNL     1     -37.676  21.594   1.281  0.00  0.00    +0.174 C 
BRANCH  22  23
ATOM     23  O   UNL     1     -38.268  20.866   2.355  0.00  0.00    -0.379 OA
ATOM     24  H   UNL     1     -39.101  21.291   2.614  0.00  0.00    +0.211 HD
ENDBRANCH  22  23
ENDBRANCH  14  22
ENDBRANCH   1  14
TORSDOF 14
ENDMDL
MODEL 2
REMARK VINA RESULT:      -4.8      3.193      4.672
REMARK  Name = 19981195
REMARK  14 active torsions:
REMARK  status: ('A' for Active; 'I' for Inactive)
REMARK    1  A    between atoms: C_1  and  O_2
REMARK    2  A    between atoms: C_1  and  C_5
REMARK    3  A    between atoms: C_1  and  C_10
REMARK    4  A    between atoms: C_1  and  C_14
REMARK    5  A    between atoms: C_5  and  C_6
REMARK    6  A    between atoms: C_6  and  C_7
REMARK    7  A    between atoms: C_10  and  C_11
REMARK    8  A    between atoms: C_11  and  C_12
REMARK    9  A    between atoms: C_14  and  O_15
REMARK   10  A    between atoms: C_14  and  C_18
REMARK   11  A    between atoms: C_14  and  C_22
REMARK   12  A    between atoms: C_18  and  C_19
REMARK   13  A    between atoms: C_19  and  C_20
REMARK   14  A    between atoms: C_22  and  O_23
REMARK                            x       y       z     vdW  Elec       q    Type
REMARK                         _______ _______ _______ _____ _____    ______ ____
ROOT
ATOM      1  C   UNL     1     -35.002  26.598   3.589  0.00  0.00    +0.221 C 
ENDROOT
BRANCH   1   2
ATOM      2  O   UNL     1     -35.891  27.252   4.496  0.00  0.00    -0.371 OA
ATOM      3  H   UNL     1     -36.094  26.656   5.234  0.00  0.00    +0.211 HD
ENDBRANCH   1   2
BRANCH   1   5
ATOM      4  O   UNL     1     -32.884  25.474   3.947  0.00  0.00    -0.293 OA
ATOM      5  C   UNL     1     -33.831  26.081   4.455  0.00  0.00    +0.184 C 
BRANCH   5   6
ATOM      6  C   UNL     1     -33.849  26.381   5.950  0.00  0.00    +0.068 C 
BRANCH   6   7
ATOM      7  C   UNL     1     -32.621  27.158   6.420  0.00  0.00    +0.008 C 
ATOM      8  C   UNL     1     -32.278  28.321   5.499  0.00  0.00    +0.000 C 
ENDBRANCH   6   7
ENDBRANCH   5   6
ENDBRANCH   1   5
BRANCH   1  10
ATOM      9  O   UNL     1     -33.921  27.360   1.542  0.00  0.00    -0.293 OA
ATOM     10  C   UNL     1     -34.527  27.659   2.573  0.00  0.00    +0.184 C 
BRANCH  10  11
ATOM     11  C   UNL     1     -34.797  29.122   2.879  0.00  0.00    +0.068 C 
BRANCH  11  12
ATOM     12  C   UNL     1     -35.764  29.715   1.861  0.00  0.00    +0.008 C 
ATOM     13  C   UNL     1     -36.108  31.156   2.195  0.00  0.00    +0.000 C 
ENDBRANCH  11  12
ENDBRANCH  10  11
ENDBRANCH   1  10
BRANCH   1  14
ATOM     14  C   UNL     1     -35.792  25.421   2.933  0.00  0.00    +0.201 C 
BRANCH  14  15
ATOM     15  O   UNL     1     -34.871  24.632   2.169  0.00  0.00    -0.375 OA
ATOM     16  H   UNL     1     -34.296  25.217   1.651  0.00  0.00    +0.211 HD
ENDBRANCH  14  15
BRANCH  14  18
ATOM     17  O   UNL     1     -37.357  24.759   4.667  0.00  0.00    -0.293 OA
ATOM     18  C   UNL     1     -36.395  24.434   3.965  0.00  0.00    +0.180 C 
BRANCH  18  19
ATOM     19  C   UNL     1     -35.765  23.053   4.104  0.00  0.00    +0.067 C 
BRANCH  19  20
ATOM     20  C   UNL     1     -34.941  22.919   5.383  0.00  0.00    +0.008 C 
ATOM     21  C   UNL     1     -35.533  21.879   6.321  0.00  0.00    +0.000 C 
ENDBRANCH  19  20
ENDBRANCH  18  19
ENDBRANCH  14  18
BRANCH  14  22
ATOM     22  C   UNL     1     -36.892  25.909   1.971  0.00  0.00    +0.174 C 
BRANCH  22  23
ATOM     23  O   UNL     1     -37.842  26.703   2.679  0.00  0.00    -0.379 OA
ATOM     24  H   UNL     1     -38.674  26.212   2.766  0.00  0.00    +0.211 HD
ENDBRANCH  22  23
ENDBRANCH  14  22
ENDBRANCH   1  14
TORSDOF 14
ENDMDL
MODEL 3
REMARK VINA RESULT:      -4.5      2.982      5.584
REMARK  Name = 19981195
REMARK  14 active torsions:
REMARK  status: ('A' for Active; 'I' for Inactive)
REMARK    1  A    between atoms: C_1  and  O_2
REMARK    2  A    between atoms: C_1  and  C_5
REMARK    3  A    between atoms: C_1  and  C_10
REMARK    4  A    between atoms: C_1  and  C_14
REMARK    5  A    between atoms: C_5  and  C_6
REMARK    6  A    between atoms: C_6  and  C_7
REMARK    7  A    between atoms: C_10  and  C_11
REMARK    8  A    between atoms: C_11  and  C_12
REMARK    9  A    between atoms: C_14  and  O_15
REMARK   10  A    between atoms: C_14  and  C_18
REMARK   11  A    between atoms: C_14  and  C_22
REMARK   12  A    between atoms: C_18  and  C_19
REMARK   13  A    between atoms: C_19  and  C_20
REMARK   14  A    between atoms: C_22  and  O_23
REMARK                            x       y       z     vdW  Elec       q    Type
REMARK                         _______ _______ _______ _____ _____    ______ ____
ROOT
ATOM      1  C   UNL     1     -35.139  25.750   3.290  0.00  0.00    +0.221 C 
ENDROOT
BRANCH   1   2
ATOM      2  O   UNL     1     -34.274  24.709   2.833  0.00  0.00    -0.371 OA
ATOM      3  H   UNL     1     -34.211  24.021   3.514  0.00  0.00    +0.211 HD
ENDBRANCH   1   2
BRANCH   1   5
ATOM      4  O   UNL     1     -35.809  26.404   5.526  0.00  0.00    -0.293 OA
ATOM      5  C   UNL     1     -35.231  25.572   4.823  0.00  0.00    +0.184 C 
BRANCH   5   6
ATOM      6  C   UNL     1     -34.630  24.315   5.442  0.00  0.00    +0.068 C 
BRANCH   6   7
ATOM      7  C   UNL     1     -35.663  23.218   5.694  0.00  0.00    +0.008 C 
ATOM      8  C   UNL     1     -35.023  21.866   5.976  0.00  0.00    +0.000 C 
ENDBRANCH   6   7
ENDBRANCH   5   6
ENDBRANCH   1   5
BRANCH   1  10
ATOM      9  O   UNL     1     -37.433  26.342   2.721  0.00  0.00    -0.293 OA
ATOM     10  C   UNL     1     -36.509  25.533   2.613  0.00  0.00    +0.184 C 
BRANCH  10  11
ATOM     11  C   UNL     1     -36.725  24.260   1.813  0.00  0.00    +0.068 C 
BRANCH  11  12
ATOM     12  C   UNL     1     -37.591  23.277   2.591  0.00  0.00    +0.008 C 
ATOM     13  C   UNL     1     -37.206  21.838   2.289  0.00  0.00    +0.000 C 
ENDBRANCH  11  12
ENDBRANCH  10  11
ENDBRANCH   1  10
BRANCH   1  14
ATOM     14  C   UNL     1     -34.468  27.109   2.912  0.00  0.00    +0.201 C 
BRANCH  14  15
ATOM     15  O   UNL     1     -35.228  28.168   3.510  0.00  0.00    -0.375 OA
ATOM     16  H   UNL     1     -34.957  29.017   3.126  0.00  0.00    +0.211 HD
ENDBRANCH  14  15
BRANCH  14  18
ATOM     17  O   UNL     1     -32.166  26.429   3.270  0.00  0.00    -0.293 OA
ATOM     18  C   UNL     1     -33.040  27.273   3.491  0.00  0.00    +0.180 C 
BRANCH  18  19
ATOM     19  C   UNL     1     -32.740  28.496   4.349  0.00  0.00    +0.067 C 
BRANCH  19  20
ATOM     20  C   UNL     1     -31.812  28.168   5.517  0.00  0.00    +0.008 C 
ATOM     21  C   UNL     1     -32.552  27.440   6.629  0.00  0.00    +0.000 C 
ENDBRANCH  19  20
ENDBRANCH  18  19
ENDBRANCH  14  18
BRANCH  14  22
ATOM     22  C   UNL     1     -34.448  27.357   1.391  0.00  0.00    +0.174 C 
BRANCH  22  23
ATOM     23  O   UNL     1     -33.441  26.553   0.779  0.00  0.00    -0.379 OA
ATOM     24  H   UNL     1     -32.779  26.304   1.442  0.00  0.00    +0.211 HD
ENDBRANCH  22  23
ENDBRANCH  14  22
ENDBRANCH   1  14
TORSDOF 14
ENDMDL
MODEL 4
REMARK VINA RESULT:      -4.4      2.169      4.825
REMARK  Name = 19981195
REMARK  14 active torsions:
REMARK  status: ('A' for Active; 'I' for Inactive)
REMARK    1  A    between atoms: C_1  and  O_2
REMARK    2  A    between atoms: C_1  and  C_5
REMARK    3  A    between atoms: C_1  and  C_10
REMARK    4  A    between atoms: C_1  and  C_14
REMARK    5  A    between atoms: C_5  and  C_6
REMARK    6  A    between atoms: C_6  and  C_7
REMARK    7  A    between atoms: C_10  and  C_11
REMARK    8  A    between atoms: C_11  and  C_12
REMARK    9  A    between atoms: C_14  and  O_15
REMARK   10  A    between atoms: C_14  and  C_18
REMARK   11  A    between atoms: C_14  and  C_22
REMARK   12  A    between atoms: C_18  and  C_19
REMARK   13  A    between atoms: C_19  and  C_20
REMARK   14  A    between atoms: C_22  and  O_23
REMARK                            x       y       z     vdW  Elec       q    Type
REMARK                         _______ _______ _______ _____ _____    ______ ____
ROOT
ATOM      1  C   UNL     1     -36.628  25.295   2.328  0.00  0.00    +0.221 C 
ENDROOT
BRANCH   1   2
ATOM      2  O   UNL     1     -35.667  25.259   1.272  0.00  0.00    -0.371 OA
ATOM      3  H   UNL     1     -36.068  24.858   0.485  0.00  0.00    +0.211 HD
ENDBRANCH   1   2
BRANCH   1   5
ATOM      4  O   UNL     1     -37.829  23.525   3.467  0.00  0.00    -0.293 OA
ATOM      5  C   UNL     1     -36.991  23.820   2.611  0.00  0.00    +0.184 C 
BRANCH   5   6
ATOM      6  C   UNL     1     -36.324  22.737   1.771  0.00  0.00    +0.068 C 
BRANCH   6   7
ATOM      7  C   UNL     1     -36.548  21.329   2.320  0.00  0.00    +0.008 C 
ATOM      8  C   UNL     1     -35.253  20.540   2.453  0.00  0.00    +0.000 C 
ENDBRANCH   6   7
ENDBRANCH   5   6
ENDBRANCH   1   5
BRANCH   1  10
ATOM      9  O   UNL     1     -38.697  26.560   2.564  0.00  0.00    -0.293 OA
ATOM     10  C   UNL     1     -37.846  26.088   1.807  0.00  0.00    +0.184 C 
BRANCH  10  11
ATOM     11  C   UNL     1     -38.006  26.260   0.307  0.00  0.00    +0.068 C 
BRANCH  11  12
ATOM     12  C   UNL     1     -38.887  25.158  -0.269  0.00  0.00    +0.008 C 
ATOM     13  C   UNL     1     -38.103  24.251  -1.202  0.00  0.00    +0.000 C 
ENDBRANCH  11  12
ENDBRANCH  10  11
ENDBRANCH   1  10
BRANCH   1  14
ATOM     14  C   UNL     1     -35.936  25.960   3.561  0.00  0.00    +0.201 C 
BRANCH  14  15
ATOM     15  O   UNL     1     -36.906  26.081   4.610  0.00  0.00    -0.375 OA
ATOM     16  H   UNL     1     -37.408  25.254   4.683  0.00  0.00    +0.211 HD
ENDBRANCH  14  15
BRANCH  14  18
ATOM     17  O   UNL     1     -33.715  24.980   3.596  0.00  0.00    -0.293 OA
ATOM     18  C   UNL     1     -34.802  25.097   4.170  0.00  0.00    +0.180 C 
BRANCH  18  19
ATOM     19  C   UNL     1     -35.061  24.385   5.492  0.00  0.00    +0.067 C 
BRANCH  19  20
ATOM     20  C   UNL     1     -34.752  22.891   5.414  0.00  0.00    +0.008 C 
ATOM     21  C   UNL     1     -35.593  22.096   6.401  0.00  0.00    +0.000 C 
ENDBRANCH  19  20
ENDBRANCH  18  19
ENDBRANCH  14  18
BRANCH  14  22
ATOM     22  C   UNL     1     -35.409  27.375   3.254  0.00  0.00    +0.174 C 
BRANCH  22  23
ATOM     23  O   UNL     1     -34.378  27.723   4.176  0.00  0.00    -0.379 OA
ATOM     24  H   UNL     1     -33.764  26.979   4.271  0.00  0.00    +0.211 HD
ENDBRANCH  22  23
ENDBRANCH  14  22
ENDBRANCH   1  14
TORSDOF 14
ENDMDL
MODEL 5
REMARK VINA RESULT:      -4.4      1.600      4.461
REMARK  Name = 19981195
REMARK  14 active torsions:
REMARK  status: ('A' for Active; 'I' for Inactive)
REMARK    1  A    between atoms: C_1  and  O_2
REMARK    2  A    between atoms: C_1  and  C_5
REMARK    3  A    between atoms: C_1  and  C_10
REMARK    4  A    between atoms: C_1  and  C_14
REMARK    5  A    between atoms: C_5  and  C_6
REMARK    6  A    between atoms: C_6  and  C_7
REMARK    7  A    between atoms: C_10  and  C_11
REMARK    8  A    between atoms: C_11  and  C_12
REMARK    9  A    between atoms: C_14  and  O_15
REMARK   10  A    between atoms: C_14  and  C_18
REMARK   11  A    between atoms: C_14  and  C_22
REMARK   12  A    between atoms: C_18  and  C_19
REMARK   13  A    between atoms: C_19  and  C_20
REMARK   14  A    between atoms: C_22  and  O_23
REMARK                            x       y       z     vdW  Elec       q    Type
REMARK                         _______ _______ _______ _____ _____    ______ ____
ROOT
ATOM      1  C   UNL     1     -36.545  23.509   2.980  0.00  0.00    +0.221 C 
ENDROOT
BRANCH   1   2
ATOM      2  O   UNL     1     -37.324  22.691   3.855  0.00  0.00    -0.371 OA
ATOM      3  H   UNL     1     -37.472  23.162   4.690  0.00  0.00    +0.211 HD
ENDBRANCH   1   2
BRANCH   1   5
ATOM      4  O   UNL     1     -34.966  22.928   1.236  0.00  0.00    -0.293 OA
ATOM      5  C   UNL     1     -35.654  22.532   2.181  0.00  0.00    +0.184 C 
BRANCH   5   6
ATOM      6  C   UNL     1     -35.607  21.073   2.618  0.00  0.00    +0.068 C 
BRANCH   6   7
ATOM      7  C   UNL     1     -35.330  20.110   1.465  0.00  0.00    +0.008 C 
ATOM      8  C   UNL     1     -33.949  19.475   1.553  0.00  0.00    +0.000 C 
ENDBRANCH   6   7
ENDBRANCH   5   6
ENDBRANCH   1   5
BRANCH   1  10
ATOM      9  O   UNL     1     -35.003  25.349   3.398  0.00  0.00    -0.293 OA
ATOM     10  C   UNL     1     -35.701  24.447   3.869  0.00  0.00    +0.184 C 
BRANCH  10  11
ATOM     11  C   UNL     1     -35.713  24.224   5.371  0.00  0.00    +0.068 C 
BRANCH  11  12
ATOM     12  C   UNL     1     -34.673  23.184   5.768  0.00  0.00    +0.008 C 
ATOM     13  C   UNL     1     -35.316  21.983   6.441  0.00  0.00    +0.000 C 
ENDBRANCH  11  12
ENDBRANCH  10  11
ENDBRANCH   1  10
BRANCH   1  14
ATOM     14  C   UNL     1     -37.542  24.269   2.047  0.00  0.00    +0.201 C 
BRANCH  14  15
ATOM     15  O   UNL     1     -36.787  24.916   1.014  0.00  0.00    -0.375 OA
ATOM     16  H   UNL     1     -36.037  25.387   1.409  0.00  0.00    +0.211 HD
ENDBRANCH  14  15
BRANCH  14  18
ATOM     17  O   UNL     1     -39.376  22.686   1.903  0.00  0.00    -0.293 OA
ATOM     18  C   UNL     1     -38.517  23.329   1.293  0.00  0.00    +0.180 C 
BRANCH  18  19
ATOM     19  C   UNL     1     -38.385  23.208  -0.220  0.00  0.00    +0.067 C 
BRANCH  19  20
ATOM     20  C   UNL     1     -37.977  21.801  -0.654  0.00  0.00    +0.008 C 
ATOM     21  C   UNL     1     -36.760  21.831  -1.566  0.00  0.00    +0.000 C 
ENDBRANCH  19  20
ENDBRANCH  18  19
ENDBRANCH  14  18
BRANCH  14  22
ATOM     22  C   UNL     1     -38.336  25.360   2.791  0.00  0.00    +0.174 C 
BRANCH  22  23
ATOM     23  O   UNL     1     -39.114  24.772   3.833  0.00  0.00    -0.379 OA
ATOM     24  H   UNL     1     -38.609  24.788   4.660  0.00  0.00    +0.211 HD
ENDBRANCH  22  23
ENDBRANCH  14  22
ENDBRANCH   1  14
TORSDOF 14
ENDMDL
MODEL 6
REMARK VINA RESULT:      -4.4      3.604      5.345
REMARK  Name = 19981195
REMARK  14 active torsions:
REMARK  status: ('A' for Active; 'I' for Inactive)
REMARK    1  A    between atoms: C_1  and  O_2
REMARK    2  A    between atoms: C_1  and  C_5
REMARK    3  A    between atoms: C_1  and  C_10
REMARK    4  A    between atoms: C_1  and  C_14
REMARK    5  A    between atoms: C_5  and  C_6
REMARK    6  A    between atoms: C_6  and  C_7
REMARK    7  A    between atoms: C_10  and  C_11
REMARK    8  A    between atoms: C_11  and  C_12
REMARK    9  A    between atoms: C_14  and  O_15
REMARK   10  A    between atoms: C_14  and  C_18
REMARK   11  A    between atoms: C_14  and  C_22
REMARK   12  A    between atoms: C_18  and  C_19
REMARK   13  A    between atoms: C_19  and  C_20
REMARK   14  A    between atoms: C_22  and  O_23
REMARK                            x       y       z     vdW  Elec       q    Type
REMARK                         _______ _______ _______ _____ _____    ______ ____
ROOT
ATOM      1  C   UNL     1     -34.561  27.209   2.969  0.00  0.00    +0.221 C 
ENDROOT
BRANCH   1   2
ATOM      2  O   UNL     1     -35.294  28.236   3.638  0.00  0.00    -0.371 OA
ATOM      3  H   UNL     1     -36.226  28.191   3.374  0.00  0.00    +0.211 HD
ENDBRANCH   1   2
BRANCH   1   5
ATOM      4  O   UNL     1     -32.297  26.404   3.285  0.00  0.00    -0.293 OA
ATOM      5  C   UNL     1     -33.129  27.278   3.544  0.00  0.00    +0.184 C 
BRANCH   5   6
ATOM      6  C   UNL     1     -32.751  28.479   4.403  0.00  0.00    +0.068 C 
BRANCH   6   7
ATOM      7  C   UNL     1     -31.833  28.118   5.569  0.00  0.00    +0.008 C 
ATOM      8  C   UNL     1     -32.568  27.394   6.689  0.00  0.00    +0.000 C 
ENDBRANCH   6   7
ENDBRANCH   5   6
ENDBRANCH   1   5
BRANCH   1  10
ATOM      9  O   UNL     1     -34.220  26.735   0.603  0.00  0.00    -0.293 OA
ATOM     10  C   UNL     1     -34.583  27.542   1.462  0.00  0.00    +0.184 C 
BRANCH  10  11
ATOM     11  C   UNL     1     -35.040  28.926   1.036  0.00  0.00    +0.068 C 
BRANCH  11  12
ATOM     12  C   UNL     1     -33.846  29.857   0.864  0.00  0.00    +0.008 C 
ATOM     13  C   UNL     1     -33.880  30.997   1.868  0.00  0.00    +0.000 C 
ENDBRANCH  11  12
ENDBRANCH  10  11
ENDBRANCH   1  10
BRANCH   1  14
ATOM     14  C   UNL     1     -35.251  25.849   3.313  0.00  0.00    +0.201 C 
BRANCH  14  15
ATOM     15  O   UNL     1     -34.499  24.795   2.697  0.00  0.00    -0.375 OA
ATOM     16  H   UNL     1     -34.885  23.938   2.941  0.00  0.00    +0.211 HD
ENDBRANCH  14  15
BRANCH  14  18
ATOM     17  O   UNL     1     -35.719  26.291   5.654  0.00  0.00    -0.293 OA
ATOM     18  C   UNL     1     -35.231  25.515   4.827  0.00  0.00    +0.180 C 
BRANCH  18  19
ATOM     19  C   UNL     1     -34.586  24.210   5.274  0.00  0.00    +0.067 C 
BRANCH  19  20
ATOM     20  C   UNL     1     -35.614  23.203   5.788  0.00  0.00    +0.008 C 
ATOM     21  C   UNL     1     -35.006  21.818   5.947  0.00  0.00    +0.000 C 
ENDBRANCH  19  20
ENDBRANCH  18  19
ENDBRANCH  14  18
BRANCH  14  22
ATOM     22  C   UNL     1     -36.693  25.763   2.777  0.00  0.00    +0.174 C 
BRANCH  22  23
ATOM     23  O   UNL     1     -37.600  26.322   3.725  0.00  0.00    -0.379 OA
ATOM     24  H   UNL     1     -37.810  25.660   4.401  0.00  0.00    +0.211 HD
ENDBRANCH  22  23
ENDBRANCH  14  22
ENDBRANCH   1  14
TORSDOF 14
ENDMDL
MODEL 7
REMARK VINA RESULT:      -4.3      2.919      4.715
REMARK  Name = 19981195
REMARK  14 active torsions:
REMARK  status: ('A' for Active; 'I' for Inactive)
REMARK    1  A    between atoms: C_1  and  O_2
REMARK    2  A    between atoms: C_1  and  C_5
REMARK    3  A    between atoms: C_1  and  C_10
REMARK    4  A    between atoms: C_1  and  C_14
REMARK    5  A    between atoms: C_5  and  C_6
REMARK    6  A    between atoms: C_6  and  C_7
REMARK    7  A    between atoms: C_10  and  C_11
REMARK    8  A    between atoms: C_11  and  C_12
REMARK    9  A    between atoms: C_14  and  O_15
REMARK   10  A    between atoms: C_14  and  C_18
REMARK   11  A    between atoms: C_14  and  C_22
REMARK   12  A    between atoms: C_18  and  C_19
REMARK   13  A    between atoms: C_19  and  C_20
REMARK   14  A    between atoms: C_22  and  O_23
REMARK                            x       y       z     vdW  Elec       q    Type
REMARK                         _______ _______ _______ _____ _____    ______ ____
ROOT
ATOM      1  C   UNL     1     -34.127  26.191   3.598  0.00  0.00    +0.221 C 
ENDROOT
BRANCH   1   2
ATOM      2  O   UNL     1     -32.897  25.503   3.367  0.00  0.00    -0.371 OA
ATOM      3  H   UNL     1     -33.082  24.572   3.165  0.00  0.00    +0.211 HD
ENDBRANCH   1   2
BRANCH   1   5
ATOM      4  O   UNL     1     -34.591  28.568   3.531  0.00  0.00    -0.293 OA
ATOM      5  C   UNL     1     -33.751  27.684   3.721  0.00  0.00    +0.184 C 
BRANCH   5   6
ATOM      6  C   UNL     1     -32.327  28.041   4.129  0.00  0.00    +0.068 C 
BRANCH   6   7
ATOM      7  C   UNL     1     -32.161  28.213   5.638  0.00  0.00    +0.008 C 
ATOM      8  C   UNL     1     -31.791  29.638   6.026  0.00  0.00    +0.000 C 
ENDBRANCH   6   7
ENDBRANCH   5   6
ENDBRANCH   1   5
BRANCH   1  10
ATOM      9  O   UNL     1     -35.397  26.339   5.673  0.00  0.00    -0.293 OA
ATOM     10  C   UNL     1     -34.712  25.645   4.918  0.00  0.00    +0.184 C 
BRANCH  10  11
ATOM     11  C   UNL     1     -34.400  24.210   5.306  0.00  0.00    +0.068 C 
BRANCH  11  12
ATOM     12  C   UNL     1     -35.684  23.443   5.603  0.00  0.00    +0.008 C 
ATOM     13  C   UNL     1     -35.393  22.117   6.286  0.00  0.00    +0.000 C 
ENDBRANCH  11  12
ENDBRANCH  10  11
ENDBRANCH   1  10
BRANCH   1  14
ATOM     14  C   UNL     1     -35.043  25.931   2.360  0.00  0.00    +0.201 C 
BRANCH  14  15
ATOM     15  O   UNL     1     -34.758  26.929   1.371  0.00  0.00    -0.375 OA
ATOM     16  H   UNL     1     -35.101  26.639   0.511  0.00  0.00    +0.211 HD
ENDBRANCH  14  15
BRANCH  14  18
ATOM     17  O   UNL     1     -33.804  24.465   0.874  0.00  0.00    -0.293 OA
ATOM     18  C   UNL     1     -34.755  24.582   1.653  0.00  0.00    +0.180 C 
BRANCH  18  19
ATOM     19  C   UNL     1     -35.678  23.403   1.933  0.00  0.00    +0.067 C 
BRANCH  19  20
ATOM     20  C   UNL     1     -34.937  22.067   1.895  0.00  0.00    +0.008 C 
ATOM     21  C   UNL     1     -35.672  21.000   2.691  0.00  0.00    +0.000 C 
ENDBRANCH  19  20
ENDBRANCH  18  19
ENDBRANCH  14  18
BRANCH  14  22
ATOM     22  C   UNL     1     -36.543  26.033   2.700  0.00  0.00    +0.174 C 
BRANCH  22  23
ATOM     23  O   UNL     1     -37.030  27.333   2.373  0.00  0.00    -0.379 OA
ATOM     24  H   UNL     1     -37.386  27.754   3.171  0.00  0.00    +0.211 HD
ENDBRANCH  22  23
ENDBRANCH  14  22
ENDBRANCH   1  14
TORSDOF 14
ENDMDL
MODEL 8
REMARK VINA RESULT:      -4.3      2.756      4.773
REMARK  Name = 19981195
REMARK  14 active torsions:
REMARK  status: ('A' for Active; 'I' for Inactive)
REMARK    1  A    between atoms: C_1  and  O_2
REMARK    2  A    between atoms: C_1  and  C_5
REMARK    3  A    between atoms: C_1  and  C_10
REMARK    4  A    between atoms: C_1  and  C_14
REMARK    5  A    between atoms: C_5  and  C_6
REMARK    6  A    between atoms: C_6  and  C_7
REMARK    7  A    between atoms: C_10  and  C_11
REMARK    8  A    between atoms: C_11  and  C_12
REMARK    9  A    between atoms: C_14  and  O_15
REMARK   10  A    between atoms: C_14  and  C_18
REMARK   11  A    between atoms: C_14  and  C_22
REMARK   12  A    between atoms: C_18  and  C_19
REMARK   13  A    between atoms: C_19  and  C_20
REMARK   14  A    between atoms: C_22  and  O_23
REMARK                            x       y       z     vdW  Elec       q    Type
REMARK                         _______ _______ _______ _____ _____    ______ ____
ROOT
ATOM      1  C   UNL     1     -36.116  24.604   3.336  0.00  0.00    +0.221 C 
ENDROOT
BRANCH   1   2
ATOM      2  O   UNL     1     -35.157  23.683   2.815  0.00  0.00    -0.371 OA
ATOM      3  H   UNL     1     -35.599  23.063   2.214  0.00  0.00    +0.211 HD
ENDBRANCH   1   2
BRANCH   1   5
ATOM      4  O   UNL     1     -36.169  25.801   5.442  0.00  0.00    -0.293 OA
ATOM      5  C   UNL     1     -35.692  24.863   4.799  0.00  0.00    +0.184 C 
BRANCH   5   6
ATOM      6  C   UNL     1     -34.703  23.901   5.447  0.00  0.00    +0.068 C 
BRANCH   6   7
ATOM      7  C   UNL     1     -35.384  22.757   6.197  0.00  0.00    +0.008 C 
ATOM      8  C   UNL     1     -35.084  21.396   5.584  0.00  0.00    +0.000 C 
ENDBRANCH   6   7
ENDBRANCH   5   6
ENDBRANCH   1   5
BRANCH   1  10
ATOM      9  O   UNL     1     -38.527  24.458   3.663  0.00  0.00    -0.293 OA
ATOM     10  C   UNL     1     -37.495  23.914   3.261  0.00  0.00    +0.184 C 
BRANCH  10  11
ATOM     11  C   UNL     1     -37.568  22.506   2.698  0.00  0.00    +0.068 C 
BRANCH  11  12
ATOM     12  C   UNL     1     -38.505  22.455   1.498  0.00  0.00    +0.008 C 
ATOM     13  C   UNL     1     -39.689  21.537   1.755  0.00  0.00    +0.000 C 
ENDBRANCH  11  12
ENDBRANCH  10  11
ENDBRANCH   1  10
BRANCH   1  14
ATOM     14  C   UNL     1     -36.025  25.904   2.475  0.00  0.00    +0.201 C 
BRANCH  14  15
ATOM     15  O   UNL     1     -36.863  26.901   3.075  0.00  0.00    -0.375 OA
ATOM     16  H   UNL     1     -36.434  27.247   3.873  0.00  0.00    +0.211 HD
ENDBRANCH  14  15
BRANCH  14  18
ATOM     17  O   UNL     1     -33.655  25.943   1.950  0.00  0.00    -0.293 OA
ATOM     18  C   UNL     1     -34.609  26.536   2.463  0.00  0.00    +0.180 C 
BRANCH  18  19
ATOM     19  C   UNL     1     -34.418  27.903   3.107  0.00  0.00    +0.067 C 
BRANCH  19  20
ATOM     20  C   UNL     1     -33.027  28.064   3.719  0.00  0.00    +0.008 C 
ATOM     21  C   UNL     1     -32.947  27.425   5.096  0.00  0.00    +0.000 C 
ENDBRANCH  19  20
ENDBRANCH  18  19
ENDBRANCH  14  18
BRANCH  14  22
ATOM     22  C   UNL     1     -36.517  25.694   1.030  0.00  0.00    +0.174 C 
BRANCH  22  23
ATOM     23  O   UNL     1     -35.653  24.787   0.347  0.00  0.00    -0.379 OA
ATOM     24  H   UNL     1     -35.473  24.023   0.916  0.00  0.00    +0.211 HD
ENDBRANCH  22  23
ENDBRANCH  14  22
ENDBRANCH   1  14
TORSDOF 14
ENDMDL
MODEL 9
REMARK VINA RESULT:      -4.2      1.861      5.089
REMARK  Name = 19981195
REMARK  14 active torsions:
REMARK  status: ('A' for Active; 'I' for Inactive)
REMARK    1  A    between atoms: C_1  and  O_2
REMARK    2  A    between atoms: C_1  and  C_5
REMARK    3  A    between atoms: C_1  and  C_10
REMARK    4  A    between atoms: C_1  and  C_14
REMARK    5  A    between atoms: C_5  and  C_6
REMARK    6  A    between atoms: C_6  and  C_7
REMARK    7  A    between atoms: C_10  and  C_11
REMARK    8  A    between atoms: C_11  and  C_12
REMARK    9  A    between atoms: C_14  and  O_15
REMARK   10  A    between atoms: C_14  and  C_18
REMARK   11  A    between atoms: C_14  and  C_22
REMARK   12  A    between atoms: C_18  and  C_19
REMARK   13  A    between atoms: C_19  and  C_20
REMARK   14  A    between atoms: C_22  and  O_23
REMARK                            x       y       z     vdW  Elec       q    Type
REMARK                         _______ _______ _______ _____ _____    ______ ____
ROOT
ATOM      1  C   UNL     1     -36.811  24.300   2.905  0.00  0.00    +0.221 C 
ENDROOT
BRANCH   1   2
ATOM      2  O   UNL     1     -36.320  24.156   1.572  0.00  0.00    -0.371 OA
ATOM      3  H   UNL     1     -36.535  24.952   1.062  0.00  0.00    +0.211 HD
ENDBRANCH   1   2
BRANCH   1   5
ATOM      4  O   UNL     1     -36.512  22.925   4.879  0.00  0.00    -0.293 OA
ATOM      5  C   UNL     1     -36.186  23.137   3.707  0.00  0.00    +0.184 C 
BRANCH   5   6
ATOM      6  C   UNL     1     -35.191  22.223   3.001  0.00  0.00    +0.068 C 
BRANCH   6   7
ATOM      7  C   UNL     1     -35.754  20.833   2.712  0.00  0.00    +0.008 C 
ATOM      8  C   UNL     1     -34.788  19.965   1.916  0.00  0.00    +0.000 C 
ENDBRANCH   6   7
ENDBRANCH   5   6
ENDBRANCH   1   5
BRANCH   1  10
ATOM      9  O   UNL     1     -39.082  24.605   3.734  0.00  0.00    -0.293 OA
ATOM     10  C   UNL     1     -38.349  24.180   2.839  0.00  0.00    +0.184 C 
BRANCH  10  11
ATOM     11  C   UNL     1     -38.967  23.484   1.638  0.00  0.00    +0.068 C 
BRANCH  11  12
ATOM     12  C   UNL     1     -39.315  22.039   1.975  0.00  0.00    +0.008 C 
ATOM     13  C   UNL     1     -39.326  21.166   0.732  0.00  0.00    +0.000 C 
ENDBRANCH  11  12
ENDBRANCH  10  11
ENDBRANCH   1  10
BRANCH   1  14
ATOM     14  C   UNL     1     -36.320  25.687   3.433  0.00  0.00    +0.201 C 
BRANCH  14  15
ATOM     15  O   UNL     1     -37.016  25.977   4.652  0.00  0.00    -0.375 OA
ATOM     16  H   UNL     1     -37.648  26.697   4.499  0.00  0.00    +0.211 HD
ENDBRANCH  14  15
BRANCH  14  18
ATOM     17  O   UNL     1     -33.942  25.527   2.972  0.00  0.00    -0.293 OA
ATOM     18  C   UNL     1     -34.819  25.700   3.823  0.00  0.00    +0.180 C 
BRANCH  18  19
ATOM     19  C   UNL     1     -34.451  25.923   5.284  0.00  0.00    +0.067 C 
BRANCH  19  20
ATOM     20  C   UNL     1     -33.319  26.936   5.447  0.00  0.00    +0.008 C 
ATOM     21  C   UNL     1     -32.847  27.017   6.890  0.00  0.00    +0.000 C 
ENDBRANCH  19  20
ENDBRANCH  18  19
ENDBRANCH  14  18
BRANCH  14  22
ATOM     22  C   UNL     1     -36.615  26.834   2.447  0.00  0.00    +0.174 C 
BRANCH  22  23
ATOM     23  O   UNL     1     -38.021  26.948   2.237  0.00  0.00    -0.379 OA
ATOM     24  H   UNL     1     -38.293  27.869   2.368  0.00  0.00    +0.211 HD
ENDBRANCH  22  23
ENDBRANCH  14  22
ENDBRANCH   1  14
TORSDOF 14
ENDMDL
