MODEL 1
REMARK VINA RESULT:      -5.3      0.000      0.000
REMARK  Name = 192847
REMARK  9 active torsions:
REMARK  status: ('A' for Active; 'I' for Inactive)
REMARK    1  A    between atoms: N_2  and  C_13
REMARK    2  A    between atoms: C_3  and  N_5
REMARK    3  A    between atoms: N_5  and  C_8
REMARK    4  A    between atoms: C_13  and  C_14
REMARK    5  A    between atoms: C_14  and  C_15
REMARK    6  A    between atoms: C_15  and  CA_16
REMARK    7  A    between atoms: CA_16  and  N_17
REMARK    8  A    between atoms: CA_16  and  C_22
REMARK    9  A    between atoms: C_22  and  O_23
REMARK                            x       y       z     vdW  Elec       q    Type
REMARK                         _______ _______ _______ _____ _____    ______ ____
ROOT
ATOM      1  O   UNL     1     -34.802  20.110   2.944  0.00  0.00    -0.251 OA
ATOM      2  N   UNL     1     -36.011  21.778   3.970  0.00  0.00    -0.287 N 
ATOM      3  C   UNL     1     -35.659  20.989   2.882  0.00  0.00    +0.327 C 
ATOM      4  H   UNL     1     -36.706  22.463   3.848  0.00  0.00    +0.151 HD
ENDROOT
BRANCH   3   5
ATOM      5  N   UNL     1     -36.400  21.291   1.761  0.00  0.00    -0.130 NA
BRANCH   5   8
ATOM      6  N   UNL     1     -36.793  19.094   1.097  0.00  0.00    -0.372 N 
ATOM      7  N   UNL     1     -38.524  20.565   0.890  0.00  0.00    -0.372 N 
ATOM      8  C   UNL     1     -37.213  20.391   1.271  0.00  0.00    +0.186 C 
ATOM      9  H   UNL     1     -35.872  18.838   1.333  0.00  0.00    +0.159 HD
ATOM     10  H   UNL     1     -37.413  18.421   0.735  0.00  0.00    +0.159 HD
ATOM     11  H   UNL     1     -38.945  21.451   0.965  0.00  0.00    +0.159 HD
ATOM     12  H   UNL     1     -39.040  19.803   0.541  0.00  0.00    +0.159 HD
ENDBRANCH   5   8
ENDBRANCH   3   5
BRANCH   2  13
ATOM     13  C   UNL     1     -35.408  21.636   5.267  0.00  0.00    +0.091 C 
BRANCH  13  14
ATOM     14  C   UNL     1     -35.191  22.978   5.964  0.00  0.00    +0.020 C 
BRANCH  14  15
ATOM     15  C   UNL     1     -35.627  24.166   5.090  0.00  0.00    -0.009 C 
BRANCH  15  16
ATOM     16  CA  UNL     1     -35.452  25.541   5.751  0.00  0.00    +0.036 C 
BRANCH  16  17
ATOM     17  N   UNL     1     -36.375  26.527   5.191  0.00  0.00    +0.389 N 
ATOM     18  H1  UNL     1     -37.088  26.756   5.882  0.00  0.00    -0.088 HD
ATOM     19  H2  UNL     1     -36.820  26.143   4.357  0.00  0.00    -0.088 HD
ATOM     20  H3  UNL     1     -35.860  27.372   4.942  0.00  0.00    -0.088 HD
ENDBRANCH  16  17
BRANCH  16  22
ATOM     21  OXT UNL     1     -33.480  26.851   6.353  0.00  0.00    -0.253 OA
ATOM     22  C   UNL     1     -34.038  26.072   5.590  0.00  0.00    +0.293 C 
BRANCH  22  23
ATOM     23  O   UNL     1     -33.432  25.575   4.478  0.00  0.00    -0.482 OA
ATOM     24  H   UNL     1     -33.518  26.022   3.659  0.00  0.00    +0.295 HD
ENDBRANCH  22  23
ENDBRANCH  16  22
ENDBRANCH  15  16
ENDBRANCH  14  15
ENDBRANCH  13  14
ENDBRANCH   2  13
TORSDOF 9
ENDMDL
MODEL 2
REMARK VINA RESULT:      -5.2      2.600      6.950
REMARK  Name = 192847
REMARK  9 active torsions:
REMARK  status: ('A' for Active; 'I' for Inactive)
REMARK    1  A    between atoms: N_2  and  C_13
REMARK    2  A    between atoms: C_3  and  N_5
REMARK    3  A    between atoms: N_5  and  C_8
REMARK    4  A    between atoms: C_13  and  C_14
REMARK    5  A    between atoms: C_14  and  C_15
REMARK    6  A    between atoms: C_15  and  CA_16
REMARK    7  A    between atoms: CA_16  and  N_17
REMARK    8  A    between atoms: CA_16  and  C_22
REMARK    9  A    between atoms: C_22  and  O_23
REMARK                            x       y       z     vdW  Elec       q    Type
REMARK                         _______ _______ _______ _____ _____    ______ ____
ROOT
ATOM      1  O   UNL     1     -32.777  26.073   4.035  0.00  0.00    -0.251 OA
ATOM      2  N   UNL     1     -34.766  26.947   4.796  0.00  0.00    -0.287 N 
ATOM      3  C   UNL     1     -33.387  26.958   4.633  0.00  0.00    +0.327 C 
ATOM      4  H   UNL     1     -35.187  27.690   5.286  0.00  0.00    +0.151 HD
ENDROOT
BRANCH   3   5
ATOM      5  N   UNL     1     -32.807  28.079   5.186  0.00  0.00    -0.130 NA
BRANCH   5   8
ATOM      6  N   UNL     1     -32.559  27.054   7.262  0.00  0.00    -0.372 N 
ATOM      7  N   UNL     1     -31.062  28.690   6.728  0.00  0.00    -0.372 N 
ATOM      8  C   UNL     1     -32.164  27.973   6.320  0.00  0.00    +0.186 C 
ATOM      9  H   UNL     1     -33.337  26.476   7.090  0.00  0.00    +0.159 HD
ATOM     10  H   UNL     1     -32.065  26.974   8.109  0.00  0.00    +0.159 HD
ATOM     11  H   UNL     1     -30.679  29.382   6.142  0.00  0.00    +0.159 HD
ATOM     12  H   UNL     1     -30.658  28.511   7.608  0.00  0.00    +0.159 HD
ENDBRANCH   5   8
ENDBRANCH   3   5
BRANCH   2  13
ATOM     13  C   UNL     1     -35.606  25.902   4.280  0.00  0.00    +0.091 C 
BRANCH  13  14
ATOM     14  C   UNL     1     -36.092  24.948   5.368  0.00  0.00    +0.020 C 
BRANCH  14  15
ATOM     15  C   UNL     1     -35.374  23.589   5.316  0.00  0.00    -0.009 C 
BRANCH  15  16
ATOM     16  CA  UNL     1     -35.710  22.737   4.083  0.00  0.00    +0.036 C 
BRANCH  16  17
ATOM     17  N   UNL     1     -37.131  22.816   3.747  0.00  0.00    +0.389 N 
ATOM     18  H1  UNL     1     -37.685  22.785   4.602  0.00  0.00    -0.088 HD
ATOM     19  H2  UNL     1     -37.384  22.029   3.149  0.00  0.00    -0.088 HD
ATOM     20  H3  UNL     1     -37.316  23.690   3.254  0.00  0.00    -0.088 HD
ENDBRANCH  16  17
BRANCH  16  22
ATOM     21  OXT UNL     1     -35.172  20.456   3.397  0.00  0.00    -0.253 OA
ATOM     22  C   UNL     1     -35.353  21.276   4.288  0.00  0.00    +0.293 C 
BRANCH  22  23
ATOM     23  O   UNL     1     -35.247  20.960   5.607  0.00  0.00    -0.482 OA
ATOM     24  H   UNL     1     -35.529  21.570   6.259  0.00  0.00    +0.295 HD
ENDBRANCH  22  23
ENDBRANCH  16  22
ENDBRANCH  15  16
ENDBRANCH  14  15
ENDBRANCH  13  14
ENDBRANCH   2  13
TORSDOF 9
ENDMDL
MODEL 3
REMARK VINA RESULT:      -5.2      2.614      4.172
REMARK  Name = 192847
REMARK  9 active torsions:
REMARK  status: ('A' for Active; 'I' for Inactive)
REMARK    1  A    between atoms: N_2  and  C_13
REMARK    2  A    between atoms: C_3  and  N_5
REMARK    3  A    between atoms: N_5  and  C_8
REMARK    4  A    between atoms: C_13  and  C_14
REMARK    5  A    between atoms: C_14  and  C_15
REMARK    6  A    between atoms: C_15  and  CA_16
REMARK    7  A    between atoms: CA_16  and  N_17
REMARK    8  A    between atoms: CA_16  and  C_22
REMARK    9  A    between atoms: C_22  and  O_23
REMARK                            x       y       z     vdW  Elec       q    Type
REMARK                         _______ _______ _______ _____ _____    ______ ____
ROOT
ATOM      1  O   UNL     1     -37.518  24.461   1.866  0.00  0.00    -0.251 OA
ATOM      2  N   UNL     1     -37.823  24.726   4.132  0.00  0.00    -0.287 N 
ATOM      3  C   UNL     1     -38.195  24.270   2.874  0.00  0.00    +0.327 C 
ATOM      4  H   UNL     1     -38.415  24.535   4.895  0.00  0.00    +0.151 HD
ENDROOT
BRANCH   3   5
ATOM      5  N   UNL     1     -39.378  23.564   2.906  0.00  0.00    -0.130 NA
BRANCH   5   8
ATOM      6  N   UNL     1     -40.477  22.384   1.226  0.00  0.00    -0.372 N 
ATOM      7  N   UNL     1     -38.714  21.348   2.237  0.00  0.00    -0.372 N 
ATOM      8  C   UNL     1     -39.495  22.480   2.183  0.00  0.00    +0.186 C 
ATOM      9  H   UNL     1     -41.104  23.130   1.087  0.00  0.00    +0.159 HD
ATOM     10  H   UNL     1     -40.554  21.569   0.680  0.00  0.00    +0.159 HD
ATOM     11  H   UNL     1     -37.974  21.291   2.883  0.00  0.00    +0.159 HD
ATOM     12  H   UNL     1     -38.897  20.596   1.630  0.00  0.00    +0.159 HD
ENDBRANCH   5   8
ENDBRANCH   3   5
BRANCH   2  13
ATOM     13  C   UNL     1     -36.611  25.461   4.371  0.00  0.00    +0.091 C 
BRANCH  13  14
ATOM     14  C   UNL     1     -35.832  24.933   5.574  0.00  0.00    +0.020 C 
BRANCH  14  15
ATOM     15  C   UNL     1     -34.867  23.799   5.192  0.00  0.00    -0.009 C 
BRANCH  15  16
ATOM     16  CA  UNL     1     -35.517  22.410   5.109  0.00  0.00    +0.036 C 
BRANCH  16  17
ATOM     17  N   UNL     1     -34.842  21.449   5.981  0.00  0.00    +0.389 N 
ATOM     18  H1  UNL     1     -34.340  20.768   5.412  0.00  0.00    -0.088 HD
ATOM     19  H2  UNL     1     -35.533  20.968   6.557  0.00  0.00    -0.088 HD
ATOM     20  H3  UNL     1     -34.182  21.942   6.583  0.00  0.00    -0.088 HD
ENDBRANCH  16  17
BRANCH  16  22
ATOM     21  OXT UNL     1     -35.122  22.466   2.699  0.00  0.00    -0.253 OA
ATOM     22  C   UNL     1     -35.499  21.859   3.694  0.00  0.00    +0.293 C 
BRANCH  22  23
ATOM     23  O   UNL     1     -35.955  20.579   3.642  0.00  0.00    -0.482 OA
ATOM     24  H   UNL     1     -36.712  20.331   4.135  0.00  0.00    +0.295 HD
ENDBRANCH  22  23
ENDBRANCH  16  22
ENDBRANCH  15  16
ENDBRANCH  14  15
ENDBRANCH  13  14
ENDBRANCH   2  13
TORSDOF 9
ENDMDL
MODEL 4
REMARK VINA RESULT:      -5.1      3.328      5.049
REMARK  Name = 192847
REMARK  9 active torsions:
REMARK  status: ('A' for Active; 'I' for Inactive)
REMARK    1  A    between atoms: N_2  and  C_13
REMARK    2  A    between atoms: C_3  and  N_5
REMARK    3  A    between atoms: N_5  and  C_8
REMARK    4  A    between atoms: C_13  and  C_14
REMARK    5  A    between atoms: C_14  and  C_15
REMARK    6  A    between atoms: C_15  and  CA_16
REMARK    7  A    between atoms: CA_16  and  N_17
REMARK    8  A    between atoms: CA_16  and  C_22
REMARK    9  A    between atoms: C_22  and  O_23
REMARK                            x       y       z     vdW  Elec       q    Type
REMARK                         _______ _______ _______ _____ _____    ______ ____
ROOT
ATOM      1  O   UNL     1     -36.843  25.088   1.965  0.00  0.00    -0.251 OA
ATOM      2  N   UNL     1     -36.691  26.587   3.705  0.00  0.00    -0.287 N 
ATOM      3  C   UNL     1     -37.356  25.968   2.655  0.00  0.00    +0.327 C 
ATOM      4  H   UNL     1     -37.164  27.283   4.215  0.00  0.00    +0.151 HD
ENDROOT
BRANCH   3   5
ATOM      5  N   UNL     1     -38.645  26.432   2.510  0.00  0.00    -0.130 NA
BRANCH   5   8
ATOM      6  N   UNL     1     -39.450  24.613   3.721  0.00  0.00    -0.372 N 
ATOM      7  N   UNL     1     -40.831  26.418   3.519  0.00  0.00    -0.372 N 
ATOM      8  C   UNL     1     -39.606  25.876   3.202  0.00  0.00    +0.186 C 
ATOM      9  H   UNL     1     -38.615  24.116   3.565  0.00  0.00    +0.159 HD
ATOM     10  H   UNL     1     -40.175  24.206   4.248  0.00  0.00    +0.159 HD
ATOM     11  H   UNL     1     -41.066  27.321   3.205  0.00  0.00    +0.159 HD
ATOM     12  H   UNL     1     -41.472  25.901   4.058  0.00  0.00    +0.159 HD
ENDBRANCH   5   8
ENDBRANCH   3   5
BRANCH   2  13
ATOM     13  C   UNL     1     -35.345  26.256   4.083  0.00  0.00    +0.091 C 
BRANCH  13  14
ATOM     14  C   UNL     1     -35.264  25.618   5.468  0.00  0.00    +0.020 C 
BRANCH  14  15
ATOM     15  C   UNL     1     -34.850  24.138   5.405  0.00  0.00    -0.009 C 
BRANCH  15  16
ATOM     16  CA  UNL     1     -36.022  23.154   5.270  0.00  0.00    +0.036 C 
BRANCH  16  17
ATOM     17  N   UNL     1     -35.901  22.043   6.213  0.00  0.00    +0.389 N 
ATOM     18  H1  UNL     1     -36.681  22.068   6.869  0.00  0.00    -0.088 HD
ATOM     19  H2  UNL     1     -35.023  22.124   6.725  0.00  0.00    -0.088 HD
ATOM     20  H3  UNL     1     -35.916  21.160   5.701  0.00  0.00    -0.088 HD
ENDBRANCH  16  17
BRANCH  16  22
ATOM     21  OXT UNL     1     -35.171  22.226   3.177  0.00  0.00    -0.253 OA
ATOM     22  C   UNL     1     -36.119  22.577   3.868  0.00  0.00    +0.293 C 
BRANCH  22  23
ATOM     23  O   UNL     1     -37.408  22.483   3.446  0.00  0.00    -0.482 OA
ATOM     24  H   UNL     1     -37.657  22.844   2.618  0.00  0.00    +0.295 HD
ENDBRANCH  22  23
ENDBRANCH  16  22
ENDBRANCH  15  16
ENDBRANCH  14  15
ENDBRANCH  13  14
ENDBRANCH   2  13
TORSDOF 9
ENDMDL
MODEL 5
REMARK VINA RESULT:      -5.1      2.705      3.148
REMARK  Name = 192847
REMARK  9 active torsions:
REMARK  status: ('A' for Active; 'I' for Inactive)
REMARK    1  A    between atoms: N_2  and  C_13
REMARK    2  A    between atoms: C_3  and  N_5
REMARK    3  A    between atoms: N_5  and  C_8
REMARK    4  A    between atoms: C_13  and  C_14
REMARK    5  A    between atoms: C_14  and  C_15
REMARK    6  A    between atoms: C_15  and  CA_16
REMARK    7  A    between atoms: CA_16  and  N_17
REMARK    8  A    between atoms: CA_16  and  C_22
REMARK    9  A    between atoms: C_22  and  O_23
REMARK                            x       y       z     vdW  Elec       q    Type
REMARK                         _______ _______ _______ _____ _____    ______ ____
ROOT
ATOM      1  O   UNL     1     -36.803  24.392   2.497  0.00  0.00    -0.251 OA
ATOM      2  N   UNL     1     -36.892  22.521   3.835  0.00  0.00    -0.287 N 
ATOM      3  C   UNL     1     -37.420  23.410   2.908  0.00  0.00    +0.327 C 
ATOM      4  H   UNL     1     -37.442  21.756   4.119  0.00  0.00    +0.151 HD
ENDROOT
BRANCH   3   5
ATOM      5  N   UNL     1     -38.681  23.042   2.494  0.00  0.00    -0.130 NA
BRANCH   5   8
ATOM      6  N   UNL     1     -39.692  24.769   3.684  0.00  0.00    -0.372 N 
ATOM      7  N   UNL     1     -40.765  24.035   1.811  0.00  0.00    -0.372 N 
ATOM      8  C   UNL     1     -39.671  23.885   2.632  0.00  0.00    +0.186 C 
ATOM      9  H   UNL     1     -38.963  24.764   4.346  0.00  0.00    +0.159 HD
ATOM     10  H   UNL     1     -40.436  25.406   3.777  0.00  0.00    +0.159 HD
ATOM     11  H   UNL     1     -40.869  23.459   1.018  0.00  0.00    +0.159 HD
ATOM     12  H   UNL     1     -41.445  24.716   2.016  0.00  0.00    +0.159 HD
ENDBRANCH   5   8
ENDBRANCH   3   5
BRANCH   2  13
ATOM     13  C   UNL     1     -35.577  22.665   4.396  0.00  0.00    +0.091 C 
BRANCH  13  14
ATOM     14  C   UNL     1     -35.549  23.613   5.593  0.00  0.00    +0.020 C 
BRANCH  14  15
ATOM     15  C   UNL     1     -34.550  24.766   5.400  0.00  0.00    -0.009 C 
BRANCH  15  16
ATOM     16  CA  UNL     1     -35.196  26.146   5.209  0.00  0.00    +0.036 C 
BRANCH  16  17
ATOM     17  N   UNL     1     -36.655  26.054   5.167  0.00  0.00    +0.389 N 
ATOM     18  H1  UNL     1     -37.055  26.992   5.164  0.00  0.00    -0.088 HD
ATOM     19  H2  UNL     1     -36.988  25.544   5.985  0.00  0.00    -0.088 HD
ATOM     20  H3  UNL     1     -36.940  25.560   4.320  0.00  0.00    -0.088 HD
ENDBRANCH  16  17
BRANCH  16  22
ATOM     21  OXT UNL     1     -34.624  28.029   3.763  0.00  0.00    -0.253 OA
ATOM     22  C   UNL     1     -34.727  26.820   3.933  0.00  0.00    +0.293 C 
BRANCH  22  23
ATOM     23  O   UNL     1     -34.419  25.917   2.964  0.00  0.00    -0.482 OA
ATOM     24  H   UNL     1     -33.720  25.307   3.098  0.00  0.00    +0.295 HD
ENDBRANCH  22  23
ENDBRANCH  16  22
ENDBRANCH  15  16
ENDBRANCH  14  15
ENDBRANCH  13  14
ENDBRANCH   2  13
TORSDOF 9
ENDMDL
MODEL 6
REMARK VINA RESULT:      -5.1      2.376      2.744
REMARK  Name = 192847
REMARK  9 active torsions:
REMARK  status: ('A' for Active; 'I' for Inactive)
REMARK    1  A    between atoms: N_2  and  C_13
REMARK    2  A    between atoms: C_3  and  N_5
REMARK    3  A    between atoms: N_5  and  C_8
REMARK    4  A    between atoms: C_13  and  C_14
REMARK    5  A    between atoms: C_14  and  C_15
REMARK    6  A    between atoms: C_15  and  CA_16
REMARK    7  A    between atoms: CA_16  and  N_17
REMARK    8  A    between atoms: CA_16  and  C_22
REMARK    9  A    between atoms: C_22  and  O_23
REMARK                            x       y       z     vdW  Elec       q    Type
REMARK                         _______ _______ _______ _____ _____    ______ ____
ROOT
ATOM      1  O   UNL     1     -36.742  22.413   3.297  0.00  0.00    -0.251 OA
ATOM      2  N   UNL     1     -35.324  21.726   4.975  0.00  0.00    -0.287 N 
ATOM      3  C   UNL     1     -35.916  21.609   3.724  0.00  0.00    +0.327 C 
ATOM      4  H   UNL     1     -34.671  21.045   5.251  0.00  0.00    +0.151 HD
ENDROOT
BRANCH   3   5
ATOM      5  N   UNL     1     -35.444  20.518   3.027  0.00  0.00    -0.130 NA
BRANCH   5   8
ATOM      6  N   UNL     1     -35.542  21.048   0.761  0.00  0.00    -0.372 N 
ATOM      7  N   UNL     1     -36.782  19.267   1.464  0.00  0.00    -0.372 N 
ATOM      8  C   UNL     1     -35.916  20.271   1.832  0.00  0.00    +0.186 C 
ATOM      9  H   UNL     1     -34.922  21.801   0.891  0.00  0.00    +0.159 HD
ATOM     10  H   UNL     1     -35.894  20.850  -0.137  0.00  0.00    +0.159 HD
ATOM     11  H   UNL     1     -37.125  18.640   2.141  0.00  0.00    +0.159 HD
ATOM     12  H   UNL     1     -37.059  19.177   0.524  0.00  0.00    +0.159 HD
ENDBRANCH   5   8
ENDBRANCH   3   5
BRANCH   2  13
ATOM     13  C   UNL     1     -35.622  22.799   5.883  0.00  0.00    +0.091 C 
BRANCH  13  14
ATOM     14  C   UNL     1     -34.938  24.107   5.492  0.00  0.00    +0.020 C 
BRANCH  14  15
ATOM     15  C   UNL     1     -35.930  25.277   5.392  0.00  0.00    -0.009 C 
BRANCH  15  16
ATOM     16  CA  UNL     1     -36.068  25.877   3.984  0.00  0.00    +0.036 C 
BRANCH  16  17
ATOM     17  N   UNL     1     -35.640  27.275   3.953  0.00  0.00    +0.389 N 
ATOM     18  H1  UNL     1     -35.825  27.666   3.029  0.00  0.00    -0.088 HD
ATOM     19  H2  UNL     1     -34.640  27.330   4.151  0.00  0.00    -0.088 HD
ATOM     20  H3  UNL     1     -36.155  27.805   4.656  0.00  0.00    -0.088 HD
ENDBRANCH  16  17
BRANCH  16  22
ATOM     21  OXT UNL     1     -37.977  26.521   2.603  0.00  0.00    -0.253 OA
ATOM     22  C   UNL     1     -37.497  25.809   3.476  0.00  0.00    +0.293 C 
BRANCH  22  23
ATOM     23  O   UNL     1     -38.215  24.841   4.107  0.00  0.00    -0.482 OA
ATOM     24  H   UNL     1     -38.847  25.076   4.758  0.00  0.00    +0.295 HD
ENDBRANCH  22  23
ENDBRANCH  16  22
ENDBRANCH  15  16
ENDBRANCH  14  15
ENDBRANCH  13  14
ENDBRANCH   2  13
TORSDOF 9
ENDMDL
MODEL 7
REMARK VINA RESULT:      -5.0      3.508      5.804
REMARK  Name = 192847
REMARK  9 active torsions:
REMARK  status: ('A' for Active; 'I' for Inactive)
REMARK    1  A    between atoms: N_2  and  C_13
REMARK    2  A    between atoms: C_3  and  N_5
REMARK    3  A    between atoms: N_5  and  C_8
REMARK    4  A    between atoms: C_13  and  C_14
REMARK    5  A    between atoms: C_14  and  C_15
REMARK    6  A    between atoms: C_15  and  CA_16
REMARK    7  A    between atoms: CA_16  and  N_17
REMARK    8  A    between atoms: CA_16  and  C_22
REMARK    9  A    between atoms: C_22  and  O_23
REMARK                            x       y       z     vdW  Elec       q    Type
REMARK                         _______ _______ _______ _____ _____    ______ ____
ROOT
ATOM      1  O   UNL     1     -35.555  24.260   2.947  0.00  0.00    -0.251 OA
ATOM      2  N   UNL     1     -36.973  22.616   3.714  0.00  0.00    -0.287 N 
ATOM      3  C   UNL     1     -36.189  23.752   3.871  0.00  0.00    +0.327 C 
ATOM      4  H   UNL     1     -37.453  22.265   4.497  0.00  0.00    +0.151 HD
ENDROOT
BRANCH   3   5
ATOM      5  N   UNL     1     -36.239  24.245   5.156  0.00  0.00    -0.130 NA
BRANCH   5   8
ATOM      6  N   UNL     1     -36.579  26.547   5.246  0.00  0.00    -0.372 N 
ATOM      7  N   UNL     1     -34.512  25.780   5.834  0.00  0.00    -0.372 N 
ATOM      8  C   UNL     1     -35.774  25.443   5.401  0.00  0.00    +0.186 C 
ATOM      9  H   UNL     1     -37.508  26.440   4.941  0.00  0.00    +0.159 HD
ATOM     10  H   UNL     1     -36.224  27.444   5.440  0.00  0.00    +0.159 HD
ATOM     11  H   UNL     1     -33.839  25.077   5.983  0.00  0.00    +0.159 HD
ATOM     12  H   UNL     1     -34.283  26.724   5.992  0.00  0.00    +0.159 HD
ENDBRANCH   5   8
ENDBRANCH   3   5
BRANCH   2  13
ATOM     13  C   UNL     1     -37.115  21.932   2.458  0.00  0.00    +0.091 C 
BRANCH  13  14
ATOM     14  C   UNL     1     -38.556  21.928   1.952  0.00  0.00    +0.020 C 
BRANCH  14  15
ATOM     15  C   UNL     1     -38.988  23.301   1.413  0.00  0.00    -0.009 C 
BRANCH  15  16
ATOM     16  CA  UNL     1     -40.113  23.976   2.214  0.00  0.00    +0.036 C 
BRANCH  16  17
ATOM     17  N   UNL     1     -41.253  24.309   1.362  0.00  0.00    +0.389 N 
ATOM     18  H1  UNL     1     -41.996  24.715   1.931  0.00  0.00    -0.088 HD
ATOM     19  H2  UNL     1     -41.597  23.464   0.905  0.00  0.00    -0.088 HD
ATOM     20  H3  UNL     1     -40.962  24.983   0.653  0.00  0.00    -0.088 HD
ENDBRANCH  16  17
BRANCH  16  22
ATOM     21  OXT UNL     1     -39.739  26.379   2.432  0.00  0.00    -0.253 OA
ATOM     22  C   UNL     1     -39.640  25.249   2.893  0.00  0.00    +0.293 C 
BRANCH  22  23
ATOM     23  O   UNL     1     -39.082  25.000   4.107  0.00  0.00    -0.482 OA
ATOM     24  H   UNL     1     -38.177  25.195   4.256  0.00  0.00    +0.295 HD
ENDBRANCH  22  23
ENDBRANCH  16  22
ENDBRANCH  15  16
ENDBRANCH  14  15
ENDBRANCH  13  14
ENDBRANCH   2  13
TORSDOF 9
ENDMDL
MODEL 8
REMARK VINA RESULT:      -5.0      1.826      2.205
REMARK  Name = 192847
REMARK  9 active torsions:
REMARK  status: ('A' for Active; 'I' for Inactive)
REMARK    1  A    between atoms: N_2  and  C_13
REMARK    2  A    between atoms: C_3  and  N_5
REMARK    3  A    between atoms: N_5  and  C_8
REMARK    4  A    between atoms: C_13  and  C_14
REMARK    5  A    between atoms: C_14  and  C_15
REMARK    6  A    between atoms: C_15  and  CA_16
REMARK    7  A    between atoms: CA_16  and  N_17
REMARK    8  A    between atoms: CA_16  and  C_22
REMARK    9  A    between atoms: C_22  and  O_23
REMARK                            x       y       z     vdW  Elec       q    Type
REMARK                         _______ _______ _______ _____ _____    ______ ____
ROOT
ATOM      1  O   UNL     1     -35.783  22.050   2.118  0.00  0.00    -0.251 OA
ATOM      2  N   UNL     1     -36.728  22.597   4.144  0.00  0.00    -0.287 N 
ATOM      3  C   UNL     1     -36.771  22.374   2.774  0.00  0.00    +0.327 C 
ATOM      4  H   UNL     1     -37.559  22.854   4.604  0.00  0.00    +0.151 HD
ENDROOT
BRANCH   3   5
ATOM      5  N   UNL     1     -38.041  22.526   2.262  0.00  0.00    -0.130 NA
BRANCH   5   8
ATOM      6  N   UNL     1     -40.007  21.284   2.144  0.00  0.00    -0.372 N 
ATOM      7  N   UNL     1     -38.197  20.469   1.022  0.00  0.00    -0.372 N 
ATOM      8  C   UNL     1     -38.684  21.475   1.824  0.00  0.00    +0.186 C 
ATOM      9  H   UNL     1     -40.475  21.935   2.714  0.00  0.00    +0.159 HD
ATOM     10  H   UNL     1     -40.487  20.495   1.803  0.00  0.00    +0.159 HD
ATOM     11  H   UNL     1     -37.259  20.488   0.721  0.00  0.00    +0.159 HD
ATOM     12  H   UNL     1     -38.785  19.729   0.749  0.00  0.00    +0.159 HD
ENDBRANCH   5   8
ENDBRANCH   3   5
BRANCH   2  13
ATOM     13  C   UNL     1     -35.526  22.469   4.920  0.00  0.00    +0.091 C 
BRANCH  13  14
ATOM     14  C   UNL     1     -35.239  23.705   5.769  0.00  0.00    +0.020 C 
BRANCH  14  15
ATOM     15  C   UNL     1     -34.457  24.777   4.993  0.00  0.00    -0.009 C 
BRANCH  15  16
ATOM     16  CA  UNL     1     -35.132  26.157   4.955  0.00  0.00    +0.036 C 
BRANCH  16  17
ATOM     17  N   UNL     1     -36.512  26.093   5.432  0.00  0.00    +0.389 N 
ATOM     18  H1  UNL     1     -37.108  25.714   4.697  0.00  0.00    -0.088 HD
ATOM     19  H2  UNL     1     -36.831  27.030   5.680  0.00  0.00    -0.088 HD
ATOM     20  H3  UNL     1     -36.560  25.489   6.254  0.00  0.00    -0.088 HD
ENDBRANCH  16  17
BRANCH  16  22
ATOM     21  OXT UNL     1     -35.031  26.109   2.515  0.00  0.00    -0.253 OA
ATOM     22  C   UNL     1     -35.141  26.746   3.556  0.00  0.00    +0.293 C 
BRANCH  22  23
ATOM     23  O   UNL     1     -35.293  28.097   3.574  0.00  0.00    -0.482 OA
ATOM     24  H   UNL     1     -35.925  28.490   4.145  0.00  0.00    +0.295 HD
ENDBRANCH  22  23
ENDBRANCH  16  22
ENDBRANCH  15  16
ENDBRANCH  14  15
ENDBRANCH  13  14
ENDBRANCH   2  13
TORSDOF 9
ENDMDL
MODEL 9
REMARK VINA RESULT:      -5.0      2.322      2.739
REMARK  Name = 192847
REMARK  9 active torsions:
REMARK  status: ('A' for Active; 'I' for Inactive)
REMARK    1  A    between atoms: N_2  and  C_13
REMARK    2  A    between atoms: C_3  and  N_5
REMARK    3  A    between atoms: N_5  and  C_8
REMARK    4  A    between atoms: C_13  and  C_14
REMARK    5  A    between atoms: C_14  and  C_15
REMARK    6  A    between atoms: C_15  and  CA_16
REMARK    7  A    between atoms: CA_16  and  N_17
REMARK    8  A    between atoms: CA_16  and  C_22
REMARK    9  A    between atoms: C_22  and  O_23
REMARK                            x       y       z     vdW  Elec       q    Type
REMARK                         _______ _______ _______ _____ _____    ______ ____
ROOT
ATOM      1  O   UNL     1     -36.035  22.110   2.227  0.00  0.00    -0.251 OA
ATOM      2  N   UNL     1     -36.756  22.832   4.291  0.00  0.00    -0.287 N 
ATOM      3  C   UNL     1     -36.943  22.513   2.952  0.00  0.00    +0.327 C 
ATOM      4  H   UNL     1     -37.529  23.148   4.811  0.00  0.00    +0.151 HD
ENDROOT
BRANCH   3   5
ATOM      5  N   UNL     1     -38.254  22.671   2.559  0.00  0.00    -0.130 NA
BRANCH   5   8
ATOM      6  N   UNL     1     -40.237  21.551   2.070  0.00  0.00    -0.372 N 
ATOM      7  N   UNL     1     -38.312  20.670   1.220  0.00  0.00    -0.372 N 
ATOM      8  C   UNL     1     -38.871  21.675   1.977  0.00  0.00    +0.186 C 
ATOM      9  H   UNL     1     -40.757  22.209   2.586  0.00  0.00    +0.159 HD
ATOM     10  H   UNL     1     -40.694  20.804   1.622  0.00  0.00    +0.159 HD
ATOM     11  H   UNL     1     -37.338  20.646   1.076  0.00  0.00    +0.159 HD
ATOM     12  H   UNL     1     -38.886  19.976   0.823  0.00  0.00    +0.159 HD
ENDBRANCH   5   8
ENDBRANCH   3   5
BRANCH   2  13
ATOM     13  C   UNL     1     -35.485  22.719   4.952  0.00  0.00    +0.091 C 
BRANCH  13  14
ATOM     14  C   UNL     1     -34.957  24.065   5.443  0.00  0.00    +0.020 C 
BRANCH  14  15
ATOM     15  C   UNL     1     -34.705  25.050   4.290  0.00  0.00    -0.009 C 
BRANCH  15  16
ATOM     16  CA  UNL     1     -35.663  26.250   4.256  0.00  0.00    +0.036 C 
BRANCH  16  17
ATOM     17  N   UNL     1     -36.345  26.429   5.537  0.00  0.00    +0.389 N 
ATOM     18  H1  UNL     1     -37.353  26.454   5.385  0.00  0.00    -0.088 HD
ATOM     19  H2  UNL     1     -36.044  27.306   5.964  0.00  0.00    -0.088 HD
ATOM     20  H3  UNL     1     -36.113  25.653   6.157  0.00  0.00    -0.088 HD
ENDBRANCH  16  17
BRANCH  16  22
ATOM     21  OXT UNL     1     -36.522  26.211   1.970  0.00  0.00    -0.253 OA
ATOM     22  C   UNL     1     -36.718  26.104   3.174  0.00  0.00    +0.293 C 
BRANCH  22  23
ATOM     23  O   UNL     1     -37.944  25.828   3.694  0.00  0.00    -0.482 OA
ATOM     24  H   UNL     1     -38.716  26.138   3.263  0.00  0.00    +0.295 HD
ENDBRANCH  22  23
ENDBRANCH  16  22
ENDBRANCH  15  16
ENDBRANCH  14  15
ENDBRANCH  13  14
ENDBRANCH   2  13
TORSDOF 9
ENDMDL
