MODEL 1
REMARK VINA RESULT:      -5.9      0.000      0.000
REMARK  Name = 53462205
REMARK  8 active torsions:
REMARK  status: ('A' for Active; 'I' for Inactive)
REMARK    1  A    between atoms: N_1  and  C1*_11
REMARK    2  A    between atoms: C_5  and  C_25
REMARK    3  A    between atoms: C2*_12  and  O2*_15
REMARK    4  A    between atoms: C3*_13  and  O3*_17
REMARK    5  A    between atoms: C4*_14  and  C5*_19
REMARK    6  A    between atoms: C5*_19  and  O5*_20
REMARK    7  A    between atoms: C_25  and  C_26
REMARK    8  A    between atoms: C_26  and  O_28
REMARK                            x       y       z     vdW  Elec       q    Type
REMARK                         _______ _______ _______ _____ _____    ______ ____
ROOT
ATOM      1  N   UNL     1     -36.891  23.835   2.416  0.00  0.00    -0.224 N 
ATOM      2  N   UNL     1     -38.378  22.859   1.072  0.00  0.00    -0.385 NA
ATOM      3  N   UNL     1     -35.462  21.934   2.908  0.00  0.00    -0.227 NA
ATOM      4  N   UNL     1     -36.247  19.919   1.776  0.00  0.00    -0.227 NA
ATOM      5  C   UNL     1     -38.017  23.986   1.650  0.00  0.00    +0.169 C 
ATOM      6  C   UNL     1     -36.512  22.526   2.319  0.00  0.00    +0.169 C 
ATOM      7  C   UNL     1     -37.447  21.939   1.482  0.00  0.00    +0.195 C 
ATOM      8  C   UNL     1     -37.287  20.583   1.215  0.00  0.00    +0.155 C 
ATOM      9  C   UNL     1     -35.412  20.625   2.575  0.00  0.00    +0.253 C 
ATOM     10  N   UNL     1     -38.188  19.905   0.376  0.00  0.00    -0.341 N 
ATOM     11  H   UNL     1     -38.066  18.946   0.194  0.00  0.00    +0.144 HD
ATOM     12  H   UNL     1     -38.942  20.391  -0.030  0.00  0.00    +0.144 HD
ENDROOT
BRANCH   1  14
ATOM     13  O4* UNL     1     -34.781  24.650   3.314  0.00  0.00    -0.333 OA
ATOM     14  C1* UNL     1     -36.194  24.911   3.219  0.00  0.00    +0.229 C 
ATOM     15  C2* UNL     1     -36.737  25.033   4.645  0.00  0.00    +0.187 C 
ATOM     16  C3* UNL     1     -35.642  24.445   5.510  0.00  0.00    +0.171 C 
ATOM     17  C4* UNL     1     -34.376  24.659   4.693  0.00  0.00    +0.175 C 
BRANCH  15  18
ATOM     18  O2* UNL     1     -36.906  26.407   4.977  0.00  0.00    -0.378 OA
ATOM     19  H2* UNL     1     -37.677  26.507   5.557  0.00  0.00    +0.211 HD
ENDBRANCH  15  18
BRANCH  16  20
ATOM     20  O3* UNL     1     -35.853  23.041   5.647  0.00  0.00    -0.379 OA
ATOM     21  H3* UNL     1     -34.997  22.592   5.728  0.00  0.00    +0.211 HD
ENDBRANCH  16  20
BRANCH  17  22
ATOM     22  C5* UNL     1     -33.684  25.985   4.980  0.00  0.00    +0.169 C 
BRANCH  22  23
ATOM     23  O5* UNL     1     -34.062  26.429   6.272  0.00  0.00    -0.379 OA
ATOM     24  H5* UNL     1     -33.539  27.209   6.513  0.00  0.00    +0.211 HD
ENDBRANCH  22  23
ENDBRANCH  17  22
ENDBRANCH   1  14
BRANCH   5  25
ATOM     25  C   UNL     1     -38.708  25.285   1.518  0.00  0.00    +0.104 C 
BRANCH  25  26
ATOM     26  C   UNL     1     -39.825  25.492   2.565  0.00  0.00    +0.119 C 
ATOM     27  C   UNL     1     -41.188  25.720   1.923  0.00  0.00    +0.032 C 
BRANCH  26  28
ATOM     28  O   UNL     1     -39.515  26.625   3.375  0.00  0.00    -0.384 OA
ATOM     29  H   UNL     1     -40.061  26.610   4.175  0.00  0.00    +0.210 HD
ENDBRANCH  26  28
ENDBRANCH  25  26
ENDBRANCH   5  25
TORSDOF 8
ENDMDL
MODEL 2
REMARK VINA RESULT:      -5.8      1.817      4.246
REMARK  Name = 53462205
REMARK  8 active torsions:
REMARK  status: ('A' for Active; 'I' for Inactive)
REMARK    1  A    between atoms: N_1  and  C1*_11
REMARK    2  A    between atoms: C_5  and  C_25
REMARK    3  A    between atoms: C2*_12  and  O2*_15
REMARK    4  A    between atoms: C3*_13  and  O3*_17
REMARK    5  A    between atoms: C4*_14  and  C5*_19
REMARK    6  A    between atoms: C5*_19  and  O5*_20
REMARK    7  A    between atoms: C_25  and  C_26
REMARK    8  A    between atoms: C_26  and  O_28
REMARK                            x       y       z     vdW  Elec       q    Type
REMARK                         _______ _______ _______ _____ _____    ______ ____
ROOT
ATOM      1  N   UNL     1     -36.533  23.458   2.801  0.00  0.00    -0.224 N 
ATOM      2  N   UNL     1     -37.558  22.052   1.407  0.00  0.00    -0.385 NA
ATOM      3  N   UNL     1     -38.436  24.777   3.536  0.00  0.00    -0.227 NA
ATOM      4  N   UNL     1     -40.501  24.018   2.481  0.00  0.00    -0.227 NA
ATOM      5  C   UNL     1     -36.404  22.405   1.935  0.00  0.00    +0.169 C 
ATOM      6  C   UNL     1     -37.856  23.799   2.825  0.00  0.00    +0.169 C 
ATOM      7  C   UNL     1     -38.473  22.915   1.955  0.00  0.00    +0.195 C 
ATOM      8  C   UNL     1     -39.849  23.049   1.794  0.00  0.00    +0.155 C 
ATOM      9  C   UNL     1     -39.765  24.809   3.298  0.00  0.00    +0.253 C 
ATOM     10  N   UNL     1     -40.557  22.196   0.931  0.00  0.00    -0.341 N 
ATOM     11  H   UNL     1     -41.530  22.300   0.824  0.00  0.00    +0.144 HD
ATOM     12  H   UNL     1     -40.080  21.494   0.432  0.00  0.00    +0.144 HD
ENDROOT
BRANCH   1  14
ATOM     13  O4* UNL     1     -35.898  24.569   4.872  0.00  0.00    -0.333 OA
ATOM     14  C1* UNL     1     -35.425  24.125   3.586  0.00  0.00    +0.229 C 
ATOM     15  C2* UNL     1     -34.835  25.340   2.866  0.00  0.00    +0.187 C 
ATOM     16  C3* UNL     1     -35.357  26.524   3.652  0.00  0.00    +0.171 C 
ATOM     17  C4* UNL     1     -35.596  25.963   5.046  0.00  0.00    +0.175 C 
BRANCH  15  18
ATOM     18  O2* UNL     1     -33.414  25.308   2.960  0.00  0.00    -0.378 OA
ATOM     19  H2* UNL     1     -33.031  25.339   2.069  0.00  0.00    +0.211 HD
ENDBRANCH  15  18
BRANCH  16  20
ATOM     20  O3* UNL     1     -36.614  26.929   3.112  0.00  0.00    -0.379 OA
ATOM     21  H3* UNL     1     -37.331  26.503   3.609  0.00  0.00    +0.211 HD
ENDBRANCH  16  20
BRANCH  17  22
ATOM     22  C5* UNL     1     -34.386  26.079   5.963  0.00  0.00    +0.169 C 
BRANCH  22  23
ATOM     23  O5* UNL     1     -33.571  27.149   5.513  0.00  0.00    -0.379 OA
ATOM     24  H5* UNL     1     -34.066  27.981   5.574  0.00  0.00    +0.211 HD
ENDBRANCH  22  23
ENDBRANCH  17  22
ENDBRANCH   1  14
BRANCH   5  25
ATOM     25  C   UNL     1     -35.098  21.771   1.660  0.00  0.00    +0.104 C 
BRANCH  25  26
ATOM     26  C   UNL     1     -34.945  20.379   2.313  0.00  0.00    +0.119 C 
ATOM     27  C   UNL     1     -34.172  19.406   1.431  0.00  0.00    +0.032 C 
BRANCH  26  28
ATOM     28  O   UNL     1     -36.235  19.827   2.567  0.00  0.00    -0.384 OA
ATOM     29  H   UNL     1     -36.148  19.055   3.148  0.00  0.00    +0.210 HD
ENDBRANCH  26  28
ENDBRANCH  25  26
ENDBRANCH   5  25
TORSDOF 8
ENDMDL
MODEL 3
REMARK VINA RESULT:      -5.5      2.417      5.230
REMARK  Name = 53462205
REMARK  8 active torsions:
REMARK  status: ('A' for Active; 'I' for Inactive)
REMARK    1  A    between atoms: N_1  and  C1*_11
REMARK    2  A    between atoms: C_5  and  C_25
REMARK    3  A    between atoms: C2*_12  and  O2*_15
REMARK    4  A    between atoms: C3*_13  and  O3*_17
REMARK    5  A    between atoms: C4*_14  and  C5*_19
REMARK    6  A    between atoms: C5*_19  and  O5*_20
REMARK    7  A    between atoms: C_25  and  C_26
REMARK    8  A    between atoms: C_26  and  O_28
REMARK                            x       y       z     vdW  Elec       q    Type
REMARK                         _______ _______ _______ _____ _____    ______ ____
ROOT
ATOM      1  N   UNL     1     -36.808  23.581   3.188  0.00  0.00    -0.224 N 
ATOM      2  N   UNL     1     -37.820  25.243   4.276  0.00  0.00    -0.385 NA
ATOM      3  N   UNL     1     -38.493  23.098   1.506  0.00  0.00    -0.227 NA
ATOM      4  N   UNL     1     -40.430  24.563   1.745  0.00  0.00    -0.227 NA
ATOM      5  C   UNL     1     -36.742  24.490   4.210  0.00  0.00    +0.169 C 
ATOM      6  C   UNL     1     -38.008  23.769   2.561  0.00  0.00    +0.169 C 
ATOM      7  C   UNL     1     -38.619  24.803   3.251  0.00  0.00    +0.195 C 
ATOM      8  C   UNL     1     -39.877  25.198   2.807  0.00  0.00    +0.155 C 
ATOM      9  C   UNL     1     -39.714  23.568   1.169  0.00  0.00    +0.253 C 
ATOM     10  N   UNL     1     -40.570  26.239   3.447  0.00  0.00    -0.341 N 
ATOM     11  H   UNL     1     -41.460  26.511   3.125  0.00  0.00    +0.144 HD
ATOM     12  H   UNL     1     -40.166  26.698   4.218  0.00  0.00    +0.144 HD
ENDROOT
BRANCH   1  14
ATOM     13  O4* UNL     1     -35.673  22.401   1.386  0.00  0.00    -0.333 OA
ATOM     14  C1* UNL     1     -35.756  22.559   2.815  0.00  0.00    +0.229 C 
ATOM     15  C2* UNL     1     -36.029  21.180   3.418  0.00  0.00    +0.187 C 
ATOM     16  C3* UNL     1     -36.474  20.342   2.238  0.00  0.00    +0.171 C 
ATOM     17  C4* UNL     1     -35.812  21.012   1.043  0.00  0.00    +0.175 C 
BRANCH  15  18
ATOM     18  O2* UNL     1     -34.821  20.640   3.944  0.00  0.00    -0.378 OA
ATOM     19  H2* UNL     1     -34.634  19.789   3.515  0.00  0.00    +0.211 HD
ENDBRANCH  15  18
BRANCH  16  20
ATOM     20  O3* UNL     1     -37.887  20.455   2.087  0.00  0.00    -0.379 OA
ATOM     21  H3* UNL     1     -38.202  21.241   2.561  0.00  0.00    +0.211 HD
ENDBRANCH  16  20
BRANCH  17  22
ATOM     22  C5* UNL     1     -34.430  20.458   0.723  0.00  0.00    +0.169 C 
BRANCH  22  23
ATOM     23  O5* UNL     1     -34.297  19.182   1.328  0.00  0.00    -0.379 OA
ATOM     24  H5* UNL     1     -35.158  18.895   1.670  0.00  0.00    +0.211 HD
ENDBRANCH  22  23
ENDBRANCH  17  22
ENDBRANCH   1  14
BRANCH   5  25
ATOM     25  C   UNL     1     -35.572  24.575   5.108  0.00  0.00    +0.104 C 
BRANCH  25  26
ATOM     26  C   UNL     1     -34.744  25.865   4.913  0.00  0.00    +0.119 C 
ATOM     27  C   UNL     1     -33.878  26.189   6.125  0.00  0.00    +0.032 C 
BRANCH  26  28
ATOM     28  O   UNL     1     -35.622  26.965   4.682  0.00  0.00    -0.384 OA
ATOM     29  H   UNL     1     -36.244  27.044   5.421  0.00  0.00    +0.210 HD
ENDBRANCH  26  28
ENDBRANCH  25  26
ENDBRANCH   5  25
TORSDOF 8
ENDMDL
MODEL 4
REMARK VINA RESULT:      -5.5      3.185      6.118
REMARK  Name = 53462205
REMARK  8 active torsions:
REMARK  status: ('A' for Active; 'I' for Inactive)
REMARK    1  A    between atoms: N_1  and  C1*_11
REMARK    2  A    between atoms: C_5  and  C_25
REMARK    3  A    between atoms: C2*_12  and  O2*_15
REMARK    4  A    between atoms: C3*_13  and  O3*_17
REMARK    5  A    between atoms: C4*_14  and  C5*_19
REMARK    6  A    between atoms: C5*_19  and  O5*_20
REMARK    7  A    between atoms: C_25  and  C_26
REMARK    8  A    between atoms: C_26  and  O_28
REMARK                            x       y       z     vdW  Elec       q    Type
REMARK                         _______ _______ _______ _____ _____    ______ ____
ROOT
ATOM      1  N   UNL     1     -37.255  22.814   2.116  0.00  0.00    -0.224 N 
ATOM      2  N   UNL     1     -37.791  24.175   3.799  0.00  0.00    -0.385 NA
ATOM      3  N   UNL     1     -39.210  23.106   0.705  0.00  0.00    -0.227 NA
ATOM      4  N   UNL     1     -40.798  24.668   1.703  0.00  0.00    -0.227 NA
ATOM      5  C   UNL     1     -36.887  23.343   3.325  0.00  0.00    +0.169 C 
ATOM      6  C   UNL     1     -38.473  23.345   1.800  0.00  0.00    +0.169 C 
ATOM      7  C   UNL     1     -38.787  24.185   2.856  0.00  0.00    +0.195 C 
ATOM      8  C   UNL     1     -40.001  24.862   2.781  0.00  0.00    +0.155 C 
ATOM      9  C   UNL     1     -40.360  23.816   0.746  0.00  0.00    +0.253 C 
ATOM     10  N   UNL     1     -40.401  25.735   3.807  0.00  0.00    -0.341 N 
ATOM     11  H   UNL     1     -41.262  26.208   3.745  0.00  0.00    +0.144 HD
ATOM     12  H   UNL     1     -39.820  25.873   4.590  0.00  0.00    +0.144 HD
ENDROOT
BRANCH   1  14
ATOM     13  O4* UNL     1     -36.665  22.068  -0.124  0.00  0.00    -0.333 OA
ATOM     14  C1* UNL     1     -36.466  21.829   1.282  0.00  0.00    +0.229 C 
ATOM     15  C2* UNL     1     -36.848  20.374   1.563  0.00  0.00    +0.187 C 
ATOM     16  C3* UNL     1     -37.625  19.952   0.334  0.00  0.00    +0.171 C 
ATOM     17  C4* UNL     1     -37.087  20.853  -0.768  0.00  0.00    +0.175 C 
BRANCH  15  18
ATOM     18  O2* UNL     1     -35.669  19.581   1.663  0.00  0.00    -0.378 OA
ATOM     19  H2* UNL     1     -34.896  20.124   1.443  0.00  0.00    +0.211 HD
ENDBRANCH  15  18
BRANCH  16  20
ATOM     20  O3* UNL     1     -39.006  20.256   0.524  0.00  0.00    -0.379 OA
ATOM     21  H3* UNL     1     -39.190  20.345   1.472  0.00  0.00    +0.211 HD
ENDBRANCH  16  20
BRANCH  17  22
ATOM     22  C5* UNL     1     -35.892  20.264  -1.506  0.00  0.00    +0.169 C 
BRANCH  22  23
ATOM     23  O5* UNL     1     -35.875  18.860  -1.302  0.00  0.00    -0.379 OA
ATOM     24  H5* UNL     1     -36.047  18.409  -2.143  0.00  0.00    +0.211 HD
ENDBRANCH  22  23
ENDBRANCH  17  22
ENDBRANCH   1  14
BRANCH   5  25
ATOM     25  C   UNL     1     -35.611  22.989   3.980  0.00  0.00    +0.104 C 
BRANCH  25  26
ATOM     26  C   UNL     1     -35.750  21.850   5.015  0.00  0.00    +0.119 C 
ATOM     27  C   UNL     1     -35.083  22.188   6.343  0.00  0.00    +0.032 C 
BRANCH  26  28
ATOM     28  O   UNL     1     -35.152  20.662   4.501  0.00  0.00    -0.384 OA
ATOM     29  H   UNL     1     -35.795  19.937   4.529  0.00  0.00    +0.210 HD
ENDBRANCH  26  28
ENDBRANCH  25  26
ENDBRANCH   5  25
TORSDOF 8
ENDMDL
MODEL 5
REMARK VINA RESULT:      -5.4      1.555      4.502
REMARK  Name = 53462205
REMARK  8 active torsions:
REMARK  status: ('A' for Active; 'I' for Inactive)
REMARK    1  A    between atoms: N_1  and  C1*_11
REMARK    2  A    between atoms: C_5  and  C_25
REMARK    3  A    between atoms: C2*_12  and  O2*_15
REMARK    4  A    between atoms: C3*_13  and  O3*_17
REMARK    5  A    between atoms: C4*_14  and  C5*_19
REMARK    6  A    between atoms: C5*_19  and  O5*_20
REMARK    7  A    between atoms: C_25  and  C_26
REMARK    8  A    between atoms: C_26  and  O_28
REMARK                            x       y       z     vdW  Elec       q    Type
REMARK                         _______ _______ _______ _____ _____    ______ ____
ROOT
ATOM      1  N   UNL     1     -36.961  22.980   3.295  0.00  0.00    -0.224 N 
ATOM      2  N   UNL     1     -35.213  21.669   3.743  0.00  0.00    -0.385 NA
ATOM      3  N   UNL     1     -37.726  21.963   1.226  0.00  0.00    -0.227 NA
ATOM      4  N   UNL     1     -36.321  20.069   0.597  0.00  0.00    -0.227 NA
ATOM      5  C   UNL     1     -35.925  22.701   4.147  0.00  0.00    +0.169 C 
ATOM      6  C   UNL     1     -36.905  22.065   2.282  0.00  0.00    +0.169 C 
ATOM      7  C   UNL     1     -35.815  21.262   2.579  0.00  0.00    +0.195 C 
ATOM      8  C   UNL     1     -35.533  20.231   1.687  0.00  0.00    +0.155 C 
ATOM      9  C   UNL     1     -37.353  20.931   0.437  0.00  0.00    +0.253 C 
ATOM     10  N   UNL     1     -34.446  19.368   1.909  0.00  0.00    -0.341 N 
ATOM     11  H   UNL     1     -34.255  18.643   1.272  0.00  0.00    +0.144 HD
ATOM     12  H   UNL     1     -33.876  19.489   2.702  0.00  0.00    +0.144 HD
ENDROOT
BRANCH   1  14
ATOM     13  O4* UNL     1     -39.262  23.684   2.928  0.00  0.00    -0.333 OA
ATOM     14  C1* UNL     1     -37.979  24.089   3.442  0.00  0.00    +0.229 C 
ATOM     15  C2* UNL     1     -37.571  25.369   2.710  0.00  0.00    +0.187 C 
ATOM     16  C3* UNL     1     -38.498  25.423   1.514  0.00  0.00    +0.171 C 
ATOM     17  C4* UNL     1     -39.726  24.647   1.967  0.00  0.00    +0.175 C 
BRANCH  15  18
ATOM     18  O2* UNL     1     -37.821  26.497   3.543  0.00  0.00    -0.378 OA
ATOM     19  H2* UNL     1     -38.525  27.038   3.152  0.00  0.00    +0.211 HD
ENDBRANCH  15  18
BRANCH  16  20
ATOM     20  O3* UNL     1     -37.903  24.719   0.426  0.00  0.00    -0.379 OA
ATOM     21  H3* UNL     1     -37.084  24.293   0.725  0.00  0.00    +0.211 HD
ENDBRANCH  16  20
BRANCH  17  22
ATOM     22  C5* UNL     1     -40.783  25.516   2.635  0.00  0.00    +0.169 C 
BRANCH  22  23
ATOM     23  O5* UNL     1     -40.582  26.864   2.243  0.00  0.00    -0.379 OA
ATOM     24  H5* UNL     1     -41.392  27.372   2.401  0.00  0.00    +0.211 HD
ENDBRANCH  22  23
ENDBRANCH  17  22
ENDBRANCH   1  14
BRANCH   5  25
ATOM     25  C   UNL     1     -35.677  23.497   5.367  0.00  0.00    +0.104 C 
BRANCH  25  26
ATOM     26  C   UNL     1     -34.550  24.540   5.198  0.00  0.00    +0.119 C 
ATOM     27  C   UNL     1     -34.989  25.941   5.606  0.00  0.00    +0.032 C 
BRANCH  26  28
ATOM     28  O   UNL     1     -34.136  24.578   3.834  0.00  0.00    -0.384 OA
ATOM     29  H   UNL     1     -34.885  24.353   3.261  0.00  0.00    +0.210 HD
ENDBRANCH  26  28
ENDBRANCH  25  26
ENDBRANCH   5  25
TORSDOF 8
ENDMDL
MODEL 6
REMARK VINA RESULT:      -5.4      2.280      4.596
REMARK  Name = 53462205
REMARK  8 active torsions:
REMARK  status: ('A' for Active; 'I' for Inactive)
REMARK    1  A    between atoms: N_1  and  C1*_11
REMARK    2  A    between atoms: C_5  and  C_25
REMARK    3  A    between atoms: C2*_12  and  O2*_15
REMARK    4  A    between atoms: C3*_13  and  O3*_17
REMARK    5  A    between atoms: C4*_14  and  C5*_19
REMARK    6  A    between atoms: C5*_19  and  O5*_20
REMARK    7  A    between atoms: C_25  and  C_26
REMARK    8  A    between atoms: C_26  and  O_28
REMARK                            x       y       z     vdW  Elec       q    Type
REMARK                         _______ _______ _______ _____ _____    ______ ____
ROOT
ATOM      1  N   UNL     1     -36.605  23.507   2.344  0.00  0.00    -0.224 N 
ATOM      2  N   UNL     1     -36.019  21.502   3.123  0.00  0.00    -0.385 NA
ATOM      3  N   UNL     1     -36.042  24.882   4.265  0.00  0.00    -0.227 NA
ATOM      4  N   UNL     1     -35.138  23.532   6.087  0.00  0.00    -0.227 NA
ATOM      5  C   UNL     1     -36.515  22.162   2.097  0.00  0.00    +0.169 C 
ATOM      6  C   UNL     1     -36.136  23.715   3.610  0.00  0.00    +0.169 C 
ATOM      7  C   UNL     1     -35.778  22.460   4.075  0.00  0.00    +0.195 C 
ATOM      8  C   UNL     1     -35.261  22.392   5.365  0.00  0.00    +0.155 C 
ATOM      9  C   UNL     1     -35.530  24.689   5.501  0.00  0.00    +0.253 C 
ATOM     10  N   UNL     1     -34.872  21.160   5.918  0.00  0.00    -0.341 N 
ATOM     11  H   UNL     1     -34.508  21.123   6.832  0.00  0.00    +0.144 HD
ATOM     12  H   UNL     1     -34.963  20.333   5.391  0.00  0.00    +0.144 HD
ENDROOT
BRANCH   1  14
ATOM     13  O4* UNL     1     -36.395  25.799   1.551  0.00  0.00    -0.333 OA
ATOM     14  C1* UNL     1     -37.125  24.567   1.397  0.00  0.00    +0.229 C 
ATOM     15  C2* UNL     1     -38.608  24.879   1.612  0.00  0.00    +0.187 C 
ATOM     16  C3* UNL     1     -38.607  26.244   2.267  0.00  0.00    +0.171 C 
ATOM     17  C4* UNL     1     -37.311  26.880   1.787  0.00  0.00    +0.175 C 
BRANCH  15  18
ATOM     18  O2* UNL     1     -39.265  24.967   0.352  0.00  0.00    -0.378 OA
ATOM     19  H2* UNL     1     -40.223  24.890   0.482  0.00  0.00    +0.211 HD
ENDBRANCH  15  18
BRANCH  16  20
ATOM     20  O3* UNL     1     -38.529  26.086   3.682  0.00  0.00    -0.379 OA
ATOM     21  H3* UNL     1     -39.176  26.669   4.109  0.00  0.00    +0.211 HD
ENDBRANCH  16  20
BRANCH  17  22
ATOM     22  C5* UNL     1     -37.464  27.668   0.492  0.00  0.00    +0.169 C 
BRANCH  22  23
ATOM     23  O5* UNL     1     -38.818  28.070   0.358  0.00  0.00    -0.379 OA
ATOM     24  H5* UNL     1     -38.885  29.028   0.492  0.00  0.00    +0.211 HD
ENDBRANCH  22  23
ENDBRANCH  17  22
ENDBRANCH   1  14
BRANCH   5  25
ATOM     25  C   UNL     1     -36.937  21.571   0.811  0.00  0.00    +0.104 C 
BRANCH  25  26
ATOM     26  C   UNL     1     -38.314  20.874   0.881  0.00  0.00    +0.119 C 
ATOM     27  C   UNL     1     -39.322  21.481  -0.087  0.00  0.00    +0.032 C 
BRANCH  26  28
ATOM     28  O   UNL     1     -38.838  20.985   2.203  0.00  0.00    -0.384 OA
ATOM     29  H   UNL     1     -39.473  20.269   2.361  0.00  0.00    +0.210 HD
ENDBRANCH  26  28
ENDBRANCH  25  26
ENDBRANCH   5  25
TORSDOF 8
ENDMDL
MODEL 7
REMARK VINA RESULT:      -5.4      2.657      4.602
REMARK  Name = 53462205
REMARK  8 active torsions:
REMARK  status: ('A' for Active; 'I' for Inactive)
REMARK    1  A    between atoms: N_1  and  C1*_11
REMARK    2  A    between atoms: C_5  and  C_25
REMARK    3  A    between atoms: C2*_12  and  O2*_15
REMARK    4  A    between atoms: C3*_13  and  O3*_17
REMARK    5  A    between atoms: C4*_14  and  C5*_19
REMARK    6  A    between atoms: C5*_19  and  O5*_20
REMARK    7  A    between atoms: C_25  and  C_26
REMARK    8  A    between atoms: C_26  and  O_28
REMARK                            x       y       z     vdW  Elec       q    Type
REMARK                         _______ _______ _______ _____ _____    ______ ____
ROOT
ATOM      1  N   UNL     1     -37.428  25.445   2.774  0.00  0.00    -0.224 N 
ATOM      2  N   UNL     1     -38.342  27.013   1.479  0.00  0.00    -0.385 NA
ATOM      3  N   UNL     1     -35.219  26.405   3.094  0.00  0.00    -0.227 NA
ATOM      4  N   UNL     1     -35.000  28.534   1.922  0.00  0.00    -0.227 NA
ATOM      5  C   UNL     1     -38.536  25.859   2.084  0.00  0.00    +0.169 C 
ATOM      6  C   UNL     1     -36.465  26.399   2.597  0.00  0.00    +0.169 C 
ATOM      7  C   UNL     1     -37.052  27.361   1.792  0.00  0.00    +0.195 C 
ATOM      8  C   UNL     1     -36.270  28.462   1.455  0.00  0.00    +0.155 C 
ATOM      9  C   UNL     1     -34.560  27.517   2.700  0.00  0.00    +0.253 C 
ATOM     10  N   UNL     1     -36.784  29.487   0.643  0.00  0.00    -0.341 N 
ATOM     11  H   UNL     1     -36.222  30.260   0.410  0.00  0.00    +0.144 HD
ATOM     12  H   UNL     1     -37.707  29.431   0.306  0.00  0.00    +0.144 HD
ENDROOT
BRANCH   1  14
ATOM     13  O4* UNL     1     -36.410  24.371   4.707  0.00  0.00    -0.333 OA
ATOM     14  C1* UNL     1     -37.288  24.174   3.583  0.00  0.00    +0.229 C 
ATOM     15  C2* UNL     1     -36.734  23.007   2.762  0.00  0.00    +0.187 C 
ATOM     16  C3* UNL     1     -35.319  22.836   3.272  0.00  0.00    +0.171 C 
ATOM     17  C4* UNL     1     -35.374  23.375   4.694  0.00  0.00    +0.175 C 
BRANCH  15  18
ATOM     18  O2* UNL     1     -37.478  21.827   3.048  0.00  0.00    -0.378 OA
ATOM     19  H2* UNL     1     -37.436  21.640   3.999  0.00  0.00    +0.211 HD
ENDBRANCH  15  18
BRANCH  16  20
ATOM     20  O3* UNL     1     -34.442  23.666   2.514  0.00  0.00    -0.379 OA
ATOM     21  H3* UNL     1     -33.885  24.184   3.116  0.00  0.00    +0.211 HD
ENDBRANCH  16  20
BRANCH  17  22
ATOM     22  C5* UNL     1     -35.716  22.316   5.733  0.00  0.00    +0.169 C 
BRANCH  22  23
ATOM     23  O5* UNL     1     -35.418  21.037   5.199  0.00  0.00    -0.379 OA
ATOM     24  H5* UNL     1     -36.009  20.852   4.452  0.00  0.00    +0.211 HD
ENDBRANCH  22  23
ENDBRANCH  17  22
ENDBRANCH   1  14
BRANCH   5  25
ATOM     25  C   UNL     1     -39.782  25.066   2.053  0.00  0.00    +0.104 C 
BRANCH  25  26
ATOM     26  C   UNL     1     -40.956  25.744   2.794  0.00  0.00    +0.119 C 
ATOM     27  C   UNL     1     -41.949  26.393   1.837  0.00  0.00    +0.032 C 
BRANCH  26  28
ATOM     28  O   UNL     1     -40.451  26.752   3.668  0.00  0.00    -0.384 OA
ATOM     29  H   UNL     1     -41.190  27.200   4.107  0.00  0.00    +0.210 HD
ENDBRANCH  26  28
ENDBRANCH  25  26
ENDBRANCH   5  25
TORSDOF 8
ENDMDL
MODEL 8
REMARK VINA RESULT:      -5.3      2.003      4.441
REMARK  Name = 53462205
REMARK  8 active torsions:
REMARK  status: ('A' for Active; 'I' for Inactive)
REMARK    1  A    between atoms: N_1  and  C1*_11
REMARK    2  A    between atoms: C_5  and  C_25
REMARK    3  A    between atoms: C2*_12  and  O2*_15
REMARK    4  A    between atoms: C3*_13  and  O3*_17
REMARK    5  A    between atoms: C4*_14  and  C5*_19
REMARK    6  A    between atoms: C5*_19  and  O5*_20
REMARK    7  A    between atoms: C_25  and  C_26
REMARK    8  A    between atoms: C_26  and  O_28
REMARK                            x       y       z     vdW  Elec       q    Type
REMARK                         _______ _______ _______ _____ _____    ______ ____
ROOT
ATOM      1  N   UNL     1     -36.984  22.494   2.631  0.00  0.00    -0.224 N 
ATOM      2  N   UNL     1     -37.568  20.806   1.297  0.00  0.00    -0.385 NA
ATOM      3  N   UNL     1     -38.999  23.844   2.502  0.00  0.00    -0.227 NA
ATOM      4  N   UNL     1     -40.668  22.809   1.053  0.00  0.00    -0.227 NA
ATOM      5  C   UNL     1     -36.619  21.302   2.063  0.00  0.00    +0.169 C 
ATOM      6  C   UNL     1     -38.249  22.774   2.197  0.00  0.00    +0.169 C 
ATOM      7  C   UNL     1     -38.592  21.716   1.372  0.00  0.00    +0.195 C 
ATOM      8  C   UNL     1     -39.856  21.757   0.790  0.00  0.00    +0.155 C 
ATOM      9  C   UNL     1     -40.197  23.772   1.881  0.00  0.00    +0.253 C 
ATOM     10  N   UNL     1     -40.288  20.726  -0.061  0.00  0.00    -0.341 N 
ATOM     11  H   UNL     1     -41.183  20.765  -0.469  0.00  0.00    +0.144 HD
ATOM     12  H   UNL     1     -39.694  19.963  -0.251  0.00  0.00    +0.144 HD
ENDROOT
BRANCH   1  14
ATOM     13  O4* UNL     1     -36.978  24.007   4.538  0.00  0.00    -0.333 OA
ATOM     14  C1* UNL     1     -36.150  23.344   3.564  0.00  0.00    +0.229 C 
ATOM     15  C2* UNL     1     -35.350  24.422   2.828  0.00  0.00    +0.187 C 
ATOM     16  C3* UNL     1     -36.062  25.712   3.175  0.00  0.00    +0.171 C 
ATOM     17  C4* UNL     1     -36.717  25.420   4.517  0.00  0.00    +0.175 C 
BRANCH  15  18
ATOM     18  O2* UNL     1     -34.023  24.468   3.344  0.00  0.00    -0.378 OA
ATOM     19  H2* UNL     1     -33.622  25.324   3.126  0.00  0.00    +0.211 HD
ENDBRANCH  15  18
BRANCH  16  20
ATOM     20  O3* UNL     1     -37.092  25.953   2.219  0.00  0.00    -0.379 OA
ATOM     21  H3* UNL     1     -37.718  25.211   2.223  0.00  0.00    +0.211 HD
ENDBRANCH  16  20
BRANCH  17  22
ATOM     22  C5* UNL     1     -35.836  25.761   5.711  0.00  0.00    +0.169 C 
BRANCH  22  23
ATOM     23  O5* UNL     1     -34.835  26.676   5.295  0.00  0.00    -0.379 OA
ATOM     24  H5* UNL     1     -34.259  26.251   4.641  0.00  0.00    +0.211 HD
ENDBRANCH  22  23
ENDBRANCH  17  22
ENDBRANCH   1  14
BRANCH   5  25
ATOM     25  C   UNL     1     -35.300  20.685   2.314  0.00  0.00    +0.104 C 
BRANCH  25  26
ATOM     26  C   UNL     1     -34.888  19.662   1.232  0.00  0.00    +0.119 C 
ATOM     27  C   UNL     1     -33.503  19.078   1.482  0.00  0.00    +0.032 C 
BRANCH  26  28
ATOM     28  O   UNL     1     -34.885  20.294  -0.046  0.00  0.00    -0.384 OA
ATOM     29  H   UNL     1     -34.227  19.868  -0.617  0.00  0.00    +0.210 HD
ENDBRANCH  26  28
ENDBRANCH  25  26
ENDBRANCH   5  25
TORSDOF 8
ENDMDL
MODEL 9
REMARK VINA RESULT:      -5.2      2.946      6.180
REMARK  Name = 53462205
REMARK  8 active torsions:
REMARK  status: ('A' for Active; 'I' for Inactive)
REMARK    1  A    between atoms: N_1  and  C1*_11
REMARK    2  A    between atoms: C_5  and  C_25
REMARK    3  A    between atoms: C2*_12  and  O2*_15
REMARK    4  A    between atoms: C3*_13  and  O3*_17
REMARK    5  A    between atoms: C4*_14  and  C5*_19
REMARK    6  A    between atoms: C5*_19  and  O5*_20
REMARK    7  A    between atoms: C_25  and  C_26
REMARK    8  A    between atoms: C_26  and  O_28
REMARK                            x       y       z     vdW  Elec       q    Type
REMARK                         _______ _______ _______ _____ _____    ______ ____
ROOT
ATOM      1  N   UNL     1     -35.824  24.831   3.867  0.00  0.00    -0.224 N 
ATOM      2  N   UNL     1     -34.530  24.997   5.676  0.00  0.00    -0.385 NA
ATOM      3  N   UNL     1     -35.236  26.902   2.742  0.00  0.00    -0.227 NA
ATOM      4  N   UNL     1     -33.587  28.168   4.020  0.00  0.00    -0.227 NA
ATOM      5  C   UNL     1     -35.418  24.259   5.044  0.00  0.00    +0.169 C 
ATOM      6  C   UNL     1     -35.149  26.012   3.743  0.00  0.00    +0.169 C 
ATOM      7  C   UNL     1     -34.353  26.096   4.873  0.00  0.00    +0.195 C 
ATOM      8  C   UNL     1     -33.549  27.226   4.994  0.00  0.00    +0.155 C 
ATOM      9  C   UNL     1     -34.415  27.951   2.971  0.00  0.00    +0.253 C 
ATOM     10  N   UNL     1     -32.710  27.394   6.108  0.00  0.00    -0.341 N 
ATOM     11  H   UNL     1     -32.146  28.198   6.184  0.00  0.00    +0.144 HD
ATOM     12  H   UNL     1     -32.685  26.708   6.814  0.00  0.00    +0.144 HD
ENDROOT
BRANCH   1  14
ATOM     13  O4* UNL     1     -36.455  24.578   1.530  0.00  0.00    -0.333 OA
ATOM     14  C1* UNL     1     -36.828  24.267   2.886  0.00  0.00    +0.229 C 
ATOM     15  C2* UNL     1     -38.243  24.806   3.111  0.00  0.00    +0.187 C 
ATOM     16  C3* UNL     1     -38.466  25.754   1.952  0.00  0.00    +0.171 C 
ATOM     17  C4* UNL     1     -37.553  25.218   0.859  0.00  0.00    +0.175 C 
BRANCH  15  18
ATOM     18  O2* UNL     1     -39.180  23.737   3.026  0.00  0.00    -0.378 OA
ATOM     19  H2* UNL     1     -39.087  23.293   2.168  0.00  0.00    +0.211 HD
ENDBRANCH  15  18
BRANCH  16  20
ATOM     20  O3* UNL     1     -38.011  27.056   2.315  0.00  0.00    -0.379 OA
ATOM     21  H3* UNL     1     -38.060  27.159   3.279  0.00  0.00    +0.211 HD
ENDBRANCH  16  20
BRANCH  17  22
ATOM     22  C5* UNL     1     -38.223  24.194  -0.046  0.00  0.00    +0.169 C 
BRANCH  22  23
ATOM     23  O5* UNL     1     -37.256  23.241  -0.455  0.00  0.00    -0.379 OA
ATOM     24  H5* UNL     1     -37.637  22.351  -0.406  0.00  0.00    +0.211 HD
ENDBRANCH  22  23
ENDBRANCH  17  22
ENDBRANCH   1  14
BRANCH   5  25
ATOM     25  C   UNL     1     -35.946  22.958   5.506  0.00  0.00    +0.104 C 
BRANCH  25  26
ATOM     26  C   UNL     1     -35.076  21.757   5.075  0.00  0.00    +0.119 C 
ATOM     27  C   UNL     1     -35.383  21.297   3.655  0.00  0.00    +0.032 C 
BRANCH  26  28
ATOM     28  O   UNL     1     -35.303  20.662   5.961  0.00  0.00    -0.384 OA
ATOM     29  H   UNL     1     -34.720  20.742   6.731  0.00  0.00    +0.210 HD
ENDBRANCH  26  28
ENDBRANCH  25  26
ENDBRANCH   5  25
TORSDOF 8
ENDMDL
