MODEL 1
REMARK VINA RESULT:      -6.6      0.000      0.000
REMARK  Name = 196428
REMARK  8 active torsions:
REMARK  status: ('A' for Active; 'I' for Inactive)
REMARK    1  A    between atoms: C_1  and  C_4
REMARK    2  A    between atoms: C_1  and  N_18
REMARK    3  A    between atoms: C_1  and  C_22
REMARK    4  A    between atoms: N_3  and  C_8
REMARK    5  A    between atoms: C_22  and  C_23
REMARK    6  A    between atoms: C_23  and  C_24
REMARK    7  A    between atoms: C_24  and  N_25
REMARK    8  A    between atoms: N_25  and  C_28
REMARK                            x       y       z     vdW  Elec       q    Type
REMARK                         _______ _______ _______ _____ _____    ______ ____
ROOT
ATOM      1  C   UNL     1     -34.652  29.925   2.494  0.00  0.00    +0.013 C 
ENDROOT
BRANCH   1   4
ATOM      2  O   UNL     1     -36.198  28.153   1.966  0.00  0.00    -0.277 OA
ATOM      3  N   UNL     1     -34.486  27.742   3.518  0.00  0.00    -0.286 N 
ATOM      4  C   UNL     1     -35.211  28.505   2.607  0.00  0.00    +0.206 C 
ATOM      5  H   UNL     1     -33.731  28.194   3.960  0.00  0.00    +0.155 HD
BRANCH   3   8
ATOM      6  O   UNL     1     -35.059  23.149   2.243  0.00  0.00    -0.421 OA
ATOM      7  O   UNL     1     -35.329  20.968   1.612  0.00  0.00    -0.244 OA
ATOM      8  C   UNL     1     -34.708  26.392   3.882  0.00  0.00    +0.053 C 
ATOM      9  C   UNL     1     -35.146  23.727   4.615  0.00  0.00    +0.031 C 
ATOM     10  C   UNL     1     -34.996  24.102   3.279  0.00  0.00    +0.150 C 
ATOM     11  C   UNL     1     -34.777  25.427   2.898  0.00  0.00    +0.052 C 
ATOM     12  C   UNL     1     -34.851  26.066   5.219  0.00  0.00    +0.015 C 
ATOM     13  C   UNL     1     -35.372  22.309   4.925  0.00  0.00    -0.012 C 
ATOM     14  C   UNL     1     -35.069  24.734   5.586  0.00  0.00    +0.004 C 
ATOM     15  C   UNL     1     -35.429  21.424   3.919  0.00  0.00    +0.078 C 
ATOM     16  C   UNL     1     -35.537  21.872   6.352  0.00  0.00    +0.031 C 
ATOM     17  C   UNL     1     -35.272  21.805   2.505  0.00  0.00    +0.346 C 
ENDBRANCH   3   8
ENDBRANCH   1   4
BRANCH   1  18
ATOM     18  N   UNL     1     -35.424  30.729   3.441  0.00  0.00    +0.387 N 
ATOM     19  H   UNL     1     -36.188  30.168   3.821  0.00  0.00    -0.089 HD
ATOM     20  H   UNL     1     -35.806  31.545   2.963  0.00  0.00    -0.089 HD
ATOM     21  H   UNL     1     -34.817  31.035   4.202  0.00  0.00    -0.089 HD
ENDBRANCH   1  18
BRANCH   1  22
ATOM     22  C   UNL     1     -33.156  30.001   2.837  0.00  0.00    -0.011 C 
BRANCH  22  23
ATOM     23  C   UNL     1     -32.896  30.865   4.078  0.00  0.00    +0.025 C 
BRANCH  23  24
ATOM     24  C   UNL     1     -31.945  30.194   5.064  0.00  0.00    +0.129 C 
BRANCH  24  25
ATOM     25  N   UNL     1     -32.414  28.842   5.370  0.00  0.00    -0.240 NA
BRANCH  25  28
ATOM     26  N   UNL     1     -30.527  28.398   6.641  0.00  0.00    -0.370 N 
ATOM     27  N   UNL     1     -32.482  27.445   7.322  0.00  0.00    -0.370 N 
ATOM     28  C   UNL     1     -31.871  28.252   6.389  0.00  0.00    +0.189 C 
ATOM     29  H   UNL     1     -29.972  28.954   6.046  0.00  0.00    +0.159 HD
ATOM     30  H   UNL     1     -30.120  27.948   7.416  0.00  0.00    +0.159 HD
ATOM     31  H   UNL     1     -33.446  27.259   7.256  0.00  0.00    +0.159 HD
ATOM     32  H   UNL     1     -31.954  27.054   8.056  0.00  0.00    +0.159 HD
ENDBRANCH  25  28
ENDBRANCH  24  25
ENDBRANCH  23  24
ENDBRANCH  22  23
ENDBRANCH   1  22
TORSDOF 8
ENDMDL
MODEL 2
REMARK VINA RESULT:      -6.4      1.682      2.108
REMARK  Name = 196428
REMARK  8 active torsions:
REMARK  status: ('A' for Active; 'I' for Inactive)
REMARK    1  A    between atoms: C_1  and  C_4
REMARK    2  A    between atoms: C_1  and  N_18
REMARK    3  A    between atoms: C_1  and  C_22
REMARK    4  A    between atoms: N_3  and  C_8
REMARK    5  A    between atoms: C_22  and  C_23
REMARK    6  A    between atoms: C_23  and  C_24
REMARK    7  A    between atoms: C_24  and  N_25
REMARK    8  A    between atoms: N_25  and  C_28
REMARK                            x       y       z     vdW  Elec       q    Type
REMARK                         _______ _______ _______ _____ _____    ______ ____
ROOT
ATOM      1  C   UNL     1     -32.332  29.919   3.702  0.00  0.00    +0.013 C 
ENDROOT
BRANCH   1   4
ATOM      2  O   UNL     1     -31.336  27.738   3.953  0.00  0.00    -0.277 OA
ATOM      3  N   UNL     1     -33.669  27.946   4.100  0.00  0.00    -0.286 N 
ATOM      4  C   UNL     1     -32.366  28.408   3.942  0.00  0.00    +0.206 C 
ATOM      5  H   UNL     1     -34.381  28.624   4.041  0.00  0.00    +0.155 HD
BRANCH   3   8
ATOM      6  O   UNL     1     -34.959  23.646   2.399  0.00  0.00    -0.421 OA
ATOM      7  O   UNL     1     -35.571  21.606   1.565  0.00  0.00    -0.244 OA
ATOM      8  C   UNL     1     -34.090  26.615   4.336  0.00  0.00    +0.053 C 
ATOM      9  C   UNL     1     -34.919  23.985   4.817  0.00  0.00    +0.031 C 
ATOM     10  C   UNL     1     -34.735  24.468   3.521  0.00  0.00    +0.150 C 
ATOM     11  C   UNL     1     -34.321  25.776   3.265  0.00  0.00    +0.052 C 
ATOM     12  C   UNL     1     -34.259  26.180   5.639  0.00  0.00    +0.015 C 
ATOM     13  C   UNL     1     -35.355  22.593   4.994  0.00  0.00    -0.012 C 
ATOM     14  C   UNL     1     -34.674  24.865   5.880  0.00  0.00    +0.004 C 
ATOM     15  C   UNL     1     -35.563  21.835   3.908  0.00  0.00    +0.078 C 
ATOM     16  C   UNL     1     -35.563  22.044   6.375  0.00  0.00    +0.031 C 
ATOM     17  C   UNL     1     -35.371  22.330   2.534  0.00  0.00    +0.346 C 
ENDBRANCH   3   8
ENDBRANCH   1   4
BRANCH   1  18
ATOM     18  N   UNL     1     -33.721  30.366   3.805  0.00  0.00    +0.387 N 
ATOM     19  H   UNL     1     -34.344  29.558   3.748  0.00  0.00    -0.089 HD
ATOM     20  H   UNL     1     -33.929  31.009   3.041  0.00  0.00    -0.089 HD
ATOM     21  H   UNL     1     -33.862  30.840   4.696  0.00  0.00    -0.089 HD
ENDBRANCH   1  18
BRANCH   1  22
ATOM     22  C   UNL     1     -31.464  30.661   4.730  0.00  0.00    -0.011 C 
BRANCH  22  23
ATOM     23  C   UNL     1     -32.055  30.581   6.144  0.00  0.00    +0.025 C 
BRANCH  23  24
ATOM     24  C   UNL     1     -31.278  29.625   7.045  0.00  0.00    +0.129 C 
BRANCH  24  25
ATOM     25  N   UNL     1     -29.934  29.412   6.507  0.00  0.00    -0.240 NA
BRANCH  25  28
ATOM     26  N   UNL     1     -28.437  29.298   8.273  0.00  0.00    -0.370 N 
ATOM     27  N   UNL     1     -28.813  27.376   7.107  0.00  0.00    -0.370 N 
ATOM     28  C   UNL     1     -29.119  28.712   7.232  0.00  0.00    +0.189 C 
ATOM     29  H   UNL     1     -28.568  30.254   8.471  0.00  0.00    +0.159 HD
ATOM     30  H   UNL     1     -27.820  28.761   8.820  0.00  0.00    +0.159 HD
ATOM     31  H   UNL     1     -29.234  26.838   6.399  0.00  0.00    +0.159 HD
ATOM     32  H   UNL     1     -28.171  26.957   7.727  0.00  0.00    +0.159 HD
ENDBRANCH  25  28
ENDBRANCH  24  25
ENDBRANCH  23  24
ENDBRANCH  22  23
ENDBRANCH   1  22
TORSDOF 8
ENDMDL
MODEL 3
REMARK VINA RESULT:      -6.2      2.224      4.065
REMARK  Name = 196428
REMARK  8 active torsions:
REMARK  status: ('A' for Active; 'I' for Inactive)
REMARK    1  A    between atoms: C_1  and  C_4
REMARK    2  A    between atoms: C_1  and  N_18
REMARK    3  A    between atoms: C_1  and  C_22
REMARK    4  A    between atoms: N_3  and  C_8
REMARK    5  A    between atoms: C_22  and  C_23
REMARK    6  A    between atoms: C_23  and  C_24
REMARK    7  A    between atoms: C_24  and  N_25
REMARK    8  A    between atoms: N_25  and  C_28
REMARK                            x       y       z     vdW  Elec       q    Type
REMARK                         _______ _______ _______ _____ _____    ______ ____
ROOT
ATOM      1  C   UNL     1     -31.368  29.808   6.513  0.00  0.00    +0.013 C 
ENDROOT
BRANCH   1   4
ATOM      2  O   UNL     1     -30.835  27.460   6.427  0.00  0.00    -0.277 OA
ATOM      3  N   UNL     1     -32.789  28.221   5.373  0.00  0.00    -0.286 N 
ATOM      4  C   UNL     1     -31.620  28.352   6.118  0.00  0.00    +0.206 C 
ATOM      5  H   UNL     1     -33.290  29.051   5.200  0.00  0.00    +0.155 HD
BRANCH   3   8
ATOM      6  O   UNL     1     -35.009  24.017   6.039  0.00  0.00    -0.421 OA
ATOM      7  O   UNL     1     -36.067  22.019   6.382  0.00  0.00    -0.244 OA
ATOM      8  C   UNL     1     -33.341  27.033   4.836  0.00  0.00    +0.053 C 
ATOM      9  C   UNL     1     -34.431  24.689   3.763  0.00  0.00    +0.031 C 
ATOM     10  C   UNL     1     -34.443  24.939   5.136  0.00  0.00    +0.150 C 
ATOM     11  C   UNL     1     -33.905  26.103   5.686  0.00  0.00    +0.052 C 
ATOM     12  C   UNL     1     -33.306  26.827   3.468  0.00  0.00    +0.015 C 
ATOM     13  C   UNL     1     -35.022  23.437   3.271  0.00  0.00    -0.012 C 
ATOM     14  C   UNL     1     -33.851  25.656   2.931  0.00  0.00    +0.004 C 
ATOM     15  C   UNL     1     -35.552  22.578   4.153  0.00  0.00    +0.078 C 
ATOM     16  C   UNL     1     -35.025  23.138   1.800  0.00  0.00    +0.031 C 
ATOM     17  C   UNL     1     -35.573  22.828   5.605  0.00  0.00    +0.346 C 
ENDBRANCH   3   8
ENDBRANCH   1   4
BRANCH   1  18
ATOM     18  N   UNL     1     -29.945  30.044   6.265  0.00  0.00    +0.387 N 
ATOM     19  H   UNL     1     -29.833  30.884   5.696  0.00  0.00    -0.089 HD
ATOM     20  H   UNL     1     -29.548  29.244   5.772  0.00  0.00    -0.089 HD
ATOM     21  H   UNL     1     -29.460  30.170   7.153  0.00  0.00    -0.089 HD
ENDBRANCH   1  18
BRANCH   1  22
ATOM     22  C   UNL     1     -32.213  30.798   5.697  0.00  0.00    -0.011 C 
BRANCH  22  23
ATOM     23  C   UNL     1     -31.417  31.412   4.538  0.00  0.00    +0.025 C 
BRANCH  23  24
ATOM     24  C   UNL     1     -32.255  31.560   3.271  0.00  0.00    +0.129 C 
BRANCH  24  25
ATOM     25  N   UNL     1     -33.076  30.365   3.073  0.00  0.00    -0.240 NA
BRANCH  25  28
ATOM     26  N   UNL     1     -35.298  30.671   3.659  0.00  0.00    -0.370 N 
ATOM     27  N   UNL     1     -34.805  30.668   1.434  0.00  0.00    -0.370 N 
ATOM     28  C   UNL     1     -34.307  30.555   2.713  0.00  0.00    +0.189 C 
ATOM     29  H   UNL     1     -35.074  30.609   4.616  0.00  0.00    +0.159 HD
ATOM     30  H   UNL     1     -36.230  30.816   3.380  0.00  0.00    +0.159 HD
ATOM     31  H   UNL     1     -34.198  30.604   0.662  0.00  0.00    +0.159 HD
ATOM     32  H   UNL     1     -35.769  30.813   1.292  0.00  0.00    +0.159 HD
ENDBRANCH  25  28
ENDBRANCH  24  25
ENDBRANCH  23  24
ENDBRANCH  22  23
ENDBRANCH   1  22
TORSDOF 8
ENDMDL
MODEL 4
REMARK VINA RESULT:      -6.1      5.778      8.289
REMARK  Name = 196428
REMARK  8 active torsions:
REMARK  status: ('A' for Active; 'I' for Inactive)
REMARK    1  A    between atoms: C_1  and  C_4
REMARK    2  A    between atoms: C_1  and  N_18
REMARK    3  A    between atoms: C_1  and  C_22
REMARK    4  A    between atoms: N_3  and  C_8
REMARK    5  A    between atoms: C_22  and  C_23
REMARK    6  A    between atoms: C_23  and  C_24
REMARK    7  A    between atoms: C_24  and  N_25
REMARK    8  A    between atoms: N_25  and  C_28
REMARK                            x       y       z     vdW  Elec       q    Type
REMARK                         _______ _______ _______ _____ _____    ______ ____
ROOT
ATOM      1  C   UNL     1     -37.849  21.241   2.162  0.00  0.00    +0.013 C 
ENDROOT
BRANCH   1   4
ATOM      2  O   UNL     1     -40.256  21.284   2.268  0.00  0.00    -0.277 OA
ATOM      3  N   UNL     1     -39.092  23.311   2.052  0.00  0.00    -0.286 N 
ATOM      4  C   UNL     1     -39.215  21.930   2.179  0.00  0.00    +0.206 C 
ATOM      5  H   UNL     1     -38.174  23.660   1.971  0.00  0.00    +0.155 HD
BRANCH   3   8
ATOM      6  O   UNL     1     -41.201  27.182   3.952  0.00  0.00    -0.421 OA
ATOM      7  O   UNL     1     -42.187  29.026   4.876  0.00  0.00    -0.244 OA
ATOM      8  C   UNL     1     -40.131  24.271   2.026  0.00  0.00    +0.053 C 
ATOM      9  C   UNL     1     -42.191  26.165   1.965  0.00  0.00    +0.031 C 
ATOM     10  C   UNL     1     -41.201  26.193   2.949  0.00  0.00    +0.150 C 
ATOM     11  C   UNL     1     -40.168  25.257   2.992  0.00  0.00    +0.052 C 
ATOM     12  C   UNL     1     -41.091  24.204   1.032  0.00  0.00    +0.015 C 
ATOM     13  C   UNL     1     -43.241  27.192   1.994  0.00  0.00    -0.012 C 
ATOM     14  C   UNL     1     -42.121  25.151   1.001  0.00  0.00    +0.004 C 
ATOM     15  C   UNL     1     -43.216  28.119   2.962  0.00  0.00    +0.078 C 
ATOM     16  C   UNL     1     -44.320  27.189   0.951  0.00  0.00    +0.031 C 
ATOM     17  C   UNL     1     -42.178  28.163   4.006  0.00  0.00    +0.346 C 
ENDBRANCH   3   8
ENDBRANCH   1   4
BRANCH   1  18
ATOM     18  N   UNL     1     -37.830  20.431   0.943  0.00  0.00    +0.387 N 
ATOM     19  H   UNL     1     -38.389  20.889   0.222  0.00  0.00    -0.089 HD
ATOM     20  H   UNL     1     -38.219  19.510   1.141  0.00  0.00    -0.089 HD
ATOM     21  H   UNL     1     -36.870  20.332   0.615  0.00  0.00    -0.089 HD
ENDBRANCH   1  18
BRANCH   1  22
ATOM     22  C   UNL     1     -36.682  22.240   2.147  0.00  0.00    -0.011 C 
BRANCH  22  23
ATOM     23  C   UNL     1     -35.862  22.184   3.443  0.00  0.00    +0.025 C 
BRANCH  23  24
ATOM     24  C   UNL     1     -35.569  23.572   4.006  0.00  0.00    +0.129 C 
BRANCH  24  25
ATOM     25  N   UNL     1     -36.823  24.277   4.275  0.00  0.00    -0.240 NA
BRANCH  25  28
ATOM     26  N   UNL     1     -36.929  26.332   3.210  0.00  0.00    -0.370 N 
ATOM     27  N   UNL     1     -36.544  26.349   5.456  0.00  0.00    -0.370 N 
ATOM     28  C   UNL     1     -36.763  25.570   4.342  0.00  0.00    +0.189 C 
ATOM     29  H   UNL     1     -37.095  25.896   2.343  0.00  0.00    +0.159 HD
ATOM     30  H   UNL     1     -36.883  27.314   3.267  0.00  0.00    +0.159 HD
ATOM     31  H   UNL     1     -36.409  25.926   6.334  0.00  0.00    +0.159 HD
ATOM     32  H   UNL     1     -36.522  27.331   5.374  0.00  0.00    +0.159 HD
ENDBRANCH  25  28
ENDBRANCH  24  25
ENDBRANCH  23  24
ENDBRANCH  22  23
ENDBRANCH   1  22
TORSDOF 8
ENDMDL
MODEL 5
REMARK VINA RESULT:      -6.0      1.608      2.246
REMARK  Name = 196428
REMARK  8 active torsions:
REMARK  status: ('A' for Active; 'I' for Inactive)
REMARK    1  A    between atoms: C_1  and  C_4
REMARK    2  A    between atoms: C_1  and  N_18
REMARK    3  A    between atoms: C_1  and  C_22
REMARK    4  A    between atoms: N_3  and  C_8
REMARK    5  A    between atoms: C_22  and  C_23
REMARK    6  A    between atoms: C_23  and  C_24
REMARK    7  A    between atoms: C_24  and  N_25
REMARK    8  A    between atoms: N_25  and  C_28
REMARK                            x       y       z     vdW  Elec       q    Type
REMARK                         _______ _______ _______ _____ _____    ______ ____
ROOT
ATOM      1  C   UNL     1     -34.359  30.633   2.748  0.00  0.00    +0.013 C 
ENDROOT
BRANCH   1   4
ATOM      2  O   UNL     1     -33.451  28.751   1.548  0.00  0.00    -0.277 OA
ATOM      3  N   UNL     1     -35.032  28.365   3.239  0.00  0.00    -0.286 N 
ATOM      4  C   UNL     1     -34.206  29.144   2.434  0.00  0.00    +0.206 C 
ATOM      5  H   UNL     1     -35.591  28.851   3.888  0.00  0.00    +0.155 HD
BRANCH   3   8
ATOM      6  O   UNL     1     -35.234  24.217   5.648  0.00  0.00    -0.421 OA
ATOM      7  O   UNL     1     -35.328  22.254   6.817  0.00  0.00    -0.244 OA
ATOM      8  C   UNL     1     -35.161  26.955   3.235  0.00  0.00    +0.053 C 
ATOM      9  C   UNL     1     -35.418  24.168   3.213  0.00  0.00    +0.031 C 
ATOM     10  C   UNL     1     -35.264  24.879   4.405  0.00  0.00    +0.150 C 
ATOM     11  C   UNL     1     -35.136  26.268   4.432  0.00  0.00    +0.052 C 
ATOM     12  C   UNL     1     -35.311  26.292   2.029  0.00  0.00    +0.015 C 
ATOM     13  C   UNL     1     -35.548  22.706   3.278  0.00  0.00    -0.012 C 
ATOM     14  C   UNL     1     -35.439  24.899   2.018  0.00  0.00    +0.004 C 
ATOM     15  C   UNL     1     -35.514  22.103   4.475  0.00  0.00    +0.078 C 
ATOM     16  C   UNL     1     -35.714  21.912   2.015  0.00  0.00    +0.031 C 
ATOM     17  C   UNL     1     -35.354  22.840   5.741  0.00  0.00    +0.346 C 
ENDBRANCH   3   8
ENDBRANCH   1   4
BRANCH   1  18
ATOM     18  N   UNL     1     -35.387  30.713   3.787  0.00  0.00    +0.387 N 
ATOM     19  H   UNL     1     -35.002  31.180   4.610  0.00  0.00    -0.089 HD
ATOM     20  H   UNL     1     -35.689  29.773   4.040  0.00  0.00    -0.089 HD
ATOM     21  H   UNL     1     -36.184  31.244   3.438  0.00  0.00    -0.089 HD
ENDBRANCH   1  18
BRANCH   1  22
ATOM     22  C   UNL     1     -33.054  31.269   3.250  0.00  0.00    -0.011 C 
BRANCH  22  23
ATOM     23  C   UNL     1     -32.779  30.929   4.721  0.00  0.00    +0.025 C 
BRANCH  23  24
ATOM     24  C   UNL     1     -31.740  29.822   4.876  0.00  0.00    +0.129 C 
BRANCH  24  25
ATOM     25  N   UNL     1     -32.393  28.577   5.280  0.00  0.00    -0.240 NA
BRANCH  25  28
ATOM     26  N   UNL     1     -30.653  28.181   6.758  0.00  0.00    -0.370 N 
ATOM     27  N   UNL     1     -32.662  27.221   7.244  0.00  0.00    -0.370 N 
ATOM     28  C   UNL     1     -31.960  28.014   6.365  0.00  0.00    +0.189 C 
ATOM     29  H   UNL     1     -30.042  28.730   6.216  0.00  0.00    +0.159 HD
ATOM     30  H   UNL     1     -30.329  27.752   7.583  0.00  0.00    +0.159 HD
ATOM     31  H   UNL     1     -33.611  27.022   7.077  0.00  0.00    +0.159 HD
ATOM     32  H   UNL     1     -32.214  26.851   8.039  0.00  0.00    +0.159 HD
ENDBRANCH  25  28
ENDBRANCH  24  25
ENDBRANCH  23  24
ENDBRANCH  22  23
ENDBRANCH   1  22
TORSDOF 8
ENDMDL
MODEL 6
REMARK VINA RESULT:      -5.9      2.451      3.485
REMARK  Name = 196428
REMARK  8 active torsions:
REMARK  status: ('A' for Active; 'I' for Inactive)
REMARK    1  A    between atoms: C_1  and  C_4
REMARK    2  A    between atoms: C_1  and  N_18
REMARK    3  A    between atoms: C_1  and  C_22
REMARK    4  A    between atoms: N_3  and  C_8
REMARK    5  A    between atoms: C_22  and  C_23
REMARK    6  A    between atoms: C_23  and  C_24
REMARK    7  A    between atoms: C_24  and  N_25
REMARK    8  A    between atoms: N_25  and  C_28
REMARK                            x       y       z     vdW  Elec       q    Type
REMARK                         _______ _______ _______ _____ _____    ______ ____
ROOT
ATOM      1  C   UNL     1     -31.513  29.893   4.767  0.00  0.00    +0.013 C 
ENDROOT
BRANCH   1   4
ATOM      2  O   UNL     1     -30.735  27.742   4.008  0.00  0.00    -0.277 OA
ATOM      3  N   UNL     1     -33.029  28.047   4.398  0.00  0.00    -0.286 N 
ATOM      4  C   UNL     1     -31.691  28.431   4.353  0.00  0.00    +0.206 C 
ATOM      5  H   UNL     1     -33.670  28.739   4.680  0.00  0.00    +0.155 HD
BRANCH   3   8
ATOM      6  O   UNL     1     -35.010  23.921   5.845  0.00  0.00    -0.421 OA
ATOM      7  O   UNL     1     -35.951  21.963   6.558  0.00  0.00    -0.244 OA
ATOM      8  C   UNL     1     -33.573  26.778   4.085  0.00  0.00    +0.053 C 
ATOM      9  C   UNL     1     -34.649  24.273   3.455  0.00  0.00    +0.031 C 
ATOM     10  C   UNL     1     -34.559  24.718   4.775  0.00  0.00    +0.150 C 
ATOM     11  C   UNL     1     -34.026  25.965   5.105  0.00  0.00    +0.052 C 
ATOM     12  C   UNL     1     -33.643  26.378   2.763  0.00  0.00    +0.015 C 
ATOM     13  C   UNL     1     -35.227  22.946   3.199  0.00  0.00    -0.012 C 
ATOM     14  C   UNL     1     -34.181  25.126   2.447  0.00  0.00    +0.004 C 
ATOM     15  C   UNL     1     -35.646  22.208   4.237  0.00  0.00    +0.078 C 
ATOM     16  C   UNL     1     -35.338  22.438   1.791  0.00  0.00    +0.031 C 
ATOM     17  C   UNL     1     -35.558  22.666   5.634  0.00  0.00    +0.346 C 
ENDBRANCH   3   8
ENDBRANCH   1   4
BRANCH   1  18
ATOM     18  N   UNL     1     -32.466  30.651   3.955  0.00  0.00    +0.387 N 
ATOM     19  H   UNL     1     -33.048  30.005   3.420  0.00  0.00    -0.089 HD
ATOM     20  H   UNL     1     -31.959  31.261   3.315  0.00  0.00    -0.089 HD
ATOM     21  H   UNL     1     -33.059  31.215   4.564  0.00  0.00    -0.089 HD
ENDBRANCH   1  18
BRANCH   1  22
ATOM     22  C   UNL     1     -31.794  30.124   6.259  0.00  0.00    -0.011 C 
BRANCH  22  23
ATOM     23  C   UNL     1     -30.758  29.427   7.152  0.00  0.00    +0.025 C 
BRANCH  23  24
ATOM     24  C   UNL     1     -29.331  29.623   6.649  0.00  0.00    +0.129 C 
BRANCH  24  25
ATOM     25  N   UNL     1     -28.438  28.658   7.291  0.00  0.00    -0.240 NA
BRANCH  25  28
ATOM     26  N   UNL     1     -27.681  26.468   7.219  0.00  0.00    -0.370 N 
ATOM     27  N   UNL     1     -28.112  27.481   5.223  0.00  0.00    -0.370 N 
ATOM     28  C   UNL     1     -28.104  27.617   6.593  0.00  0.00    +0.189 C 
ATOM     29  H   UNL     1     -27.631  26.433   8.202  0.00  0.00    +0.159 HD
ATOM     30  H   UNL     1     -27.430  25.681   6.685  0.00  0.00    +0.159 HD
ATOM     31  H   UNL     1     -28.395  28.233   4.655  0.00  0.00    +0.159 HD
ATOM     32  H   UNL     1     -27.834  26.630   4.812  0.00  0.00    +0.159 HD
ENDBRANCH  25  28
ENDBRANCH  24  25
ENDBRANCH  23  24
ENDBRANCH  22  23
ENDBRANCH   1  22
TORSDOF 8
ENDMDL
MODEL 7
REMARK VINA RESULT:      -5.9      4.805      7.340
REMARK  Name = 196428
REMARK  8 active torsions:
REMARK  status: ('A' for Active; 'I' for Inactive)
REMARK    1  A    between atoms: C_1  and  C_4
REMARK    2  A    between atoms: C_1  and  N_18
REMARK    3  A    between atoms: C_1  and  C_22
REMARK    4  A    between atoms: N_3  and  C_8
REMARK    5  A    between atoms: C_22  and  C_23
REMARK    6  A    between atoms: C_23  and  C_24
REMARK    7  A    between atoms: C_24  and  N_25
REMARK    8  A    between atoms: N_25  and  C_28
REMARK                            x       y       z     vdW  Elec       q    Type
REMARK                         _______ _______ _______ _____ _____    ______ ____
ROOT
ATOM      1  C   UNL     1     -36.895  21.776   2.161  0.00  0.00    +0.013 C 
ENDROOT
BRANCH   1   4
ATOM      2  O   UNL     1     -35.281  20.488   3.402  0.00  0.00    -0.277 OA
ATOM      3  N   UNL     1     -34.897  20.899   1.123  0.00  0.00    -0.286 N 
ATOM      4  C   UNL     1     -35.607  20.968   2.319  0.00  0.00    +0.206 C 
ATOM      5  H   UNL     1     -35.299  21.362   0.352  0.00  0.00    +0.155 HD
BRANCH   3   8
ATOM      6  O   UNL     1     -30.471  20.936  -0.736  0.00  0.00    -0.421 OA
ATOM      7  O   UNL     1     -28.367  20.977  -1.629  0.00  0.00    -0.244 OA
ATOM      8  C   UNL     1     -33.667  20.241   0.886  0.00  0.00    +0.053 C 
ATOM      9  C   UNL     1     -31.238  18.929   0.426  0.00  0.00    +0.031 C 
ATOM     10  C   UNL     1     -31.463  20.230  -0.027  0.00  0.00    +0.150 C 
ATOM     11  C   UNL     1     -32.668  20.897   0.195  0.00  0.00    +0.052 C 
ATOM     12  C   UNL     1     -33.487  18.951   1.355  0.00  0.00    +0.015 C 
ATOM     13  C   UNL     1     -29.937  18.304   0.149  0.00  0.00    -0.012 C 
ATOM     14  C   UNL     1     -32.273  18.295   1.125  0.00  0.00    +0.004 C 
ATOM     15  C   UNL     1     -29.013  18.999  -0.529  0.00  0.00    +0.078 C 
ATOM     16  C   UNL     1     -29.663  16.906   0.623  0.00  0.00    +0.031 C 
ATOM     17  C   UNL     1     -29.236  20.372  -1.012  0.00  0.00    +0.346 C 
ENDBRANCH   3   8
ENDBRANCH   1   4
BRANCH   1  18
ATOM     18  N   UNL     1     -37.987  20.819   2.346  0.00  0.00    +0.387 N 
ATOM     19  H   UNL     1     -37.953  20.118   1.605  0.00  0.00    -0.089 HD
ATOM     20  H   UNL     1     -38.880  21.310   2.308  0.00  0.00    -0.089 HD
ATOM     21  H   UNL     1     -37.889  20.360   3.251  0.00  0.00    -0.089 HD
ENDBRANCH   1  18
BRANCH   1  22
ATOM     22  C   UNL     1     -37.012  22.911   3.191  0.00  0.00    -0.011 C 
BRANCH  22  23
ATOM     23  C   UNL     1     -35.880  23.936   3.045  0.00  0.00    +0.025 C 
BRANCH  23  24
ATOM     24  C   UNL     1     -35.024  24.040   4.303  0.00  0.00    +0.129 C 
BRANCH  24  25
ATOM     25  N   UNL     1     -34.531  25.409   4.461  0.00  0.00    -0.240 NA
BRANCH  25  28
ATOM     26  N   UNL     1     -35.398  27.442   3.764  0.00  0.00    -0.370 N 
ATOM     27  N   UNL     1     -36.467  26.395   5.483  0.00  0.00    -0.370 N 
ATOM     28  C   UNL     1     -35.423  26.341   4.587  0.00  0.00    +0.189 C 
ATOM     29  H   UNL     1     -34.700  27.526   3.075  0.00  0.00    +0.159 HD
ATOM     30  H   UNL     1     -36.079  28.146   3.864  0.00  0.00    +0.159 HD
ATOM     31  H   UNL     1     -36.598  25.665   6.131  0.00  0.00    +0.159 HD
ATOM     32  H   UNL     1     -37.082  27.164   5.477  0.00  0.00    +0.159 HD
ENDBRANCH  25  28
ENDBRANCH  24  25
ENDBRANCH  23  24
ENDBRANCH  22  23
ENDBRANCH   1  22
TORSDOF 8
ENDMDL
MODEL 8
REMARK VINA RESULT:      -5.7      3.645      6.005
REMARK  Name = 196428
REMARK  8 active torsions:
REMARK  status: ('A' for Active; 'I' for Inactive)
REMARK    1  A    between atoms: C_1  and  C_4
REMARK    2  A    between atoms: C_1  and  N_18
REMARK    3  A    between atoms: C_1  and  C_22
REMARK    4  A    between atoms: N_3  and  C_8
REMARK    5  A    between atoms: C_22  and  C_23
REMARK    6  A    between atoms: C_23  and  C_24
REMARK    7  A    between atoms: C_24  and  N_25
REMARK    8  A    between atoms: N_25  and  C_28
REMARK                            x       y       z     vdW  Elec       q    Type
REMARK                         _______ _______ _______ _____ _____    ______ ____
ROOT
ATOM      1  C   UNL     1     -35.790  23.340   4.922  0.00  0.00    +0.013 C 
ENDROOT
BRANCH   1   4
ATOM      2  O   UNL     1     -35.158  23.476   2.600  0.00  0.00    -0.277 OA
ATOM      3  N   UNL     1     -35.799  21.398   3.484  0.00  0.00    -0.286 N 
ATOM      4  C   UNL     1     -35.530  22.764   3.529  0.00  0.00    +0.206 C 
ATOM      5  H   UNL     1     -36.111  20.988   4.324  0.00  0.00    +0.155 HD
BRANCH   3   8
ATOM      6  O   UNL     1     -37.820  19.054  -0.186  0.00  0.00    -0.421 OA
ATOM      7  O   UNL     1     -38.806  17.948  -1.927  0.00  0.00    -0.244 OA
ATOM      8  C   UNL     1     -35.675  20.531   2.372  0.00  0.00    +0.053 C 
ATOM      9  C   UNL     1     -35.416  18.817   0.175  0.00  0.00    +0.031 C 
ATOM     10  C   UNL     1     -36.651  19.354   0.541  0.00  0.00    +0.150 C 
ATOM     11  C   UNL     1     -36.796  20.211   1.633  0.00  0.00    +0.052 C 
ATOM     12  C   UNL     1     -34.430  20.022   2.046  0.00  0.00    +0.015 C 
ATOM     13  C   UNL     1     -35.356  17.925  -0.991  0.00  0.00    -0.012 C 
ATOM     14  C   UNL     1     -34.300  19.165   0.947  0.00  0.00    +0.004 C 
ATOM     15  C   UNL     1     -36.485  17.656  -1.663  0.00  0.00    +0.078 C 
ATOM     16  C   UNL     1     -34.043  17.330  -1.411  0.00  0.00    +0.031 C 
ATOM     17  C   UNL     1     -37.794  18.216  -1.289  0.00  0.00    +0.346 C 
ENDBRANCH   3   8
ENDBRANCH   1   4
BRANCH   1  18
ATOM     18  N   UNL     1     -36.072  22.189   5.780  0.00  0.00    +0.387 N 
ATOM     19  H   UNL     1     -35.935  22.451   6.757  0.00  0.00    -0.089 HD
ATOM     20  H   UNL     1     -35.440  21.424   5.541  0.00  0.00    -0.089 HD
ATOM     21  H   UNL     1     -37.037  21.888   5.642  0.00  0.00    -0.089 HD
ENDBRANCH   1  18
BRANCH   1  22
ATOM     22  C   UNL     1     -34.589  24.123   5.472  0.00  0.00    -0.011 C 
BRANCH  22  23
ATOM     23  C   UNL     1     -34.891  25.623   5.598  0.00  0.00    +0.025 C 
BRANCH  23  24
ATOM     24  C   UNL     1     -33.712  26.491   5.168  0.00  0.00    +0.129 C 
BRANCH  24  25
ATOM     25  N   UNL     1     -33.013  27.003   6.347  0.00  0.00    -0.240 NA
BRANCH  25  28
ATOM     26  N   UNL     1     -31.766  28.744   7.234  0.00  0.00    -0.370 N 
ATOM     27  N   UNL     1     -31.708  28.476   4.971  0.00  0.00    -0.370 N 
ATOM     28  C   UNL     1     -32.213  28.007   6.163  0.00  0.00    +0.189 C 
ATOM     29  H   UNL     1     -32.052  28.511   8.146  0.00  0.00    +0.159 HD
ATOM     30  H   UNL     1     -31.158  29.505   7.087  0.00  0.00    +0.159 HD
ATOM     31  H   UNL     1     -31.952  28.036   4.125  0.00  0.00    +0.159 HD
ATOM     32  H   UNL     1     -31.104  29.254   4.964  0.00  0.00    +0.159 HD
ENDBRANCH  25  28
ENDBRANCH  24  25
ENDBRANCH  23  24
ENDBRANCH  22  23
ENDBRANCH   1  22
TORSDOF 8
ENDMDL
MODEL 9
REMARK VINA RESULT:      -5.7      5.255      7.969
REMARK  Name = 196428
REMARK  8 active torsions:
REMARK  status: ('A' for Active; 'I' for Inactive)
REMARK    1  A    between atoms: C_1  and  C_4
REMARK    2  A    between atoms: C_1  and  N_18
REMARK    3  A    between atoms: C_1  and  C_22
REMARK    4  A    between atoms: N_3  and  C_8
REMARK    5  A    between atoms: C_22  and  C_23
REMARK    6  A    between atoms: C_23  and  C_24
REMARK    7  A    between atoms: C_24  and  N_25
REMARK    8  A    between atoms: N_25  and  C_28
REMARK                            x       y       z     vdW  Elec       q    Type
REMARK                         _______ _______ _______ _____ _____    ______ ____
ROOT
ATOM      1  C   UNL     1     -36.700  21.406   1.758  0.00  0.00    +0.013 C 
ENDROOT
BRANCH   1   4
ATOM      2  O   UNL     1     -35.046  20.233   3.060  0.00  0.00    -0.277 OA
ATOM      3  N   UNL     1     -34.744  20.419   0.740  0.00  0.00    -0.286 N 
ATOM      4  C   UNL     1     -35.409  20.608   1.948  0.00  0.00    +0.206 C 
ATOM      5  H   UNL     1     -35.171  20.808  -0.058  0.00  0.00    +0.155 HD
BRANCH   3   8
ATOM      6  O   UNL     1     -32.319  16.289   0.414  0.00  0.00    -0.421 OA
ATOM      7  O   UNL     1     -31.185  14.308   0.264  0.00  0.00    -0.244 OA
ATOM      8  C   UNL     1     -33.524  19.732   0.524  0.00  0.00    +0.053 C 
ATOM      9  C   UNL     1     -31.108  18.386   0.095  0.00  0.00    +0.031 C 
ATOM     10  C   UNL     1     -32.293  17.696   0.357  0.00  0.00    +0.150 C 
ATOM     11  C   UNL     1     -33.506  18.353   0.572  0.00  0.00    +0.052 C 
ATOM     12  C   UNL     1     -32.374  20.458   0.268  0.00  0.00    +0.015 C 
ATOM     13  C   UNL     1     -29.878  17.613  -0.121  0.00  0.00    -0.012 C 
ATOM     14  C   UNL     1     -31.166  19.785   0.053  0.00  0.00    +0.004 C 
ATOM     15  C   UNL     1     -29.932  16.275  -0.059  0.00  0.00    +0.078 C 
ATOM     16  C   UNL     1     -28.587  18.325  -0.404  0.00  0.00    +0.031 C 
ATOM     17  C   UNL     1     -31.174  15.533   0.215  0.00  0.00    +0.346 C 
ENDBRANCH   3   8
ENDBRANCH   1   4
BRANCH   1  18
ATOM     18  N   UNL     1     -37.789  20.448   1.952  0.00  0.00    +0.387 N 
ATOM     19  H   UNL     1     -37.509  19.751   2.644  0.00  0.00    -0.089 HD
ATOM     20  H   UNL     1     -37.997  19.985   1.068  0.00  0.00    -0.089 HD
ATOM     21  H   UNL     1     -38.620  20.938   2.283  0.00  0.00    -0.089 HD
ENDBRANCH   1  18
BRANCH   1  22
ATOM     22  C   UNL     1     -36.834  22.563   2.760  0.00  0.00    -0.011 C 
BRANCH  22  23
ATOM     23  C   UNL     1     -35.583  23.452   2.779  0.00  0.00    +0.025 C 
BRANCH  23  24
ATOM     24  C   UNL     1     -35.227  23.925   4.185  0.00  0.00    +0.129 C 
BRANCH  24  25
ATOM     25  N   UNL     1     -36.438  24.338   4.895  0.00  0.00    -0.240 NA
BRANCH  25  28
ATOM     26  N   UNL     1     -36.271  26.597   5.388  0.00  0.00    -0.370 N 
ATOM     27  N   UNL     1     -37.831  25.986   3.842  0.00  0.00    -0.370 N 
ATOM     28  C   UNL     1     -36.844  25.553   4.698  0.00  0.00    +0.189 C 
ATOM     29  H   UNL     1     -35.549  26.422   6.034  0.00  0.00    +0.159 HD
ATOM     30  H   UNL     1     -36.583  27.517   5.234  0.00  0.00    +0.159 HD
ATOM     31  H   UNL     1     -38.321  25.337   3.288  0.00  0.00    +0.159 HD
ATOM     32  H   UNL     1     -38.047  26.945   3.784  0.00  0.00    +0.159 HD
ENDBRANCH  25  28
ENDBRANCH  24  25
ENDBRANCH  23  24
ENDBRANCH  22  23
ENDBRANCH   1  22
TORSDOF 8
ENDMDL
