MODEL 1
REMARK VINA RESULT:      -7.4      0.000      0.000
REMARK  Name = 20056308
REMARK  8 active torsions:
REMARK  status: ('A' for Active; 'I' for Inactive)
REMARK    1  A    between atoms: C_5  and  C_29
REMARK    2  A    between atoms: C_6  and  O_39
REMARK    3  A    between atoms: C_8  and  C_14
REMARK    4  A    between atoms: C_15  and  O_23
REMARK    5  A    between atoms: C_20  and  O_25
REMARK    6  A    between atoms: C_21  and  O_27
REMARK    7  A    between atoms: C_32  and  O_35
REMARK    8  A    between atoms: C_34  and  O_37
REMARK                            x       y       z     vdW  Elec       q    Type
REMARK                         _______ _______ _______ _____ _____    ______ ____
ROOT
ATOM      1  O   UNL     1     -34.635  20.752   1.800  0.00  0.00    -0.329 OA
ATOM      2  O   UNL     1     -35.090  20.637   4.835  0.00  0.00    -0.291 OA
ATOM      3  C   UNL     1     -35.192  23.045   1.601  0.00  0.00    +0.043 C 
ATOM      4  C   UNL     1     -36.485  22.250   1.882  0.00  0.00    +0.083 C 
ATOM      5  C   UNL     1     -34.568  23.548   2.964  0.00  0.00    +0.036 C 
ATOM      6  C   UNL     1     -35.836  21.009   2.542  0.00  0.00    +0.241 C 
ATOM      7  C   UNL     1     -35.374  22.952   4.153  0.00  0.00    +0.088 C 
ATOM      8  C   UNL     1     -37.399  22.973   2.846  0.00  0.00    -0.001 C 
ATOM      9  C   UNL     1     -34.343  21.919   1.012  0.00  0.00    +0.146 C 
ATOM     10  C   UNL     1     -35.383  21.435   3.952  0.00  0.00    +0.205 C 
ATOM     11  C   UNL     1     -36.834  23.305   4.019  0.00  0.00    -0.023 C 
ENDROOT
BRANCH   8  14
ATOM     12  O   UNL     1     -38.938  24.661   2.269  0.00  0.00    -0.472 OA
ATOM     13  O   UNL     1     -41.395  22.040   0.293  0.00  0.00    -0.288 OA
ATOM     14  C   UNL     1     -38.821  23.246   2.463  0.00  0.00    +0.218 C 
ATOM     15  C   UNL     1     -39.201  22.485   1.195  0.00  0.00    +0.217 C 
ATOM     16  C   UNL     1     -40.628  22.831   0.829  0.00  0.00    +0.209 C 
ATOM     17  C   UNL     1     -40.168  25.056   1.814  0.00  0.00    +0.148 C 
ATOM     18  C   UNL     1     -41.045  24.215   1.124  0.00  0.00    +0.105 C 
ATOM     19  C   UNL     1     -40.523  26.387   2.044  0.00  0.00    +0.074 C 
ATOM     20  C   UNL     1     -42.287  24.689   0.694  0.00  0.00    +0.142 C 
ATOM     21  C   UNL     1     -41.760  26.863   1.612  0.00  0.00    +0.140 C 
ATOM     22  C   UNL     1     -42.642  26.016   0.943  0.00  0.00    +0.073 C 
BRANCH  15  23
ATOM     23  O   UNL     1     -39.129  21.088   1.419  0.00  0.00    -0.374 OA
ATOM     24  H   UNL     1     -38.704  20.918   2.274  0.00  0.00    +0.211 HD
ENDBRANCH  15  23
BRANCH  20  25
ATOM     25  O   UNL     1     -43.179  23.911   0.020  0.00  0.00    -0.505 OA
ATOM     26  H   UNL     1     -43.081  23.778  -0.903  0.00  0.00    +0.292 HD
ENDBRANCH  20  25
BRANCH  21  27
ATOM     27  O   UNL     1     -42.107  28.159   1.844  0.00  0.00    -0.505 OA
ATOM     28  H   UNL     1     -41.654  28.851   1.405  0.00  0.00    +0.292 HD
ENDBRANCH  21  27
ENDBRANCH   8  14
BRANCH   5  29
ATOM     29  C   UNL     1     -34.422  25.059   3.093  0.00  0.00    -0.018 C 
ATOM     30  C   UNL     1     -33.684  25.601   4.146  0.00  0.00    +0.036 C 
ATOM     31  C   UNL     1     -35.025  25.900   2.158  0.00  0.00    -0.001 C 
ATOM     32  C   UNL     1     -33.550  26.984   4.264  0.00  0.00    +0.172 C 
ATOM     33  C   UNL     1     -34.891  27.284   2.277  0.00  0.00    +0.039 C 
ATOM     34  C   UNL     1     -34.154  27.825   3.330  0.00  0.00    +0.168 C 
BRANCH  32  35
ATOM     35  O   UNL     1     -32.829  27.502   5.297  0.00  0.00    -0.468 OA
ATOM     36  C   UNL     1     -33.047  26.934   6.588  0.00  0.00    +0.253 C 
ENDBRANCH  32  35
BRANCH  34  37
ATOM     37  O   UNL     1     -34.030  29.178   3.435  0.00  0.00    -0.503 OA
ATOM     38  H   UNL     1     -34.659  29.738   3.026  0.00  0.00    +0.292 HD
ENDBRANCH  34  37
ENDBRANCH   5  29
BRANCH   6  39
ATOM     39  O   UNL     1     -36.718  19.917   2.550  0.00  0.00    -0.358 OA
ATOM     40  H   UNL     1     -37.548  20.169   2.116  0.00  0.00    +0.213 HD
ENDBRANCH   6  39
TORSDOF 8
ENDMDL
MODEL 2
REMARK VINA RESULT:      -7.2      3.185      7.229
REMARK  Name = 20056308
REMARK  8 active torsions:
REMARK  status: ('A' for Active; 'I' for Inactive)
REMARK    1  A    between atoms: C_5  and  C_29
REMARK    2  A    between atoms: C_6  and  O_39
REMARK    3  A    between atoms: C_8  and  C_14
REMARK    4  A    between atoms: C_15  and  O_23
REMARK    5  A    between atoms: C_20  and  O_25
REMARK    6  A    between atoms: C_21  and  O_27
REMARK    7  A    between atoms: C_32  and  O_35
REMARK    8  A    between atoms: C_34  and  O_37
REMARK                            x       y       z     vdW  Elec       q    Type
REMARK                         _______ _______ _______ _____ _____    ______ ____
ROOT
ATOM      1  O   UNL     1     -37.420  21.118  -2.187  0.00  0.00    -0.329 OA
ATOM      2  O   UNL     1     -38.826  19.058  -0.394  0.00  0.00    -0.291 OA
ATOM      3  C   UNL     1     -35.374  21.055  -0.998  0.00  0.00    +0.043 C 
ATOM      4  C   UNL     1     -36.422  21.782  -0.130  0.00  0.00    +0.083 C 
ATOM      5  C   UNL     1     -35.365  19.514  -0.645  0.00  0.00    +0.036 C 
ATOM      6  C   UNL     1     -37.693  21.185  -0.780  0.00  0.00    +0.241 C 
ATOM      7  C   UNL     1     -36.519  19.205   0.353  0.00  0.00    +0.088 C 
ATOM      8  C   UNL     1     -36.316  21.399   1.330  0.00  0.00    -0.001 C 
ATOM      9  C   UNL     1     -36.004  21.281  -2.372  0.00  0.00    +0.146 C 
ATOM     10  C   UNL     1     -37.803  19.726  -0.296  0.00  0.00    +0.205 C 
ATOM     11  C   UNL     1     -36.396  20.080   1.574  0.00  0.00    -0.023 C 
ENDROOT
BRANCH   8  14
ATOM     12  O   UNL     1     -35.079  23.306   1.947  0.00  0.00    -0.472 OA
ATOM     13  O   UNL     1     -38.094  24.755   4.318  0.00  0.00    -0.288 OA
ATOM     14  C   UNL     1     -36.159  22.464   2.371  0.00  0.00    +0.218 C 
ATOM     15  C   UNL     1     -37.448  23.265   2.533  0.00  0.00    +0.217 C 
ATOM     16  C   UNL     1     -37.220  24.353   3.560  0.00  0.00    +0.209 C 
ATOM     17  C   UNL     1     -34.879  24.395   2.754  0.00  0.00    +0.148 C 
ATOM     18  C   UNL     1     -35.868  24.943   3.575  0.00  0.00    +0.105 C 
ATOM     19  C   UNL     1     -33.613  24.982   2.710  0.00  0.00    +0.074 C 
ATOM     20  C   UNL     1     -35.587  26.054   4.375  0.00  0.00    +0.142 C 
ATOM     21  C   UNL     1     -33.331  26.093   3.505  0.00  0.00    +0.140 C 
ATOM     22  C   UNL     1     -34.314  26.625   4.338  0.00  0.00    +0.073 C 
BRANCH  15  23
ATOM     23  O   UNL     1     -38.492  22.429   3.000  0.00  0.00    -0.374 OA
ATOM     24  H   UNL     1     -38.163  21.521   3.091  0.00  0.00    +0.211 HD
ENDBRANCH  15  23
BRANCH  20  25
ATOM     25  O   UNL     1     -36.514  26.625   5.193  0.00  0.00    -0.505 OA
ATOM     26  H   UNL     1     -36.241  27.212   5.872  0.00  0.00    +0.292 HD
ENDBRANCH  20  25
BRANCH  21  27
ATOM     27  O   UNL     1     -32.094  26.660   3.466  0.00  0.00    -0.505 OA
ATOM     28  H   UNL     1     -31.332  26.118   3.414  0.00  0.00    +0.292 HD
ENDBRANCH  21  27
ENDBRANCH   8  14
BRANCH   5  29
ATOM     29  C   UNL     1     -34.034  18.970  -0.141  0.00  0.00    -0.018 C 
ATOM     30  C   UNL     1     -33.809  17.593  -0.112  0.00  0.00    +0.036 C 
ATOM     31  C   UNL     1     -33.040  19.849   0.289  0.00  0.00    -0.001 C 
ATOM     32  C   UNL     1     -32.591  17.095   0.349  0.00  0.00    +0.172 C 
ATOM     33  C   UNL     1     -31.821  19.350   0.750  0.00  0.00    +0.039 C 
ATOM     34  C   UNL     1     -31.597  17.974   0.780  0.00  0.00    +0.168 C 
BRANCH  32  35
ATOM     35  O   UNL     1     -32.384  15.750   0.375  0.00  0.00    -0.468 OA
ATOM     36  C   UNL     1     -32.432  15.062  -0.873  0.00  0.00    +0.253 C 
ENDBRANCH  32  35
BRANCH  34  37
ATOM     37  O   UNL     1     -30.403  17.500   1.232  0.00  0.00    -0.503 OA
ATOM     38  H   UNL     1     -29.647  17.530   0.679  0.00  0.00    +0.292 HD
ENDBRANCH  34  37
ENDBRANCH   5  29
BRANCH   6  39
ATOM     39  O   UNL     1     -38.829  21.954  -0.479  0.00  0.00    -0.358 OA
ATOM     40  H   UNL     1     -39.571  21.365  -0.267  0.00  0.00    +0.213 HD
ENDBRANCH   6  39
TORSDOF 8
ENDMDL
MODEL 3
REMARK VINA RESULT:      -7.1      1.899      4.593
REMARK  Name = 20056308
REMARK  8 active torsions:
REMARK  status: ('A' for Active; 'I' for Inactive)
REMARK    1  A    between atoms: C_5  and  C_29
REMARK    2  A    between atoms: C_6  and  O_39
REMARK    3  A    between atoms: C_8  and  C_14
REMARK    4  A    between atoms: C_15  and  O_23
REMARK    5  A    between atoms: C_20  and  O_25
REMARK    6  A    between atoms: C_21  and  O_27
REMARK    7  A    between atoms: C_32  and  O_35
REMARK    8  A    between atoms: C_34  and  O_37
REMARK                            x       y       z     vdW  Elec       q    Type
REMARK                         _______ _______ _______ _____ _____    ______ ____
ROOT
ATOM      1  O   UNL     1     -34.875  25.114   5.648  0.00  0.00    -0.329 OA
ATOM      2  O   UNL     1     -34.636  27.615   3.881  0.00  0.00    -0.291 OA
ATOM      3  C   UNL     1     -35.522  23.680   3.879  0.00  0.00    +0.043 C 
ATOM      4  C   UNL     1     -36.698  24.628   4.195  0.00  0.00    +0.083 C 
ATOM      5  C   UNL     1     -34.622  24.306   2.740  0.00  0.00    +0.036 C 
ATOM      6  C   UNL     1     -35.885  25.763   4.864  0.00  0.00    +0.241 C 
ATOM      7  C   UNL     1     -35.127  25.741   2.414  0.00  0.00    +0.088 C 
ATOM      8  C   UNL     1     -37.392  25.111   2.941  0.00  0.00    -0.001 C 
ATOM      9  C   UNL     1     -34.797  23.743   5.223  0.00  0.00    +0.146 C 
ATOM     10  C   UNL     1     -35.140  26.507   3.738  0.00  0.00    +0.205 C 
ATOM     11  C   UNL     1     -36.587  25.706   2.044  0.00  0.00    -0.023 C 
ENDROOT
BRANCH   8  14
ATOM     12  O   UNL     1     -39.482  26.189   3.079  0.00  0.00    -0.472 OA
ATOM     13  O   UNL     1     -41.277  23.488   0.569  0.00  0.00    -0.288 OA
ATOM     14  C   UNL     1     -38.870  24.925   2.789  0.00  0.00    +0.218 C 
ATOM     15  C   UNL     1     -39.220  24.456   1.379  0.00  0.00    +0.217 C 
ATOM     16  C   UNL     1     -40.724  24.329   1.267  0.00  0.00    +0.209 C 
ATOM     17  C   UNL     1     -40.838  26.203   2.882  0.00  0.00    +0.148 C 
ATOM     18  C   UNL     1     -41.507  25.319   2.032  0.00  0.00    +0.105 C 
ATOM     19  C   UNL     1     -41.558  27.187   3.563  0.00  0.00    +0.074 C 
ATOM     20  C   UNL     1     -42.894  25.392   1.886  0.00  0.00    +0.142 C 
ATOM     21  C   UNL     1     -42.943  27.264   3.416  0.00  0.00    +0.140 C 
ATOM     22  C   UNL     1     -43.610  26.367   2.583  0.00  0.00    +0.073 C 
BRANCH  15  23
ATOM     23  O   UNL     1     -38.650  23.184   1.128  0.00  0.00    -0.374 OA
ATOM     24  H   UNL     1     -38.027  22.962   1.838  0.00  0.00    +0.211 HD
ENDBRANCH  15  23
BRANCH  20  25
ATOM     25  O   UNL     1     -43.595  24.554   1.072  0.00  0.00    -0.505 OA
ATOM     26  H   UNL     1     -43.192  23.772   0.747  0.00  0.00    +0.292 HD
ENDBRANCH  20  25
BRANCH  21  27
ATOM     27  O   UNL     1     -43.644  28.219   4.086  0.00  0.00    -0.505 OA
ATOM     28  H   UNL     1     -43.216  28.754   4.725  0.00  0.00    +0.292 HD
ENDBRANCH  21  27
ENDBRANCH   8  14
BRANCH   5  29
ATOM     29  C   UNL     1     -34.491  23.462   1.478  0.00  0.00    -0.018 C 
ATOM     30  C   UNL     1     -35.152  22.237   1.386  0.00  0.00    +0.036 C 
ATOM     31  C   UNL     1     -33.711  23.916   0.415  0.00  0.00    -0.001 C 
ATOM     32  C   UNL     1     -35.033  21.465   0.231  0.00  0.00    +0.172 C 
ATOM     33  C   UNL     1     -33.591  23.143  -0.741  0.00  0.00    +0.039 C 
ATOM     34  C   UNL     1     -34.252  21.917  -0.832  0.00  0.00    +0.168 C 
BRANCH  32  35
ATOM     35  O   UNL     1     -35.681  20.270   0.154  0.00  0.00    -0.468 OA
ATOM     36  C   UNL     1     -36.577  19.948   1.216  0.00  0.00    +0.253 C 
ENDBRANCH  32  35
BRANCH  34  37
ATOM     37  O   UNL     1     -34.127  21.173  -1.966  0.00  0.00    -0.503 OA
ATOM     38  H   UNL     1     -33.728  20.326  -1.928  0.00  0.00    +0.292 HD
ENDBRANCH  34  37
ENDBRANCH   5  29
BRANCH   6  39
ATOM     39  O   UNL     1     -36.715  26.602   5.626  0.00  0.00    -0.358 OA
ATOM     40  H   UNL     1     -36.256  26.853   6.444  0.00  0.00    +0.213 HD
ENDBRANCH   6  39
TORSDOF 8
ENDMDL
MODEL 4
REMARK VINA RESULT:      -6.9      3.198      8.428
REMARK  Name = 20056308
REMARK  8 active torsions:
REMARK  status: ('A' for Active; 'I' for Inactive)
REMARK    1  A    between atoms: C_5  and  C_29
REMARK    2  A    between atoms: C_6  and  O_39
REMARK    3  A    between atoms: C_8  and  C_14
REMARK    4  A    between atoms: C_15  and  O_23
REMARK    5  A    between atoms: C_20  and  O_25
REMARK    6  A    between atoms: C_21  and  O_27
REMARK    7  A    between atoms: C_32  and  O_35
REMARK    8  A    between atoms: C_34  and  O_37
REMARK                            x       y       z     vdW  Elec       q    Type
REMARK                         _______ _______ _______ _____ _____    ______ ____
ROOT
ATOM      1  O   UNL     1     -36.044  26.466  -0.624  0.00  0.00    -0.329 OA
ATOM      2  O   UNL     1     -38.111  27.674   1.300  0.00  0.00    -0.291 OA
ATOM      3  C   UNL     1     -34.915  25.227   1.047  0.00  0.00    +0.043 C 
ATOM      4  C   UNL     1     -34.595  26.722   1.248  0.00  0.00    +0.083 C 
ATOM      5  C   UNL     1     -36.171  24.826   1.920  0.00  0.00    +0.036 C 
ATOM      6  C   UNL     1     -35.829  27.307   0.518  0.00  0.00    +0.241 C 
ATOM      7  C   UNL     1     -36.769  26.103   2.579  0.00  0.00    +0.088 C 
ATOM      8  C   UNL     1     -34.583  27.110   2.710  0.00  0.00    -0.001 C 
ATOM      9  C   UNL     1     -35.287  25.259  -0.435  0.00  0.00    +0.146 C 
ATOM     10  C   UNL     1     -37.043  27.090   1.443  0.00  0.00    +0.205 C 
ATOM     11  C   UNL     1     -35.711  26.817   3.381  0.00  0.00    -0.023 C 
ENDROOT
BRANCH   8  14
ATOM     12  O   UNL     1     -33.563  29.196   3.105  0.00  0.00    -0.472 OA
ATOM     13  O   UNL     1     -31.302  27.740   6.201  0.00  0.00    -0.288 OA
ATOM     14  C   UNL     1     -33.381  27.786   3.292  0.00  0.00    +0.218 C 
ATOM     15  C   UNL     1     -33.224  27.444   4.771  0.00  0.00    +0.217 C 
ATOM     16  C   UNL     1     -32.024  28.187   5.318  0.00  0.00    +0.209 C 
ATOM     17  C   UNL     1     -32.582  29.960   3.681  0.00  0.00    +0.148 C 
ATOM     18  C   UNL     1     -31.787  29.526   4.746  0.00  0.00    +0.105 C 
ATOM     19  C   UNL     1     -32.413  31.249   3.171  0.00  0.00    +0.074 C 
ATOM     20  C   UNL     1     -30.803  30.362   5.278  0.00  0.00    +0.142 C 
ATOM     21  C   UNL     1     -31.433  32.086   3.703  0.00  0.00    +0.140 C 
ATOM     22  C   UNL     1     -30.627  31.643   4.752  0.00  0.00    +0.073 C 
BRANCH  15  23
ATOM     23  O   UNL     1     -32.994  26.056   4.934  0.00  0.00    -0.374 OA
ATOM     24  H   UNL     1     -32.039  25.885   4.951  0.00  0.00    +0.211 HD
ENDBRANCH  15  23
BRANCH  20  25
ATOM     25  O   UNL     1     -30.000  29.988   6.313  0.00  0.00    -0.505 OA
ATOM     26  H   UNL     1     -30.101  30.391   7.154  0.00  0.00    +0.292 HD
ENDBRANCH  20  25
BRANCH  21  27
ATOM     27  O   UNL     1     -31.264  33.339   3.200  0.00  0.00    -0.505 OA
ATOM     28  H   UNL     1     -31.492  33.522   2.310  0.00  0.00    +0.292 HD
ENDBRANCH  21  27
ENDBRANCH   8  14
BRANCH   5  29
ATOM     29  C   UNL     1     -35.925  23.731   2.950  0.00  0.00    -0.018 C 
ATOM     30  C   UNL     1     -35.642  22.431   2.530  0.00  0.00    +0.036 C 
ATOM     31  C   UNL     1     -35.982  24.030   4.311  0.00  0.00    -0.001 C 
ATOM     32  C   UNL     1     -35.417  21.428   3.473  0.00  0.00    +0.172 C 
ATOM     33  C   UNL     1     -35.756  23.026   5.254  0.00  0.00    +0.039 C 
ATOM     34  C   UNL     1     -35.474  21.725   4.835  0.00  0.00    +0.168 C 
BRANCH  32  35
ATOM     35  O   UNL     1     -35.144  20.162   3.052  0.00  0.00    -0.468 OA
ATOM     36  C   UNL     1     -34.717  20.006   1.700  0.00  0.00    +0.253 C 
ENDBRANCH  32  35
BRANCH  34  37
ATOM     37  O   UNL     1     -35.256  20.755   5.765  0.00  0.00    -0.503 OA
ATOM     38  H   UNL     1     -34.820  19.963   5.521  0.00  0.00    +0.292 HD
ENDBRANCH  34  37
ENDBRANCH   5  29
BRANCH   6  39
ATOM     39  O   UNL     1     -35.628  28.654   0.176  0.00  0.00    -0.358 OA
ATOM     40  H   UNL     1     -35.957  29.221   0.892  0.00  0.00    +0.213 HD
ENDBRANCH   6  39
TORSDOF 8
ENDMDL
MODEL 5
REMARK VINA RESULT:      -6.8      3.228      6.522
REMARK  Name = 20056308
REMARK  8 active torsions:
REMARK  status: ('A' for Active; 'I' for Inactive)
REMARK    1  A    between atoms: C_5  and  C_29
REMARK    2  A    between atoms: C_6  and  O_39
REMARK    3  A    between atoms: C_8  and  C_14
REMARK    4  A    between atoms: C_15  and  O_23
REMARK    5  A    between atoms: C_20  and  O_25
REMARK    6  A    between atoms: C_21  and  O_27
REMARK    7  A    between atoms: C_32  and  O_35
REMARK    8  A    between atoms: C_34  and  O_37
REMARK                            x       y       z     vdW  Elec       q    Type
REMARK                         _______ _______ _______ _____ _____    ______ ____
ROOT
ATOM      1  O   UNL     1     -37.160  20.301  -1.588  0.00  0.00    -0.329 OA
ATOM      2  O   UNL     1     -36.857  17.971   0.389  0.00  0.00    -0.291 OA
ATOM      3  C   UNL     1     -35.080  21.294  -1.047  0.00  0.00    +0.043 C 
ATOM      4  C   UNL     1     -36.047  21.513   0.134  0.00  0.00    +0.083 C 
ATOM      5  C   UNL     1     -34.249  19.969  -0.819  0.00  0.00    +0.036 C 
ATOM      6  C   UNL     1     -37.016  20.343  -0.161  0.00  0.00    +0.241 C 
ATOM      7  C   UNL     1     -34.783  19.236   0.446  0.00  0.00    +0.088 C 
ATOM      8  C   UNL     1     -35.362  21.339   1.471  0.00  0.00    -0.001 C 
ATOM      9  C   UNL     1     -36.105  21.092  -2.162  0.00  0.00    +0.146 C 
ATOM     10  C   UNL     1     -36.286  19.044   0.232  0.00  0.00    +0.205 C 
ATOM     11  C   UNL     1     -34.740  20.158   1.637  0.00  0.00    -0.023 C 
ENDROOT
BRANCH   8  14
ATOM     12  O   UNL     1     -34.476  23.427   2.105  0.00  0.00    -0.472 OA
ATOM     13  O   UNL     1     -37.807  24.415   4.284  0.00  0.00    -0.288 OA
ATOM     14  C   UNL     1     -35.431  22.431   2.493  0.00  0.00    +0.218 C 
ATOM     15  C   UNL     1     -36.838  23.019   2.570  0.00  0.00    +0.217 C 
ATOM     16  C   UNL     1     -36.840  24.145   3.581  0.00  0.00    +0.209 C 
ATOM     17  C   UNL     1     -34.495  24.546   2.895  0.00  0.00    +0.148 C 
ATOM     18  C   UNL     1     -35.601  24.943   3.651  0.00  0.00    +0.105 C 
ATOM     19  C   UNL     1     -33.337  25.327   2.901  0.00  0.00    +0.074 C 
ATOM     20  C   UNL     1     -35.543  26.097   4.437  0.00  0.00    +0.142 C 
ATOM     21  C   UNL     1     -33.278  26.481   3.682  0.00  0.00    +0.140 C 
ATOM     22  C   UNL     1     -34.376  26.862   4.452  0.00  0.00    +0.073 C 
BRANCH  15  23
ATOM     23  O   UNL     1     -37.760  22.035   3.003  0.00  0.00    -0.374 OA
ATOM     24  H   UNL     1     -38.570  22.094   2.472  0.00  0.00    +0.211 HD
ENDBRANCH  15  23
BRANCH  20  25
ATOM     25  O   UNL     1     -36.591  26.526   5.194  0.00  0.00    -0.505 OA
ATOM     26  H   UNL     1     -36.436  27.056   5.952  0.00  0.00    +0.292 HD
ENDBRANCH  20  25
BRANCH  21  27
ATOM     27  O   UNL     1     -32.146  27.236   3.693  0.00  0.00    -0.505 OA
ATOM     28  H   UNL     1     -32.132  28.066   3.258  0.00  0.00    +0.292 HD
ENDBRANCH  21  27
ENDBRANCH   8  14
BRANCH   5  29
ATOM     29  C   UNL     1     -32.737  20.151  -0.759  0.00  0.00    -0.018 C 
ATOM     30  C   UNL     1     -32.178  21.412  -0.966  0.00  0.00    +0.036 C 
ATOM     31  C   UNL     1     -31.913  19.056  -0.497  0.00  0.00    -0.001 C 
ATOM     32  C   UNL     1     -30.795  21.579  -0.911  0.00  0.00    +0.172 C 
ATOM     33  C   UNL     1     -30.529  19.223  -0.442  0.00  0.00    +0.039 C 
ATOM     34  C   UNL     1     -29.970  20.485  -0.649  0.00  0.00    +0.168 C 
BRANCH  32  35
ATOM     35  O   UNL     1     -30.260  22.815  -1.116  0.00  0.00    -0.468 OA
ATOM     36  C   UNL     1     -31.094  23.786  -1.745  0.00  0.00    +0.253 C 
ENDBRANCH  32  35
BRANCH  34  37
ATOM     37  O   UNL     1     -28.618  20.635  -0.593  0.00  0.00    -0.503 OA
ATOM     38  H   UNL     1     -28.243  21.492  -0.553  0.00  0.00    +0.292 HD
ENDBRANCH  34  37
ENDBRANCH   5  29
BRANCH   6  39
ATOM     39  O   UNL     1     -38.240  20.513   0.507  0.00  0.00    -0.358 OA
ATOM     40  H   UNL     1     -38.255  19.954   1.300  0.00  0.00    +0.213 HD
ENDBRANCH   6  39
TORSDOF 8
ENDMDL
MODEL 6
REMARK VINA RESULT:      -6.8      2.136      5.439
REMARK  Name = 20056308
REMARK  8 active torsions:
REMARK  status: ('A' for Active; 'I' for Inactive)
REMARK    1  A    between atoms: C_5  and  C_29
REMARK    2  A    between atoms: C_6  and  O_39
REMARK    3  A    between atoms: C_8  and  C_14
REMARK    4  A    between atoms: C_15  and  O_23
REMARK    5  A    between atoms: C_20  and  O_25
REMARK    6  A    between atoms: C_21  and  O_27
REMARK    7  A    between atoms: C_32  and  O_35
REMARK    8  A    between atoms: C_34  and  O_37
REMARK                            x       y       z     vdW  Elec       q    Type
REMARK                         _______ _______ _______ _____ _____    ______ ____
ROOT
ATOM      1  O   UNL     1     -35.080  23.984   5.304  0.00  0.00    -0.329 OA
ATOM      2  O   UNL     1     -33.470  25.271   3.028  0.00  0.00    -0.291 OA
ATOM      3  C   UNL     1     -36.318  22.548   3.886  0.00  0.00    +0.043 C 
ATOM      4  C   UNL     1     -36.818  23.992   3.676  0.00  0.00    +0.083 C 
ATOM      5  C   UNL     1     -35.175  22.220   2.843  0.00  0.00    +0.036 C 
ATOM      6  C   UNL     1     -35.554  24.733   4.176  0.00  0.00    +0.241 C 
ATOM      7  C   UNL     1     -34.822  23.508   2.044  0.00  0.00    +0.088 C 
ATOM      8  C   UNL     1     -37.094  24.292   2.219  0.00  0.00    -0.001 C 
ATOM      9  C   UNL     1     -35.728  22.701   5.288  0.00  0.00    +0.146 C 
ATOM     10  C   UNL     1     -34.481  24.581   3.081  0.00  0.00    +0.205 C 
ATOM     11  C   UNL     1     -36.059  24.070   1.391  0.00  0.00    -0.023 C 
ENDROOT
BRANCH   8  14
ATOM     12  O   UNL     1     -39.146  23.720   1.214  0.00  0.00    -0.472 OA
ATOM     13  O   UNL     1     -41.138  26.808   3.033  0.00  0.00    -0.288 OA
ATOM     14  C   UNL     1     -38.435  24.815   1.807  0.00  0.00    +0.218 C 
ATOM     15  C   UNL     1     -39.194  25.378   3.005  0.00  0.00    +0.217 C 
ATOM     16  C   UNL     1     -40.556  25.849   2.541  0.00  0.00    +0.209 C 
ATOM     17  C   UNL     1     -40.439  24.022   0.874  0.00  0.00    +0.148 C 
ATOM     18  C   UNL     1     -41.175  25.052   1.465  0.00  0.00    +0.105 C 
ATOM     19  C   UNL     1     -41.033  23.217  -0.100  0.00  0.00    +0.074 C 
ATOM     20  C   UNL     1     -42.489  25.302   1.063  0.00  0.00    +0.142 C 
ATOM     21  C   UNL     1     -42.346  23.463  -0.501  0.00  0.00    +0.140 C 
ATOM     22  C   UNL     1     -43.071  24.505   0.076  0.00  0.00    +0.073 C 
BRANCH  15  23
ATOM     23  O   UNL     1     -38.504  26.489   3.548  0.00  0.00    -0.374 OA
ATOM     24  H   UNL     1     -37.629  26.207   3.858  0.00  0.00    +0.211 HD
ENDBRANCH  15  23
BRANCH  20  25
ATOM     25  O   UNL     1     -43.249  26.294   1.605  0.00  0.00    -0.505 OA
ATOM     26  H   UNL     1     -44.096  26.484   1.248  0.00  0.00    +0.292 HD
ENDBRANCH  20  25
BRANCH  21  27
ATOM     27  O   UNL     1     -42.922  22.683  -1.456  0.00  0.00    -0.505 OA
ATOM     28  H   UNL     1     -43.800  22.376  -1.344  0.00  0.00    +0.292 HD
ENDBRANCH  21  27
ENDBRANCH   8  14
BRANCH   5  29
ATOM     29  C   UNL     1     -35.461  21.049   1.912  0.00  0.00    -0.018 C 
ATOM     30  C   UNL     1     -34.442  20.156   1.583  0.00  0.00    +0.036 C 
ATOM     31  C   UNL     1     -36.743  20.870   1.390  0.00  0.00    -0.001 C 
ATOM     32  C   UNL     1     -34.703  19.083   0.731  0.00  0.00    +0.172 C 
ATOM     33  C   UNL     1     -37.004  19.797   0.538  0.00  0.00    +0.039 C 
ATOM     34  C   UNL     1     -35.984  18.904   0.208  0.00  0.00    +0.168 C 
BRANCH  32  35
ATOM     35  O   UNL     1     -33.700  18.218   0.414  0.00  0.00    -0.468 OA
ATOM     36  C   UNL     1     -32.614  18.121   1.334  0.00  0.00    +0.253 C 
ENDBRANCH  32  35
BRANCH  34  37
ATOM     37  O   UNL     1     -36.252  17.860  -0.625  0.00  0.00    -0.503 OA
ATOM     38  H   UNL     1     -36.808  17.985  -1.368  0.00  0.00    +0.292 HD
ENDBRANCH  34  37
ENDBRANCH   5  29
BRANCH   6  39
ATOM     39  O   UNL     1     -35.839  26.072   4.488  0.00  0.00    -0.358 OA
ATOM     40  H   UNL     1     -36.780  26.159   4.709  0.00  0.00    +0.213 HD
ENDBRANCH   6  39
TORSDOF 8
ENDMDL
MODEL 7
REMARK VINA RESULT:      -6.8      3.004      7.488
REMARK  Name = 20056308
REMARK  8 active torsions:
REMARK  status: ('A' for Active; 'I' for Inactive)
REMARK    1  A    between atoms: C_5  and  C_29
REMARK    2  A    between atoms: C_6  and  O_39
REMARK    3  A    between atoms: C_8  and  C_14
REMARK    4  A    between atoms: C_15  and  O_23
REMARK    5  A    between atoms: C_20  and  O_25
REMARK    6  A    between atoms: C_21  and  O_27
REMARK    7  A    between atoms: C_32  and  O_35
REMARK    8  A    between atoms: C_34  and  O_37
REMARK                            x       y       z     vdW  Elec       q    Type
REMARK                         _______ _______ _______ _____ _____    ______ ____
ROOT
ATOM      1  O   UNL     1     -37.558  23.459  -0.002  0.00  0.00    -0.329 OA
ATOM      2  O   UNL     1     -38.447  21.941   2.516  0.00  0.00    -0.291 OA
ATOM      3  C   UNL     1     -35.269  22.898   0.224  0.00  0.00    +0.043 C 
ATOM      4  C   UNL     1     -35.632  23.920   1.321  0.00  0.00    +0.083 C 
ATOM      5  C   UNL     1     -35.450  21.429   0.782  0.00  0.00    +0.036 C 
ATOM      6  C   UNL     1     -37.158  23.661   1.361  0.00  0.00    +0.241 C 
ATOM      7  C   UNL     1     -36.080  21.491   2.203  0.00  0.00    +0.088 C 
ATOM      8  C   UNL     1     -34.981  23.590   2.646  0.00  0.00    -0.001 C 
ATOM      9  C   UNL     1     -36.373  23.224  -0.781  0.00  0.00    +0.146 C 
ATOM     10  C   UNL     1     -37.366  22.310   2.072  0.00  0.00    +0.205 C 
ATOM     11  C   UNL     1     -35.237  22.353   3.107  0.00  0.00    -0.023 C 
ENDROOT
BRANCH   8  14
ATOM     12  O   UNL     1     -33.826  25.625   2.374  0.00  0.00    -0.472 OA
ATOM     13  O   UNL     1     -34.029  26.517   6.371  0.00  0.00    -0.288 OA
ATOM     14  C   UNL     1     -34.146  24.618   3.343  0.00  0.00    +0.218 C 
ATOM     15  C   UNL     1     -34.894  25.217   4.530  0.00  0.00    +0.217 C 
ATOM     16  C   UNL     1     -34.025  26.279   5.169  0.00  0.00    +0.209 C 
ATOM     17  C   UNL     1     -33.144  26.693   2.892  0.00  0.00    +0.148 C 
ATOM     18  C   UNL     1     -33.182  27.056   4.241  0.00  0.00    +0.105 C 
ATOM     19  C   UNL     1     -32.401  27.458   1.991  0.00  0.00    +0.074 C 
ATOM     20  C   UNL     1     -32.454  28.158   4.697  0.00  0.00    +0.142 C 
ATOM     21  C   UNL     1     -31.676  28.560   2.443  0.00  0.00    +0.140 C 
ATOM     22  C   UNL     1     -31.699  28.907   3.794  0.00  0.00    +0.073 C 
BRANCH  15  23
ATOM     23  O   UNL     1     -35.157  24.219   5.501  0.00  0.00    -0.374 OA
ATOM     24  H   UNL     1     -35.690  24.598   6.218  0.00  0.00    +0.211 HD
ENDBRANCH  15  23
BRANCH  20  25
ATOM     25  O   UNL     1     -32.455  28.553   6.001  0.00  0.00    -0.505 OA
ATOM     26  H   UNL     1     -31.716  28.365   6.548  0.00  0.00    +0.292 HD
ENDBRANCH  20  25
BRANCH  21  27
ATOM     27  O   UNL     1     -30.946  29.301   1.564  0.00  0.00    -0.505 OA
ATOM     28  H   UNL     1     -30.463  30.045   1.866  0.00  0.00    +0.292 HD
ENDBRANCH  21  27
ENDBRANCH   8  14
BRANCH   5  29
ATOM     29  C   UNL     1     -34.193  20.569   0.767  0.00  0.00    -0.018 C 
ATOM     30  C   UNL     1     -33.080  20.974   0.031  0.00  0.00    +0.036 C 
ATOM     31  C   UNL     1     -34.156  19.377   1.491  0.00  0.00    -0.001 C 
ATOM     32  C   UNL     1     -31.929  20.186   0.018  0.00  0.00    +0.172 C 
ATOM     33  C   UNL     1     -33.004  18.589   1.478  0.00  0.00    +0.039 C 
ATOM     34  C   UNL     1     -31.891  18.994   0.741  0.00  0.00    +0.168 C 
BRANCH  32  35
ATOM     35  O   UNL     1     -30.848  20.590  -0.706  0.00  0.00    -0.468 OA
ATOM     36  C   UNL     1     -30.805  21.962  -1.095  0.00  0.00    +0.253 C 
ENDBRANCH  32  35
BRANCH  34  37
ATOM     37  O   UNL     1     -30.773  18.216   0.736  0.00  0.00    -0.503 OA
ATOM     38  H   UNL     1     -30.647  17.582   0.059  0.00  0.00    +0.292 HD
ENDBRANCH  34  37
ENDBRANCH   5  29
BRANCH   6  39
ATOM     39  O   UNL     1     -37.839  24.722   1.980  0.00  0.00    -0.358 OA
ATOM     40  H   UNL     1     -38.523  25.060   1.381  0.00  0.00    +0.213 HD
ENDBRANCH   6  39
TORSDOF 8
ENDMDL
MODEL 8
REMARK VINA RESULT:      -6.7      1.575      2.563
REMARK  Name = 20056308
REMARK  8 active torsions:
REMARK  status: ('A' for Active; 'I' for Inactive)
REMARK    1  A    between atoms: C_5  and  C_29
REMARK    2  A    between atoms: C_6  and  O_39
REMARK    3  A    between atoms: C_8  and  C_14
REMARK    4  A    between atoms: C_15  and  O_23
REMARK    5  A    between atoms: C_20  and  O_25
REMARK    6  A    between atoms: C_21  and  O_27
REMARK    7  A    between atoms: C_32  and  O_35
REMARK    8  A    between atoms: C_34  and  O_37
REMARK                            x       y       z     vdW  Elec       q    Type
REMARK                         _______ _______ _______ _____ _____    ______ ____
ROOT
ATOM      1  O   UNL     1     -36.128  22.155  -0.866  0.00  0.00    -0.329 OA
ATOM      2  O   UNL     1     -36.473  19.874   1.161  0.00  0.00    -0.291 OA
ATOM      3  C   UNL     1     -36.322  23.882   0.742  0.00  0.00    +0.043 C 
ATOM      4  C   UNL     1     -37.711  23.243   0.542  0.00  0.00    +0.083 C 
ATOM      5  C   UNL     1     -35.570  23.166   1.935  0.00  0.00    +0.036 C 
ATOM      6  C   UNL     1     -37.242  21.873  -0.006  0.00  0.00    +0.241 C 
ATOM      7  C   UNL     1     -36.413  21.951   2.420  0.00  0.00    +0.088 C 
ATOM      8  C   UNL     1     -38.459  23.088   1.848  0.00  0.00    -0.001 C 
ATOM      9  C   UNL     1     -35.686  23.496  -0.594  0.00  0.00    +0.146 C 
ATOM     10  C   UNL     1     -36.671  21.083   1.187  0.00  0.00    +0.205 C 
ATOM     11  C   UNL     1     -37.801  22.400   2.797  0.00  0.00    -0.023 C 
ENDROOT
BRANCH   8  14
ATOM     12  O   UNL     1     -39.677  24.995   2.502  0.00  0.00    -0.472 OA
ATOM     13  O   UNL     1     -42.922  23.966   0.216  0.00  0.00    -0.288 OA
ATOM     14  C   UNL     1     -39.834  23.665   1.992  0.00  0.00    +0.218 C 
ATOM     15  C   UNL     1     -40.567  23.672   0.654  0.00  0.00    +0.217 C 
ATOM     16  C   UNL     1     -41.929  24.304   0.848  0.00  0.00    +0.209 C 
ATOM     17  C   UNL     1     -40.853  25.692   2.594  0.00  0.00    +0.148 C 
ATOM     18  C   UNL     1     -41.989  25.399   1.834  0.00  0.00    +0.105 C 
ATOM     19  C   UNL     1     -40.875  26.767   3.485  0.00  0.00    +0.074 C 
ATOM     20  C   UNL     1     -43.155  26.154   1.987  0.00  0.00    +0.142 C 
ATOM     21  C   UNL     1     -42.037  27.523   3.637  0.00  0.00    +0.140 C 
ATOM     22  C   UNL     1     -43.175  27.215   2.893  0.00  0.00    +0.073 C 
BRANCH  15  23
ATOM     23  O   UNL     1     -40.758  22.347   0.189  0.00  0.00    -0.374 OA
ATOM     24  H   UNL     1     -40.327  21.726   0.797  0.00  0.00    +0.211 HD
ENDBRANCH  15  23
BRANCH  20  25
ATOM     25  O   UNL     1     -44.289  25.909   1.273  0.00  0.00    -0.505 OA
ATOM     26  H   UNL     1     -44.549  26.496   0.590  0.00  0.00    +0.292 HD
ENDBRANCH  20  25
BRANCH  21  27
ATOM     27  O   UNL     1     -42.059  28.566   4.512  0.00  0.00    -0.505 OA
ATOM     28  H   UNL     1     -41.493  29.301   4.380  0.00  0.00    +0.292 HD
ENDBRANCH  21  27
ENDBRANCH   8  14
BRANCH   5  29
ATOM     29  C   UNL     1     -35.181  24.072   3.096  0.00  0.00    -0.018 C 
ATOM     30  C   UNL     1     -35.190  25.458   2.932  0.00  0.00    +0.036 C 
ATOM     31  C   UNL     1     -34.816  23.516   4.322  0.00  0.00    -0.001 C 
ATOM     32  C   UNL     1     -34.834  26.288   3.995  0.00  0.00    +0.172 C 
ATOM     33  C   UNL     1     -34.460  24.347   5.385  0.00  0.00    +0.039 C 
ATOM     34  C   UNL     1     -34.468  25.732   5.221  0.00  0.00    +0.168 C 
BRANCH  32  35
ATOM     35  O   UNL     1     -34.845  27.639   3.823  0.00  0.00    -0.468 OA
ATOM     36  C   UNL     1     -34.585  28.127   2.508  0.00  0.00    +0.253 C 
ENDBRANCH  32  35
BRANCH  34  37
ATOM     37  O   UNL     1     -34.119  26.532   6.266  0.00  0.00    -0.503 OA
ATOM     38  H   UNL     1     -33.519  26.220   6.914  0.00  0.00    +0.292 HD
ENDBRANCH  34  37
ENDBRANCH   5  29
BRANCH   6  39
ATOM     39  O   UNL     1     -38.286  21.204  -0.665  0.00  0.00    -0.358 OA
ATOM     40  H   UNL     1     -38.557  21.715  -1.444  0.00  0.00    +0.213 HD
ENDBRANCH   6  39
TORSDOF 8
ENDMDL
MODEL 9
REMARK VINA RESULT:      -6.7      1.655      3.245
REMARK  Name = 20056308
REMARK  8 active torsions:
REMARK  status: ('A' for Active; 'I' for Inactive)
REMARK    1  A    between atoms: C_5  and  C_29
REMARK    2  A    between atoms: C_6  and  O_39
REMARK    3  A    between atoms: C_8  and  C_14
REMARK    4  A    between atoms: C_15  and  O_23
REMARK    5  A    between atoms: C_20  and  O_25
REMARK    6  A    between atoms: C_21  and  O_27
REMARK    7  A    between atoms: C_32  and  O_35
REMARK    8  A    between atoms: C_34  and  O_37
REMARK                            x       y       z     vdW  Elec       q    Type
REMARK                         _______ _______ _______ _____ _____    ______ ____
ROOT
ATOM      1  O   UNL     1     -36.049  22.381  -0.670  0.00  0.00    -0.329 OA
ATOM      2  O   UNL     1     -37.134  20.416   1.427  0.00  0.00    -0.291 OA
ATOM      3  C   UNL     1     -35.972  24.228   0.809  0.00  0.00    +0.043 C 
ATOM      4  C   UNL     1     -37.449  23.921   0.488  0.00  0.00    +0.083 C 
ATOM      5  C   UNL     1     -35.537  23.454   2.117  0.00  0.00    +0.036 C 
ATOM      6  C   UNL     1     -37.276  22.440   0.072  0.00  0.00    +0.241 C 
ATOM      7  C   UNL     1     -36.693  22.515   2.569  0.00  0.00    +0.088 C 
ATOM      8  C   UNL     1     -38.336  24.053   1.706  0.00  0.00    -0.001 C 
ATOM      9  C   UNL     1     -35.323  23.597  -0.422  0.00  0.00    +0.146 C 
ATOM     10  C   UNL     1     -37.033  21.636   1.364  0.00  0.00    +0.205 C 
ATOM     11  C   UNL     1     -37.961  23.308   2.760  0.00  0.00    -0.023 C 
ENDROOT
BRANCH   8  14
ATOM     12  O   UNL     1     -40.619  24.165   1.139  0.00  0.00    -0.472 OA
ATOM     13  O   UNL     1     -41.305  27.327   3.658  0.00  0.00    -0.288 OA
ATOM     14  C   UNL     1     -39.537  24.946   1.661  0.00  0.00    +0.218 C 
ATOM     15  C   UNL     1     -39.868  25.486   3.049  0.00  0.00    +0.217 C 
ATOM     16  C   UNL     1     -41.112  26.343   2.955  0.00  0.00    +0.209 C 
ATOM     17  C   UNL     1     -41.821  24.823   1.132  0.00  0.00    +0.148 C 
ATOM     18  C   UNL     1     -42.120  25.898   1.973  0.00  0.00    +0.105 C 
ATOM     19  C   UNL     1     -42.788  24.351   0.243  0.00  0.00    +0.074 C 
ATOM     20  C   UNL     1     -43.368  26.523   1.905  0.00  0.00    +0.142 C 
ATOM     21  C   UNL     1     -44.036  24.970   0.176  0.00  0.00    +0.140 C 
ATOM     22  C   UNL     1     -44.324  26.056   1.002  0.00  0.00    +0.073 C 
BRANCH  15  23
ATOM     23  O   UNL     1     -38.810  26.296   3.529  0.00  0.00    -0.374 OA
ATOM     24  H   UNL     1     -37.998  25.768   3.586  0.00  0.00    +0.211 HD
ENDBRANCH  15  23
BRANCH  20  25
ATOM     25  O   UNL     1     -43.710  27.575   2.700  0.00  0.00    -0.505 OA
ATOM     26  H   UNL     1     -44.286  27.444   3.429  0.00  0.00    +0.292 HD
ENDBRANCH  20  25
BRANCH  21  27
ATOM     27  O   UNL     1     -44.975  24.512  -0.697  0.00  0.00    -0.505 OA
ATOM     28  H   UNL     1     -45.455  25.117  -1.229  0.00  0.00    +0.292 HD
ENDBRANCH  21  27
ENDBRANCH   8  14
BRANCH   5  29
ATOM     29  C   UNL     1     -35.054  24.333   3.263  0.00  0.00    -0.018 C 
ATOM     30  C   UNL     1     -34.878  25.703   3.065  0.00  0.00    +0.036 C 
ATOM     31  C   UNL     1     -34.789  23.768   4.511  0.00  0.00    -0.001 C 
ATOM     32  C   UNL     1     -34.437  26.508   4.114  0.00  0.00    +0.172 C 
ATOM     33  C   UNL     1     -34.347  24.574   5.561  0.00  0.00    +0.039 C 
ATOM     34  C   UNL     1     -34.170  25.944   5.362  0.00  0.00    +0.168 C 
BRANCH  32  35
ATOM     35  O   UNL     1     -34.266  27.844   3.908  0.00  0.00    -0.468 OA
ATOM     36  C   UNL     1     -34.891  28.407   2.756  0.00  0.00    +0.253 C 
ENDBRANCH  32  35
BRANCH  34  37
ATOM     37  O   UNL     1     -33.738  26.720   6.394  0.00  0.00    -0.503 OA
ATOM     38  H   UNL     1     -33.194  27.463   6.226  0.00  0.00    +0.292 HD
ENDBRANCH  34  37
ENDBRANCH   5  29
BRANCH   6  39
ATOM     39  O   UNL     1     -38.382  21.984  -0.663  0.00  0.00    -0.358 OA
ATOM     40  H   UNL     1     -38.692  21.142  -0.293  0.00  0.00    +0.213 HD
ENDBRANCH   6  39
TORSDOF 8
ENDMDL
