MODEL 1
REMARK VINA RESULT:      -5.5      0.000      0.000
REMARK  Name = 56842795
REMARK  8 active torsions:
REMARK  status: ('A' for Active; 'I' for Inactive)
REMARK    1  A    between atoms: C_2  and  O_13
REMARK    2  A    between atoms: C_3  and  O_7
REMARK    3  A    between atoms: C_4  and  O_9
REMARK    4  A    between atoms: C_5  and  O_11
REMARK    5  A    between atoms: C_6  and  C_19
REMARK    6  A    between atoms: O_13  and  C_14
REMARK    7  A    between atoms: C_15  and  O_17
REMARK    8  A    between atoms: C_19  and  O_20
REMARK                            x       y       z     vdW  Elec       q    Type
REMARK                         _______ _______ _______ _____ _____    ______ ____
ROOT
ATOM      1  O   UNL     1     -35.916  24.226   3.173  0.00  0.00    -0.326 OA
ATOM      2  C   UNL     1     -36.278  22.863   2.943  0.00  0.00    +0.266 C 
ATOM      3  C   UNL     1     -35.418  21.929   3.799  0.00  0.00    +0.196 C 
ATOM      4  C   UNL     1     -35.526  22.302   5.278  0.00  0.00    +0.172 C 
ATOM      5  C   UNL     1     -35.209  23.789   5.472  0.00  0.00    +0.169 C 
ATOM      6  C   UNL     1     -36.077  24.643   4.539  0.00  0.00    +0.176 C 
ENDROOT
BRANCH   3   7
ATOM      7  O   UNL     1     -35.841  20.584   3.597  0.00  0.00    -0.378 OA
ATOM      8  H   UNL     1     -36.301  20.514   2.746  0.00  0.00    +0.211 HD
ENDBRANCH   3   7
BRANCH   4   9
ATOM      9  O   UNL     1     -34.614  21.507   6.031  0.00  0.00    -0.379 OA
ATOM     10  H   UNL     1     -33.968  21.102   5.431  0.00  0.00    +0.211 HD
ENDBRANCH   4   9
BRANCH   5  11
ATOM     11  O   UNL     1     -33.831  24.027   5.170  0.00  0.00    -0.379 OA
ATOM     12  H   UNL     1     -33.301  23.271   5.465  0.00  0.00    +0.211 HD
ENDBRANCH   5  11
BRANCH   2  13
ATOM     13  O   UNL     1     -37.663  22.630   3.199  0.00  0.00    -0.329 OA
BRANCH  13  14
ATOM     14  C   UNL     1     -38.422  22.430   1.977  0.00  0.00    +0.147 C 
ATOM     15  C   UNL     1     -39.597  21.503   2.077  0.00  0.00    +0.140 C 
ATOM     16  C   UNL     1     -39.817  22.983   1.969  0.00  0.00    +0.064 C 
BRANCH  15  17
ATOM     17  O   UNL     1     -39.893  20.734   0.901  0.00  0.00    -0.382 OA
ATOM     18  H   UNL     1     -40.373  21.287   0.265  0.00  0.00    +0.210 HD
ENDBRANCH  15  17
ENDBRANCH  13  14
ENDBRANCH   2  13
BRANCH   6  19
ATOM     19  C   UNL     1     -35.717  26.124   4.605  0.00  0.00    +0.169 C 
BRANCH  19  20
ATOM     20  O   UNL     1     -36.582  26.758   5.529  0.00  0.00    -0.379 OA
ATOM     21  H   UNL     1     -36.766  27.663   5.231  0.00  0.00    +0.211 HD
ENDBRANCH  19  20
ENDBRANCH   6  19
TORSDOF 8
ENDMDL
MODEL 2
REMARK VINA RESULT:      -5.4      2.074      3.550
REMARK  Name = 56842795
REMARK  8 active torsions:
REMARK  status: ('A' for Active; 'I' for Inactive)
REMARK    1  A    between atoms: C_2  and  O_13
REMARK    2  A    between atoms: C_3  and  O_7
REMARK    3  A    between atoms: C_4  and  O_9
REMARK    4  A    between atoms: C_5  and  O_11
REMARK    5  A    between atoms: C_6  and  C_19
REMARK    6  A    between atoms: O_13  and  C_14
REMARK    7  A    between atoms: C_15  and  O_17
REMARK    8  A    between atoms: C_19  and  O_20
REMARK                            x       y       z     vdW  Elec       q    Type
REMARK                         _______ _______ _______ _____ _____    ______ ____
ROOT
ATOM      1  O   UNL     1     -35.523  24.035   5.174  0.00  0.00    -0.326 OA
ATOM      2  C   UNL     1     -36.334  23.423   4.168  0.00  0.00    +0.266 C 
ATOM      3  C   UNL     1     -37.416  24.394   3.689  0.00  0.00    +0.196 C 
ATOM      4  C   UNL     1     -36.791  25.699   3.197  0.00  0.00    +0.172 C 
ATOM      5  C   UNL     1     -35.868  26.281   4.272  0.00  0.00    +0.169 C 
ATOM      6  C   UNL     1     -34.852  25.226   4.729  0.00  0.00    +0.176 C 
ENDROOT
BRANCH   3   7
ATOM      7  O   UNL     1     -38.168  23.782   2.646  0.00  0.00    -0.378 OA
ATOM      8  H   UNL     1     -38.122  22.817   2.737  0.00  0.00    +0.211 HD
ENDBRANCH   3   7
BRANCH   4   9
ATOM      9  O   UNL     1     -37.826  26.628   2.888  0.00  0.00    -0.379 OA
ATOM     10  H   UNL     1     -38.274  26.353   2.073  0.00  0.00    +0.211 HD
ENDBRANCH   4   9
BRANCH   5  11
ATOM     11  O   UNL     1     -36.647  26.692   5.399  0.00  0.00    -0.379 OA
ATOM     12  H   UNL     1     -36.503  26.074   6.133  0.00  0.00    +0.211 HD
ENDBRANCH   5  11
BRANCH   2  13
ATOM     13  O   UNL     1     -35.554  22.970   3.061  0.00  0.00    -0.329 OA
BRANCH  13  14
ATOM     14  C   UNL     1     -35.471  21.521   3.004  0.00  0.00    +0.147 C 
ATOM     15  C   UNL     1     -36.429  20.844   2.069  0.00  0.00    +0.140 C 
ATOM     16  C   UNL     1     -34.975  20.939   1.712  0.00  0.00    +0.064 C 
BRANCH  15  17
ATOM     17  O   UNL     1     -36.895  19.548   2.475  0.00  0.00    -0.382 OA
ATOM     18  H   UNL     1     -37.161  19.039   1.692  0.00  0.00    +0.210 HD
ENDBRANCH  15  17
ENDBRANCH  13  14
ENDBRANCH   2  13
BRANCH   6  19
ATOM     19  C   UNL     1     -33.986  25.715   5.885  0.00  0.00    +0.169 C 
BRANCH  19  20
ATOM     20  O   UNL     1     -33.582  27.045   5.615  0.00  0.00    -0.379 OA
ATOM     21  H   UNL     1     -32.965  27.341   6.302  0.00  0.00    +0.211 HD
ENDBRANCH  19  20
ENDBRANCH   6  19
TORSDOF 8
ENDMDL
MODEL 3
REMARK VINA RESULT:      -5.4      2.850      6.648
REMARK  Name = 56842795
REMARK  8 active torsions:
REMARK  status: ('A' for Active; 'I' for Inactive)
REMARK    1  A    between atoms: C_2  and  O_13
REMARK    2  A    between atoms: C_3  and  O_7
REMARK    3  A    between atoms: C_4  and  O_9
REMARK    4  A    between atoms: C_5  and  O_11
REMARK    5  A    between atoms: C_6  and  C_19
REMARK    6  A    between atoms: O_13  and  C_14
REMARK    7  A    between atoms: C_15  and  O_17
REMARK    8  A    between atoms: C_19  and  O_20
REMARK                            x       y       z     vdW  Elec       q    Type
REMARK                         _______ _______ _______ _____ _____    ______ ____
ROOT
ATOM      1  O   UNL     1     -33.890  24.643   4.854  0.00  0.00    -0.326 OA
ATOM      2  C   UNL     1     -33.892  26.058   4.650  0.00  0.00    +0.266 C 
ATOM      3  C   UNL     1     -35.152  26.488   3.896  0.00  0.00    +0.196 C 
ATOM      4  C   UNL     1     -36.408  26.019   4.631  0.00  0.00    +0.172 C 
ATOM      5  C   UNL     1     -36.331  24.512   4.901  0.00  0.00    +0.169 C 
ATOM      6  C   UNL     1     -35.015  24.167   5.611  0.00  0.00    +0.176 C 
ENDROOT
BRANCH   3   7
ATOM      7  O   UNL     1     -35.159  27.906   3.762  0.00  0.00    -0.378 OA
ATOM      8  H   UNL     1     -34.542  28.294   4.402  0.00  0.00    +0.211 HD
ENDBRANCH   3   7
BRANCH   4   9
ATOM      9  O   UNL     1     -37.555  26.314   3.838  0.00  0.00    -0.379 OA
ATOM     10  H   UNL     1     -38.207  26.787   4.377  0.00  0.00    +0.211 HD
ENDBRANCH   4   9
BRANCH   5  11
ATOM     11  O   UNL     1     -36.388  23.801   3.661  0.00  0.00    -0.379 OA
ATOM     12  H   UNL     1     -37.273  23.420   3.548  0.00  0.00    +0.211 HD
ENDBRANCH   5  11
BRANCH   2  13
ATOM     13  O   UNL     1     -33.788  26.771   5.882  0.00  0.00    -0.329 OA
BRANCH  13  14
ATOM     14  C   UNL     1     -32.414  27.114   6.205  0.00  0.00    +0.147 C 
ATOM     15  C   UNL     1     -31.781  28.170   5.349  0.00  0.00    +0.140 C 
ATOM     16  C   UNL     1     -32.190  28.492   6.756  0.00  0.00    +0.064 C 
BRANCH  15  17
ATOM     17  O   UNL     1     -30.370  28.031   5.118  0.00  0.00    -0.382 OA
ATOM     18  H   UNL     1     -30.080  27.153   5.413  0.00  0.00    +0.210 HD
ENDBRANCH  15  17
ENDBRANCH  13  14
ENDBRANCH   2  13
BRANCH   6  19
ATOM     19  C   UNL     1     -34.831  22.664   5.795  0.00  0.00    +0.169 C 
BRANCH  19  20
ATOM     20  O   UNL     1     -36.093  22.087   6.081  0.00  0.00    -0.379 OA
ATOM     21  H   UNL     1     -35.969  21.288   6.617  0.00  0.00    +0.211 HD
ENDBRANCH  19  20
ENDBRANCH   6  19
TORSDOF 8
ENDMDL
MODEL 4
REMARK VINA RESULT:      -5.3      1.806      5.025
REMARK  Name = 56842795
REMARK  8 active torsions:
REMARK  status: ('A' for Active; 'I' for Inactive)
REMARK    1  A    between atoms: C_2  and  O_13
REMARK    2  A    between atoms: C_3  and  O_7
REMARK    3  A    between atoms: C_4  and  O_9
REMARK    4  A    between atoms: C_5  and  O_11
REMARK    5  A    between atoms: C_6  and  C_19
REMARK    6  A    between atoms: O_13  and  C_14
REMARK    7  A    between atoms: C_15  and  O_17
REMARK    8  A    between atoms: C_19  and  O_20
REMARK                            x       y       z     vdW  Elec       q    Type
REMARK                         _______ _______ _______ _____ _____    ______ ____
ROOT
ATOM      1  O   UNL     1     -36.782  24.333   4.872  0.00  0.00    -0.326 OA
ATOM      2  C   UNL     1     -35.700  23.727   5.583  0.00  0.00    +0.266 C 
ATOM      3  C   UNL     1     -35.607  22.237   5.247  0.00  0.00    +0.196 C 
ATOM      4  C   UNL     1     -35.478  22.031   3.737  0.00  0.00    +0.172 C 
ATOM      5  C   UNL     1     -36.610  22.761   3.007  0.00  0.00    +0.169 C 
ATOM      6  C   UNL     1     -36.663  24.231   3.444  0.00  0.00    +0.176 C 
ENDROOT
BRANCH   3   7
ATOM      7  O   UNL     1     -34.484  21.673   5.919  0.00  0.00    -0.378 OA
ATOM      8  H   UNL     1     -33.689  22.188   5.709  0.00  0.00    +0.211 HD
ENDBRANCH   3   7
BRANCH   4   9
ATOM      9  O   UNL     1     -35.531  20.637   3.447  0.00  0.00    -0.379 OA
ATOM     10  H   UNL     1     -36.442  20.321   3.546  0.00  0.00    +0.211 HD
ENDBRANCH   4   9
BRANCH   5  11
ATOM     11  O   UNL     1     -37.860  22.140   3.321  0.00  0.00    -0.379 OA
ATOM     12  H   UNL     1     -37.814  21.751   4.208  0.00  0.00    +0.211 HD
ENDBRANCH   5  11
BRANCH   2  13
ATOM     13  O   UNL     1     -34.457  24.373   5.308  0.00  0.00    -0.329 OA
BRANCH  13  14
ATOM     14  C   UNL     1     -34.474  25.777   5.679  0.00  0.00    +0.147 C 
ATOM     15  C   UNL     1     -33.158  26.493   5.602  0.00  0.00    +0.140 C 
ATOM     16  C   UNL     1     -34.214  26.755   4.570  0.00  0.00    +0.064 C 
BRANCH  15  17
ATOM     17  O   UNL     1     -32.951  27.534   6.570  0.00  0.00    -0.382 OA
ATOM     18  H   UNL     1     -33.787  28.002   6.726  0.00  0.00    +0.210 HD
ENDBRANCH  15  17
ENDBRANCH  13  14
ENDBRANCH   2  13
BRANCH   6  19
ATOM     19  C   UNL     1     -37.848  24.976   2.837  0.00  0.00    +0.169 C 
BRANCH  19  20
ATOM     20  O   UNL     1     -38.926  24.931   3.754  0.00  0.00    -0.379 OA
ATOM     21  H   UNL     1     -39.456  25.738   3.668  0.00  0.00    +0.211 HD
ENDBRANCH  19  20
ENDBRANCH   6  19
TORSDOF 8
ENDMDL
MODEL 5
REMARK VINA RESULT:      -5.1      1.933      3.664
REMARK  Name = 56842795
REMARK  8 active torsions:
REMARK  status: ('A' for Active; 'I' for Inactive)
REMARK    1  A    between atoms: C_2  and  O_13
REMARK    2  A    between atoms: C_3  and  O_7
REMARK    3  A    between atoms: C_4  and  O_9
REMARK    4  A    between atoms: C_5  and  O_11
REMARK    5  A    between atoms: C_6  and  C_19
REMARK    6  A    between atoms: O_13  and  C_14
REMARK    7  A    between atoms: C_15  and  O_17
REMARK    8  A    between atoms: C_19  and  O_20
REMARK                            x       y       z     vdW  Elec       q    Type
REMARK                         _______ _______ _______ _____ _____    ______ ____
ROOT
ATOM      1  O   UNL     1     -37.468  24.316   4.406  0.00  0.00    -0.326 OA
ATOM      2  C   UNL     1     -38.239  24.691   3.262  0.00  0.00    +0.266 C 
ATOM      3  C   UNL     1     -37.984  26.157   2.903  0.00  0.00    +0.196 C 
ATOM      4  C   UNL     1     -36.491  26.407   2.687  0.00  0.00    +0.172 C 
ATOM      5  C   UNL     1     -35.693  25.920   3.901  0.00  0.00    +0.169 C 
ATOM      6  C   UNL     1     -36.050  24.462   4.220  0.00  0.00    +0.176 C 
ENDROOT
BRANCH   3   7
ATOM      7  O   UNL     1     -38.714  26.485   1.725  0.00  0.00    -0.378 OA
ATOM      8  H   UNL     1     -38.972  25.670   1.266  0.00  0.00    +0.211 HD
ENDBRANCH   3   7
BRANCH   4   9
ATOM      9  O   UNL     1     -36.273  27.802   2.489  0.00  0.00    -0.379 OA
ATOM     10  H   UNL     1     -36.792  28.105   1.729  0.00  0.00    +0.211 HD
ENDBRANCH   4   9
BRANCH   5  11
ATOM     11  O   UNL     1     -36.005  26.732   5.036  0.00  0.00    -0.379 OA
ATOM     12  H   UNL     1     -36.962  26.717   5.190  0.00  0.00    +0.211 HD
ENDBRANCH   5  11
BRANCH   2  13
ATOM     13  O   UNL     1     -37.964  23.854   2.140  0.00  0.00    -0.329 OA
BRANCH  13  14
ATOM     14  C   UNL     1     -38.341  22.471   2.380  0.00  0.00    +0.147 C 
ATOM     15  C   UNL     1     -39.495  21.954   1.573  0.00  0.00    +0.140 C 
ATOM     16  C   UNL     1     -38.097  21.515   1.249  0.00  0.00    +0.064 C 
BRANCH  15  17
ATOM     17  O   UNL     1     -40.328  20.979   2.219  0.00  0.00    -0.382 OA
ATOM     18  H   UNL     1     -39.798  20.471   2.855  0.00  0.00    +0.210 HD
ENDBRANCH  15  17
ENDBRANCH  13  14
ENDBRANCH   2  13
BRANCH   6  19
ATOM     19  C   UNL     1     -35.374  23.963   5.493  0.00  0.00    +0.169 C 
BRANCH  19  20
ATOM     20  O   UNL     1     -36.019  22.774   5.911  0.00  0.00    -0.379 OA
ATOM     21  H   UNL     1     -35.378  22.198   6.356  0.00  0.00    +0.211 HD
ENDBRANCH  19  20
ENDBRANCH   6  19
TORSDOF 8
ENDMDL
MODEL 6
REMARK VINA RESULT:      -5.1      2.039      5.780
REMARK  Name = 56842795
REMARK  8 active torsions:
REMARK  status: ('A' for Active; 'I' for Inactive)
REMARK    1  A    between atoms: C_2  and  O_13
REMARK    2  A    between atoms: C_3  and  O_7
REMARK    3  A    between atoms: C_4  and  O_9
REMARK    4  A    between atoms: C_5  and  O_11
REMARK    5  A    between atoms: C_6  and  C_19
REMARK    6  A    between atoms: O_13  and  C_14
REMARK    7  A    between atoms: C_15  and  O_17
REMARK    8  A    between atoms: C_19  and  O_20
REMARK                            x       y       z     vdW  Elec       q    Type
REMARK                         _______ _______ _______ _____ _____    ______ ____
ROOT
ATOM      1  O   UNL     1     -37.858  23.350   1.911  0.00  0.00    -0.326 OA
ATOM      2  C   UNL     1     -37.240  24.245   2.839  0.00  0.00    +0.266 C 
ATOM      3  C   UNL     1     -38.070  25.524   2.982  0.00  0.00    +0.196 C 
ATOM      4  C   UNL     1     -39.506  25.192   3.386  0.00  0.00    +0.172 C 
ATOM      5  C   UNL     1     -40.106  24.170   2.414  0.00  0.00    +0.169 C 
ATOM      6  C   UNL     1     -39.184  22.949   2.293  0.00  0.00    +0.176 C 
ENDROOT
BRANCH   3   7
ATOM      7  O   UNL     1     -37.466  26.369   3.957  0.00  0.00    -0.378 OA
ATOM      8  H   UNL     1     -36.540  26.106   4.084  0.00  0.00    +0.211 HD
ENDBRANCH   3   7
BRANCH   4   9
ATOM      9  O   UNL     1     -40.284  26.386   3.378  0.00  0.00    -0.379 OA
ATOM     10  H   UNL     1     -39.705  27.149   3.529  0.00  0.00    +0.211 HD
ENDBRANCH   4   9
BRANCH   5  11
ATOM     11  O   UNL     1     -40.254  24.768   1.124  0.00  0.00    -0.379 OA
ATOM     12  H   UNL     1     -41.136  25.165   1.051  0.00  0.00    +0.211 HD
ENDBRANCH   5  11
BRANCH   2  13
ATOM     13  O   UNL     1     -37.048  23.637   4.116  0.00  0.00    -0.329 OA
BRANCH  13  14
ATOM     14  C   UNL     1     -35.649  23.350   4.383  0.00  0.00    +0.147 C 
ATOM     15  C   UNL     1     -34.906  24.381   5.180  0.00  0.00    +0.140 C 
ATOM     16  C   UNL     1     -35.293  23.078   5.815  0.00  0.00    +0.064 C 
BRANCH  15  17
ATOM     17  O   UNL     1     -33.514  24.538   4.862  0.00  0.00    -0.382 OA
ATOM     18  H   UNL     1     -33.015  23.784   5.214  0.00  0.00    +0.210 HD
ENDBRANCH  15  17
ENDBRANCH  13  14
ENDBRANCH   2  13
BRANCH   6  19
ATOM     19  C   UNL     1     -39.673  21.954   1.246  0.00  0.00    +0.169 C 
BRANCH  19  20
ATOM     20  O   UNL     1     -40.394  20.926   1.902  0.00  0.00    -0.379 OA
ATOM     21  H   UNL     1     -39.811  20.165   2.047  0.00  0.00    +0.211 HD
ENDBRANCH  19  20
ENDBRANCH   6  19
TORSDOF 8
ENDMDL
MODEL 7
REMARK VINA RESULT:      -4.8      2.045      3.677
REMARK  Name = 56842795
REMARK  8 active torsions:
REMARK  status: ('A' for Active; 'I' for Inactive)
REMARK    1  A    between atoms: C_2  and  O_13
REMARK    2  A    between atoms: C_3  and  O_7
REMARK    3  A    between atoms: C_4  and  O_9
REMARK    4  A    between atoms: C_5  and  O_11
REMARK    5  A    between atoms: C_6  and  C_19
REMARK    6  A    between atoms: O_13  and  C_14
REMARK    7  A    between atoms: C_15  and  O_17
REMARK    8  A    between atoms: C_19  and  O_20
REMARK                            x       y       z     vdW  Elec       q    Type
REMARK                         _______ _______ _______ _____ _____    ______ ____
ROOT
ATOM      1  O   UNL     1     -36.670  22.620   4.256  0.00  0.00    -0.326 OA
ATOM      2  C   UNL     1     -36.874  23.066   2.913  0.00  0.00    +0.266 C 
ATOM      3  C   UNL     1     -36.556  24.558   2.791  0.00  0.00    +0.196 C 
ATOM      4  C   UNL     1     -35.136  24.849   3.275  0.00  0.00    +0.172 C 
ATOM      5  C   UNL     1     -34.933  24.286   4.686  0.00  0.00    +0.169 C 
ATOM      6  C   UNL     1     -35.325  22.803   4.727  0.00  0.00    +0.176 C 
ENDROOT
BRANCH   3   7
ATOM      7  O   UNL     1     -36.707  24.961   1.433  0.00  0.00    -0.378 OA
ATOM      8  H   UNL     1     -37.167  25.815   1.398  0.00  0.00    +0.211 HD
ENDBRANCH   3   7
BRANCH   4   9
ATOM      9  O   UNL     1     -34.919  26.258   3.277  0.00  0.00    -0.379 OA
ATOM     10  H   UNL     1     -34.914  26.582   4.191  0.00  0.00    +0.211 HD
ENDBRANCH   4   9
BRANCH   5  11
ATOM     11  O   UNL     1     -35.752  25.007   5.611  0.00  0.00    -0.379 OA
ATOM     12  H   UNL     1     -35.298  25.066   6.466  0.00  0.00    +0.211 HD
ENDBRANCH   5  11
BRANCH   2  13
ATOM     13  O   UNL     1     -36.093  22.318   1.982  0.00  0.00    -0.329 OA
BRANCH  13  14
ATOM     14  C   UNL     1     -36.180  20.887   2.215  0.00  0.00    +0.147 C 
ATOM     15  C   UNL     1     -36.083  20.015   0.998  0.00  0.00    +0.140 C 
ATOM     16  C   UNL     1     -34.930  20.099   1.954  0.00  0.00    +0.064 C 
BRANCH  15  17
ATOM     17  O   UNL     1     -36.845  18.799   1.033  0.00  0.00    -0.382 OA
ATOM     18  H   UNL     1     -36.252  18.051   1.212  0.00  0.00    +0.210 HD
ENDBRANCH  15  17
ENDBRANCH  13  14
ENDBRANCH   2  13
BRANCH   6  19
ATOM     19  C   UNL     1     -35.256  22.223   6.136  0.00  0.00    +0.169 C 
BRANCH  19  20
ATOM     20  O   UNL     1     -35.429  20.819   6.055  0.00  0.00    -0.379 OA
ATOM     21  H   UNL     1     -35.055  20.402   6.847  0.00  0.00    +0.211 HD
ENDBRANCH  19  20
ENDBRANCH   6  19
TORSDOF 8
ENDMDL
MODEL 8
REMARK VINA RESULT:      -4.8      1.899      5.657
REMARK  Name = 56842795
REMARK  8 active torsions:
REMARK  status: ('A' for Active; 'I' for Inactive)
REMARK    1  A    between atoms: C_2  and  O_13
REMARK    2  A    between atoms: C_3  and  O_7
REMARK    3  A    between atoms: C_4  and  O_9
REMARK    4  A    between atoms: C_5  and  O_11
REMARK    5  A    between atoms: C_6  and  C_19
REMARK    6  A    between atoms: O_13  and  C_14
REMARK    7  A    between atoms: C_15  and  O_17
REMARK    8  A    between atoms: C_19  and  O_20
REMARK                            x       y       z     vdW  Elec       q    Type
REMARK                         _______ _______ _______ _____ _____    ______ ____
ROOT
ATOM      1  O   UNL     1     -36.656  23.280   2.412  0.00  0.00    -0.326 OA
ATOM      2  C   UNL     1     -36.955  24.487   3.117  0.00  0.00    +0.266 C 
ATOM      3  C   UNL     1     -38.274  25.085   2.619  0.00  0.00    +0.196 C 
ATOM      4  C   UNL     1     -39.406  24.064   2.735  0.00  0.00    +0.172 C 
ATOM      5  C   UNL     1     -39.014  22.758   2.036  0.00  0.00    +0.169 C 
ATOM      6  C   UNL     1     -37.659  22.263   2.558  0.00  0.00    +0.176 C 
ENDROOT
BRANCH   3   7
ATOM      7  O   UNL     1     -38.579  26.250   3.380  0.00  0.00    -0.378 OA
ATOM      8  H   UNL     1     -37.764  26.603   3.772  0.00  0.00    +0.211 HD
ENDBRANCH   3   7
BRANCH   4   9
ATOM      9  O   UNL     1     -40.585  24.601   2.140  0.00  0.00    -0.379 OA
ATOM     10  H   UNL     1     -40.340  25.159   1.386  0.00  0.00    +0.211 HD
ENDBRANCH   4   9
BRANCH   5  11
ATOM     11  O   UNL     1     -38.913  22.982   0.627  0.00  0.00    -0.379 OA
ATOM     12  H   UNL     1     -39.232  23.874   0.418  0.00  0.00    +0.211 HD
ENDBRANCH   5  11
BRANCH   2  13
ATOM     13  O   UNL     1     -37.012  24.278   4.528  0.00  0.00    -0.329 OA
BRANCH  13  14
ATOM     14  C   UNL     1     -35.714  24.442   5.161  0.00  0.00    +0.147 C 
ATOM     15  C   UNL     1     -34.764  25.382   4.479  0.00  0.00    +0.140 C 
ATOM     16  C   UNL     1     -35.437  25.792   5.755  0.00  0.00    +0.064 C 
BRANCH  15  17
ATOM     17  O   UNL     1     -33.371  25.049   4.578  0.00  0.00    -0.382 OA
ATOM     18  H   UNL     1     -32.842  25.863   4.565  0.00  0.00    +0.210 HD
ENDBRANCH  15  17
ENDBRANCH  13  14
ENDBRANCH   2  13
BRANCH   6  19
ATOM     19  C   UNL     1     -37.164  21.029   1.810  0.00  0.00    +0.169 C 
BRANCH  19  20
ATOM     20  O   UNL     1     -36.847  20.024   2.755  0.00  0.00    -0.379 OA
ATOM     21  H   UNL     1     -37.664  19.680   3.147  0.00  0.00    +0.211 HD
ENDBRANCH  19  20
ENDBRANCH   6  19
TORSDOF 8
ENDMDL
MODEL 9
REMARK VINA RESULT:      -4.8      2.133      3.620
REMARK  Name = 56842795
REMARK  8 active torsions:
REMARK  status: ('A' for Active; 'I' for Inactive)
REMARK    1  A    between atoms: C_2  and  O_13
REMARK    2  A    between atoms: C_3  and  O_7
REMARK    3  A    between atoms: C_4  and  O_9
REMARK    4  A    between atoms: C_5  and  O_11
REMARK    5  A    between atoms: C_6  and  C_19
REMARK    6  A    between atoms: O_13  and  C_14
REMARK    7  A    between atoms: C_15  and  O_17
REMARK    8  A    between atoms: C_19  and  O_20
REMARK                            x       y       z     vdW  Elec       q    Type
REMARK                         _______ _______ _______ _____ _____    ______ ____
ROOT
ATOM      1  O   UNL     1     -33.657  24.758   3.333  0.00  0.00    -0.326 OA
ATOM      2  C   UNL     1     -34.660  23.887   3.862  0.00  0.00    +0.266 C 
ATOM      3  C   UNL     1     -35.472  24.603   4.944  0.00  0.00    +0.196 C 
ATOM      4  C   UNL     1     -36.076  25.897   4.398  0.00  0.00    +0.172 C 
ATOM      5  C   UNL     1     -34.982  26.766   3.769  0.00  0.00    +0.169 C 
ATOM      6  C   UNL     1     -34.187  25.954   2.738  0.00  0.00    +0.176 C 
ENDROOT
BRANCH   3   7
ATOM      7  O   UNL     1     -36.502  23.735   5.409  0.00  0.00    -0.378 OA
ATOM      8  H   UNL     1     -36.254  23.374   6.275  0.00  0.00    +0.211 HD
ENDBRANCH   3   7
BRANCH   4   9
ATOM      9  O   UNL     1     -36.709  26.605   5.461  0.00  0.00    -0.379 OA
ATOM     10  H   UNL     1     -36.685  27.555   5.274  0.00  0.00    +0.211 HD
ENDBRANCH   4   9
BRANCH   5  11
ATOM     11  O   UNL     1     -34.088  27.221   4.788  0.00  0.00    -0.379 OA
ATOM     12  H   UNL     1     -34.510  27.122   5.656  0.00  0.00    +0.211 HD
ENDBRANCH   5  11
BRANCH   2  13
ATOM     13  O   UNL     1     -35.526  23.393   2.841  0.00  0.00    -0.329 OA
BRANCH  13  14
ATOM     14  C   UNL     1     -35.367  21.965   2.629  0.00  0.00    +0.147 C 
ATOM     15  C   UNL     1     -36.595  21.225   2.188  0.00  0.00    +0.140 C 
ATOM     16  C   UNL     1     -35.490  21.491   1.210  0.00  0.00    +0.064 C 
BRANCH  15  17
ATOM     17  O   UNL     1     -36.714  19.871   2.652  0.00  0.00    -0.382 OA
ATOM     18  H   UNL     1     -35.830  19.478   2.731  0.00  0.00    +0.210 HD
ENDBRANCH  15  17
ENDBRANCH  13  14
ENDBRANCH   2  13
BRANCH   6  19
ATOM     19  C   UNL     1     -33.007  26.735   2.167  0.00  0.00    +0.169 C 
BRANCH  19  20
ATOM     20  O   UNL     1     -31.874  26.503   2.985  0.00  0.00    -0.379 OA
ATOM     21  H   UNL     1     -31.068  26.672   2.474  0.00  0.00    +0.211 HD
ENDBRANCH  19  20
ENDBRANCH   6  19
TORSDOF 8
ENDMDL
