MODEL 1
REMARK VINA RESULT:      -5.1      0.000      0.000
REMARK  Name = 198349
REMARK  10 active torsions:
REMARK  status: ('A' for Active; 'I' for Inactive)
REMARK    1  A    between atoms: N_2  and  C_11
REMARK    2  A    between atoms: C_3  and  C_19
REMARK    3  A    between atoms: C_10  and  C_16
REMARK    4  A    between atoms: C_16  and  O_17
REMARK    5  A    between atoms: C_19  and  S_20
REMARK    6  A    between atoms: S_20  and  C_21
REMARK    7  A    between atoms: C_21  and  C_22
REMARK    8  A    between atoms: C_22  and  N_23
REMARK    9  A    between atoms: C_22  and  C_28
REMARK   10  A    between atoms: C_28  and  O_29
REMARK                            x       y       z     vdW  Elec       q    Type
REMARK                         _______ _______ _______ _____ _____    ______ ____
ROOT
ATOM      1  O   UNK A   0     -36.072  26.234   5.613  0.00  0.00    -0.274 OA
ATOM      2  N   UNK A   1     -34.799  24.326   5.255  0.00  0.00    -0.296 N 
ATOM      3  C   UNK A   0     -34.978  25.674   5.566  0.00  0.00    +0.234 C 
ATOM      4  H   UNK A   1     -33.883  23.965   5.241  0.00  0.00    +0.150 HD
ENDROOT
BRANCH   2  11
ATOM      5  S   UNK A   1     -35.318  24.141   2.234  0.00  0.00    -0.118 S 
ATOM      6  O   UNK A   1     -34.891  21.132   5.425  0.00  0.00    -0.273 OA
ATOM      7  N   UNK A   1     -35.945  21.953   3.479  0.00  0.00    -0.260 N 
ATOM      8  C   UNK A   1     -36.390  23.349   3.490  0.00  0.00    +0.151 C 
ATOM      9  C   UNK A   1     -35.235  22.560   1.253  0.00  0.00    +0.068 C 
ATOM     10  C   UNK A   1     -35.203  21.460   2.336  0.00  0.00    +0.184 C 
ATOM     11  C   UNK A   1     -35.915  23.422   4.948  0.00  0.00    +0.178 C 
ATOM     12  C   UNK A   1     -35.498  21.949   4.768  0.00  0.00    +0.247 C 
ATOM     13  C   UNK A   1     -36.461  22.512   0.331  0.00  0.00    +0.013 C 
ATOM     14  C   UNK A   1     -33.952  22.560   0.419  0.00  0.00    +0.013 C 
BRANCH  10  16
ATOM     15  O   UNK A   2     -35.396  19.418   1.063  0.00  0.00    -0.248 OA
ATOM     16  C   UNK A   1     -35.818  20.156   1.940  0.00  0.00    +0.333 C 
BRANCH  16  17
ATOM     17  O   UNK A   2     -36.919  19.900   2.689  0.00  0.00    -0.479 OA
ATOM     18  H   UNK A   2     -36.881  19.265   3.378  0.00  0.00    +0.295 HD
ENDBRANCH  16  17
ENDBRANCH  10  16
ENDBRANCH   2  11
BRANCH   3  19
ATOM     19  C   UNK A   0     -33.692  26.404   5.864  0.00  0.00    +0.142 C 
BRANCH  19  20
ATOM     20  S   UNK A   1     -33.164  27.293   4.380  0.00  0.00    -0.132 S 
BRANCH  20  21
ATOM     21  C   UNK A   1     -31.664  28.057   5.043  0.00  0.00    +0.047 C 
BRANCH  21  22
ATOM     22  C   UNK A   1     -31.983  29.189   6.020  0.00  0.00    +0.047 C 
BRANCH  22  23
ATOM     23  N   UNK A   1     -30.954  29.259   7.060  0.00  0.00    +0.389 N 
ATOM     24  H   UNK A   1     -30.229  29.919   6.776  0.00  0.00    -0.088 HD
ATOM     25  H   UNK A   1     -30.542  28.336   7.193  0.00  0.00    -0.088 HD
ATOM     26  H   UNK A   1     -31.376  29.574   7.934  0.00  0.00    -0.088 HD
ENDBRANCH  22  23
BRANCH  22  28
ATOM     27  O   UNK A   1     -31.084  31.316   5.301  0.00  0.00    -0.253 OA
ATOM     28  C   UNK A   1     -32.033  30.542   5.336  0.00  0.00    +0.294 C 
BRANCH  28  29
ATOM     29  O   UNK A   1     -33.241  30.836   4.791  0.00  0.00    -0.482 OA
ATOM     30  H   UNK A   1     -33.288  31.223   3.938  0.00  0.00    +0.295 HD
ENDBRANCH  28  29
ENDBRANCH  22  28
ENDBRANCH  21  22
ENDBRANCH  20  21
ENDBRANCH  19  20
ENDBRANCH   3  19
TORSDOF 10
ENDMDL
MODEL 2
REMARK VINA RESULT:      -5.1      3.872      5.117
REMARK  Name = 198349
REMARK  10 active torsions:
REMARK  status: ('A' for Active; 'I' for Inactive)
REMARK    1  A    between atoms: N_2  and  C_11
REMARK    2  A    between atoms: C_3  and  C_19
REMARK    3  A    between atoms: C_10  and  C_16
REMARK    4  A    between atoms: C_16  and  O_17
REMARK    5  A    between atoms: C_19  and  S_20
REMARK    6  A    between atoms: S_20  and  C_21
REMARK    7  A    between atoms: C_21  and  C_22
REMARK    8  A    between atoms: C_22  and  N_23
REMARK    9  A    between atoms: C_22  and  C_28
REMARK   10  A    between atoms: C_28  and  O_29
REMARK                            x       y       z     vdW  Elec       q    Type
REMARK                         _______ _______ _______ _____ _____    ______ ____
ROOT
ATOM      1  O   UNK A   0     -36.217  24.561   0.662  0.00  0.00    -0.274 OA
ATOM      2  N   UNK A   1     -34.780  23.089   1.737  0.00  0.00    -0.296 N 
ATOM      3  C   UNK A   0     -35.243  24.356   1.384  0.00  0.00    +0.234 C 
ATOM      4  H   UNK A   1     -33.990  23.023   2.321  0.00  0.00    +0.150 HD
ENDROOT
BRANCH   2  11
ATOM      5  S   UNK A   1     -33.159  21.733  -0.491  0.00  0.00    -0.118 S 
ATOM      6  O   UNK A   1     -34.994  20.272   3.239  0.00  0.00    -0.273 OA
ATOM      7  N   UNK A   1     -34.477  20.025   0.949  0.00  0.00    -0.260 N 
ATOM      8  C   UNK A   1     -34.802  21.143   0.059  0.00  0.00    +0.151 C 
ATOM      9  C   UNK A   1     -32.459  20.011  -0.377  0.00  0.00    +0.068 C 
ATOM     10  C   UNK A   1     -33.168  19.411   0.858  0.00  0.00    +0.184 C 
ATOM     11  C   UNK A   1     -35.418  21.849   1.275  0.00  0.00    +0.178 C 
ATOM     12  C   UNK A   1     -35.002  20.596   2.072  0.00  0.00    +0.247 C 
ATOM     13  C   UNK A   1     -32.762  19.290  -1.698  0.00  0.00    +0.013 C 
ATOM     14  C   UNK A   1     -30.948  20.102  -0.163  0.00  0.00    +0.013 C 
BRANCH  10  16
ATOM     15  O   UNK A   2     -32.501  17.094   0.979  0.00  0.00    -0.248 OA
ATOM     16  C   UNK A   1     -33.377  17.931   0.818  0.00  0.00    +0.333 C 
BRANCH  16  17
ATOM     17  O   UNK A   2     -34.677  17.638   0.573  0.00  0.00    -0.479 OA
ATOM     18  H   UNK A   2     -34.906  16.836   0.146  0.00  0.00    +0.295 HD
ENDBRANCH  16  17
ENDBRANCH  10  16
ENDBRANCH   2  11
BRANCH   3  19
ATOM     19  C   UNK A   0     -34.444  25.484   1.989  0.00  0.00    +0.142 C 
BRANCH  19  20
ATOM     20  S   UNK A   1     -35.503  26.412   3.123  0.00  0.00    -0.132 S 
BRANCH  20  21
ATOM     21  C   UNK A   1     -34.977  25.643   4.673  0.00  0.00    +0.047 C 
BRANCH  21  22
ATOM     22  C   UNK A   1     -36.077  24.771   5.281  0.00  0.00    +0.047 C 
BRANCH  22  23
ATOM     23  N   UNK A   1     -37.338  24.985   4.568  0.00  0.00    +0.389 N 
ATOM     24  H   UNK A   1     -38.065  24.399   4.980  0.00  0.00    -0.088 HD
ATOM     25  H   UNK A   1     -37.219  24.740   3.586  0.00  0.00    -0.088 HD
ATOM     26  H   UNK A   1     -37.609  25.966   4.644  0.00  0.00    -0.088 HD
ENDBRANCH  22  23
BRANCH  22  28
ATOM     27  O   UNK A   1     -34.805  22.775   5.780  0.00  0.00    -0.253 OA
ATOM     28  C   UNK A   1     -35.751  23.293   5.197  0.00  0.00    +0.294 C 
BRANCH  28  29
ATOM     29  O   UNK A   1     -36.585  22.593   4.386  0.00  0.00    -0.482 OA
ATOM     30  H   UNK A   1     -36.939  21.773   4.673  0.00  0.00    +0.295 HD
ENDBRANCH  28  29
ENDBRANCH  22  28
ENDBRANCH  21  22
ENDBRANCH  20  21
ENDBRANCH  19  20
ENDBRANCH   3  19
TORSDOF 10
ENDMDL
MODEL 3
REMARK VINA RESULT:      -5.0      2.342      3.183
REMARK  Name = 198349
REMARK  10 active torsions:
REMARK  status: ('A' for Active; 'I' for Inactive)
REMARK    1  A    between atoms: N_2  and  C_11
REMARK    2  A    between atoms: C_3  and  C_19
REMARK    3  A    between atoms: C_10  and  C_16
REMARK    4  A    between atoms: C_16  and  O_17
REMARK    5  A    between atoms: C_19  and  S_20
REMARK    6  A    between atoms: S_20  and  C_21
REMARK    7  A    between atoms: C_21  and  C_22
REMARK    8  A    between atoms: C_22  and  N_23
REMARK    9  A    between atoms: C_22  and  C_28
REMARK   10  A    between atoms: C_28  and  O_29
REMARK                            x       y       z     vdW  Elec       q    Type
REMARK                         _______ _______ _______ _____ _____    ______ ____
ROOT
ATOM      1  O   UNK A   0     -35.199  29.225   3.138  0.00  0.00    -0.274 OA
ATOM      2  N   UNK A   1     -34.278  27.096   3.042  0.00  0.00    -0.296 N 
ATOM      3  C   UNK A   0     -34.377  28.438   2.673  0.00  0.00    +0.234 C 
ATOM      4  H   UNK A   1     -33.587  26.540   2.614  0.00  0.00    +0.150 HD
ENDROOT
BRANCH   2  11
ATOM      5  S   UNK A   1     -35.900  24.779   1.847  0.00  0.00    -0.118 S 
ATOM      6  O   UNK A   1     -33.496  25.221   5.513  0.00  0.00    -0.273 OA
ATOM      7  N   UNK A   1     -35.409  24.441   4.371  0.00  0.00    -0.260 N 
ATOM      8  C   UNK A   1     -36.145  25.405   3.549  0.00  0.00    +0.151 C 
ATOM      9  C   UNK A   1     -35.825  23.022   2.462  0.00  0.00    +0.068 C 
ATOM     10  C   UNK A   1     -35.089  23.141   3.815  0.00  0.00    +0.184 C 
ATOM     11  C   UNK A   1     -35.161  26.476   4.039  0.00  0.00    +0.178 C 
ATOM     12  C   UNK A   1     -34.498  25.340   4.843  0.00  0.00    +0.247 C 
ATOM     13  C   UNK A   1     -37.264  22.497   2.563  0.00  0.00    +0.013 C 
ATOM     14  C   UNK A   1     -35.028  22.180   1.465  0.00  0.00    +0.013 C 
BRANCH  10  16
ATOM     15  O   UNK A   2     -35.122  20.946   4.819  0.00  0.00    -0.248 OA
ATOM     16  C   UNK A   1     -35.465  22.119   4.839  0.00  0.00    +0.333 C 
BRANCH  16  17
ATOM     17  O   UNK A   2     -36.249  22.669   5.798  0.00  0.00    -0.479 OA
ATOM     18  H   UNK A   2     -36.402  23.593   5.807  0.00  0.00    +0.295 HD
ENDBRANCH  16  17
ENDBRANCH  10  16
ENDBRANCH   2  11
BRANCH   3  19
ATOM     19  C   UNK A   0     -33.356  28.860   1.645  0.00  0.00    +0.142 C 
BRANCH  19  20
ATOM     20  S   UNK A   1     -32.504  30.341   2.237  0.00  0.00    -0.132 S 
BRANCH  20  21
ATOM     21  C   UNK A   1     -31.257  29.538   3.273  0.00  0.00    +0.047 C 
BRANCH  21  22
ATOM     22  C   UNK A   1     -31.528  29.752   4.763  0.00  0.00    +0.047 C 
BRANCH  22  23
ATOM     23  N   UNK A   1     -32.827  30.402   4.949  0.00  0.00    +0.389 N 
ATOM     24  H   UNK A   1     -33.570  29.707   4.862  0.00  0.00    -0.088 HD
ATOM     25  H   UNK A   1     -32.951  31.122   4.238  0.00  0.00    -0.088 HD
ATOM     26  H   UNK A   1     -32.865  30.826   5.875  0.00  0.00    -0.088 HD
ENDBRANCH  22  23
BRANCH  22  28
ATOM     27  O   UNK A   1     -30.555  27.783   5.777  0.00  0.00    -0.253 OA
ATOM     28  C   UNK A   1     -31.556  28.447   5.535  0.00  0.00    +0.294 C 
BRANCH  28  29
ATOM     29  O   UNK A   1     -32.803  28.057   5.907  0.00  0.00    -0.482 OA
ATOM     30  H   UNK A   1     -32.946  27.702   6.763  0.00  0.00    +0.295 HD
ENDBRANCH  28  29
ENDBRANCH  22  28
ENDBRANCH  21  22
ENDBRANCH  20  21
ENDBRANCH  19  20
ENDBRANCH   3  19
TORSDOF 10
ENDMDL
MODEL 4
REMARK VINA RESULT:      -5.0      3.324      6.937
REMARK  Name = 198349
REMARK  10 active torsions:
REMARK  status: ('A' for Active; 'I' for Inactive)
REMARK    1  A    between atoms: N_2  and  C_11
REMARK    2  A    between atoms: C_3  and  C_19
REMARK    3  A    between atoms: C_10  and  C_16
REMARK    4  A    between atoms: C_16  and  O_17
REMARK    5  A    between atoms: C_19  and  S_20
REMARK    6  A    between atoms: S_20  and  C_21
REMARK    7  A    between atoms: C_21  and  C_22
REMARK    8  A    between atoms: C_22  and  N_23
REMARK    9  A    between atoms: C_22  and  C_28
REMARK   10  A    between atoms: C_28  and  O_29
REMARK                            x       y       z     vdW  Elec       q    Type
REMARK                         _______ _______ _______ _____ _____    ______ ____
ROOT
ATOM      1  O   UNK A   0     -37.250  20.725   1.171  0.00  0.00    -0.274 OA
ATOM      2  N   UNK A   1     -37.535  22.292   2.858  0.00  0.00    -0.296 N 
ATOM      3  C   UNK A   0     -37.984  21.440   1.850  0.00  0.00    +0.234 C 
ATOM      4  H   UNK A   1     -38.199  22.829   3.351  0.00  0.00    +0.150 HD
ENDROOT
BRANCH   2  11
ATOM      5  S   UNK A   1     -36.184  24.591   1.335  0.00  0.00    -0.118 S 
ATOM      6  O   UNK A   1     -36.258  23.397   5.576  0.00  0.00    -0.273 OA
ATOM      7  N   UNK A   1     -35.120  24.193   3.667  0.00  0.00    -0.260 N 
ATOM      8  C   UNK A   1     -35.275  23.433   2.424  0.00  0.00    +0.151 C 
ATOM      9  C   UNK A   1     -35.375  26.056   2.153  0.00  0.00    +0.068 C 
ATOM     10  C   UNK A   1     -35.270  25.634   3.635  0.00  0.00    +0.184 C 
ATOM     11  C   UNK A   1     -36.118  22.426   3.218  0.00  0.00    +0.178 C 
ATOM     12  C   UNK A   1     -35.863  23.342   4.433  0.00  0.00    +0.247 C 
ATOM     13  C   UNK A   1     -34.027  26.297   1.462  0.00  0.00    +0.013 C 
ATOM     14  C   UNK A   1     -36.277  27.280   1.984  0.00  0.00    +0.013 C 
BRANCH  10  16
ATOM     15  O   UNK A   2     -33.971  27.399   4.647  0.00  0.00    -0.248 OA
ATOM     16  C   UNK A   1     -34.114  26.215   4.384  0.00  0.00    +0.333 C 
BRANCH  16  17
ATOM     17  O   UNK A   2     -33.234  25.244   4.733  0.00  0.00    -0.479 OA
ATOM     18  H   UNK A   2     -32.604  25.402   5.408  0.00  0.00    +0.295 HD
ENDBRANCH  16  17
ENDBRANCH  10  16
ENDBRANCH   2  11
BRANCH   3  19
ATOM     19  C   UNK A   0     -39.481  21.452   1.667  0.00  0.00    +0.142 C 
BRANCH  19  20
ATOM     20  S   UNK A   1     -39.903  22.623   0.355  0.00  0.00    -0.132 S 
BRANCH  20  21
ATOM     21  C   UNK A   1     -40.696  23.892   1.373  0.00  0.00    +0.047 C 
BRANCH  21  22
ATOM     22  C   UNK A   1     -39.800  25.117   1.560  0.00  0.00    +0.047 C 
BRANCH  22  23
ATOM     23  N   UNK A   1     -40.425  26.294   0.951  0.00  0.00    +0.389 N 
ATOM     24  H   UNK A   1     -39.831  26.642   0.197  0.00  0.00    -0.088 HD
ATOM     25  H   UNK A   1     -40.541  27.021   1.656  0.00  0.00    -0.088 HD
ATOM     26  H   UNK A   1     -41.337  26.037   0.573  0.00  0.00    -0.088 HD
ENDBRANCH  22  23
BRANCH  22  28
ATOM     27  O   UNK A   1     -38.919  24.710   3.775  0.00  0.00    -0.253 OA
ATOM     28  C   UNK A   1     -39.560  25.435   3.023  0.00  0.00    +0.294 C 
BRANCH  28  29
ATOM     29  O   UNK A   1     -40.150  26.585   3.438  0.00  0.00    -0.482 OA
ATOM     30  H   UNK A   1     -40.227  27.311   2.850  0.00  0.00    +0.295 HD
ENDBRANCH  28  29
ENDBRANCH  22  28
ENDBRANCH  21  22
ENDBRANCH  20  21
ENDBRANCH  19  20
ENDBRANCH   3  19
TORSDOF 10
ENDMDL
MODEL 5
REMARK VINA RESULT:      -4.8      5.765      7.343
REMARK  Name = 198349
REMARK  10 active torsions:
REMARK  status: ('A' for Active; 'I' for Inactive)
REMARK    1  A    between atoms: N_2  and  C_11
REMARK    2  A    between atoms: C_3  and  C_19
REMARK    3  A    between atoms: C_10  and  C_16
REMARK    4  A    between atoms: C_16  and  O_17
REMARK    5  A    between atoms: C_19  and  S_20
REMARK    6  A    between atoms: S_20  and  C_21
REMARK    7  A    between atoms: C_21  and  C_22
REMARK    8  A    between atoms: C_22  and  N_23
REMARK    9  A    between atoms: C_22  and  C_28
REMARK   10  A    between atoms: C_28  and  O_29
REMARK                            x       y       z     vdW  Elec       q    Type
REMARK                         _______ _______ _______ _____ _____    ______ ____
ROOT
ATOM      1  O   UNK A   0     -40.652  26.920   1.961  0.00  0.00    -0.274 OA
ATOM      2  N   UNK A   1     -40.012  24.984   3.069  0.00  0.00    -0.296 N 
ATOM      3  C   UNK A   0     -40.726  26.174   2.936  0.00  0.00    +0.234 C 
ATOM      4  H   UNK A   1     -40.135  24.451   3.888  0.00  0.00    +0.150 HD
ENDROOT
BRANCH   2  11
ATOM      5  S   UNK A   1     -37.082  25.294   3.937  0.00  0.00    -0.118 S 
ATOM      6  O   UNK A   1     -39.396  21.962   2.216  0.00  0.00    -0.273 OA
ATOM      7  N   UNK A   1     -37.434  23.267   2.357  0.00  0.00    -0.260 N 
ATOM      8  C   UNK A   1     -37.584  24.722   2.271  0.00  0.00    +0.151 C 
ATOM      9  C   UNK A   1     -35.885  23.878   4.105  0.00  0.00    +0.068 C 
ATOM     10  C   UNK A   1     -36.607  22.705   3.406  0.00  0.00    +0.184 C 
ATOM     11  C   UNK A   1     -39.083  24.491   2.043  0.00  0.00    +0.178 C 
ATOM     12  C   UNK A   1     -38.756  22.989   2.164  0.00  0.00    +0.247 C 
ATOM     13  C   UNK A   1     -34.563  24.296   3.447  0.00  0.00    +0.013 C 
ATOM     14  C   UNK A   1     -35.662  23.589   5.591  0.00  0.00    +0.013 C 
BRANCH  10  16
ATOM     15  O   UNK A   2     -35.105  21.855   1.718  0.00  0.00    -0.248 OA
ATOM     16  C   UNK A   1     -35.711  21.693   2.766  0.00  0.00    +0.333 C 
BRANCH  16  17
ATOM     17  O   UNK A   2     -35.662  20.561   3.509  0.00  0.00    -0.479 OA
ATOM     18  H   UNK A   2     -34.847  20.273   3.873  0.00  0.00    +0.295 HD
ENDBRANCH  16  17
ENDBRANCH  10  16
ENDBRANCH   2  11
BRANCH   3  19
ATOM     19  C   UNK A   0     -41.632  26.472   4.105  0.00  0.00    +0.142 C 
BRANCH  19  20
ATOM     20  S   UNK A   1     -43.034  27.457   3.526  0.00  0.00    -0.132 S 
BRANCH  20  21
ATOM     21  C   UNK A   1     -42.681  28.984   4.429  0.00  0.00    +0.047 C 
BRANCH  21  22
ATOM     22  C   UNK A   1     -43.930  29.549   5.107  0.00  0.00    +0.047 C 
BRANCH  22  23
ATOM     23  N   UNK A   1     -44.776  28.456   5.591  0.00  0.00    +0.389 N 
ATOM     24  H   UNK A   1     -45.398  28.150   4.842  0.00  0.00    -0.088 HD
ATOM     25  H   UNK A   1     -45.330  28.779   6.384  0.00  0.00    -0.088 HD
ATOM     26  H   UNK A   1     -44.188  27.675   5.883  0.00  0.00    -0.088 HD
ENDBRANCH  22  23
BRANCH  22  28
ATOM     27  O   UNK A   1     -43.503  30.002   7.444  0.00  0.00    -0.253 OA
ATOM     28  C   UNK A   1     -43.592  30.425   6.297  0.00  0.00    +0.294 C 
BRANCH  28  29
ATOM     29  O   UNK A   1     -43.428  31.736   5.984  0.00  0.00    -0.482 OA
ATOM     30  H   UNK A   1     -43.287  32.366   6.664  0.00  0.00    +0.295 HD
ENDBRANCH  28  29
ENDBRANCH  22  28
ENDBRANCH  21  22
ENDBRANCH  20  21
ENDBRANCH  19  20
ENDBRANCH   3  19
TORSDOF 10
ENDMDL
MODEL 6
REMARK VINA RESULT:      -4.8      3.226      7.458
REMARK  Name = 198349
REMARK  10 active torsions:
REMARK  status: ('A' for Active; 'I' for Inactive)
REMARK    1  A    between atoms: N_2  and  C_11
REMARK    2  A    between atoms: C_3  and  C_19
REMARK    3  A    between atoms: C_10  and  C_16
REMARK    4  A    between atoms: C_16  and  O_17
REMARK    5  A    between atoms: C_19  and  S_20
REMARK    6  A    between atoms: S_20  and  C_21
REMARK    7  A    between atoms: C_21  and  C_22
REMARK    8  A    between atoms: C_22  and  N_23
REMARK    9  A    between atoms: C_22  and  C_28
REMARK   10  A    between atoms: C_28  and  O_29
REMARK                            x       y       z     vdW  Elec       q    Type
REMARK                         _______ _______ _______ _____ _____    ______ ____
ROOT
ATOM      1  O   UNK A   0     -36.096  20.134   1.159  0.00  0.00    -0.274 OA
ATOM      2  N   UNK A   1     -35.855  22.417   0.813  0.00  0.00    -0.296 N 
ATOM      3  C   UNK A   0     -36.339  21.146   0.504  0.00  0.00    +0.234 C 
ATOM      4  H   UNK A   1     -36.102  23.170   0.229  0.00  0.00    +0.150 HD
ENDROOT
BRANCH   2  11
ATOM      5  S   UNK A   1     -35.027  25.370   0.967  0.00  0.00    -0.118 S 
ATOM      6  O   UNK A   1     -36.642  22.518   3.913  0.00  0.00    -0.273 OA
ATOM      7  N   UNK A   1     -35.170  24.262   3.308  0.00  0.00    -0.260 N 
ATOM      8  C   UNK A   1     -34.373  24.081   2.092  0.00  0.00    +0.151 C 
ATOM      9  C   UNK A   1     -35.405  26.489   2.407  0.00  0.00    +0.068 C 
ATOM     10  C   UNK A   1     -35.867  25.515   3.514  0.00  0.00    +0.184 C 
ATOM     11  C   UNK A   1     -34.991  22.681   1.971  0.00  0.00    +0.178 C 
ATOM     12  C   UNK A   1     -35.761  23.032   3.260  0.00  0.00    +0.247 C 
ATOM     13  C   UNK A   1     -34.130  27.275   2.741  0.00  0.00    +0.013 C 
ATOM     14  C   UNK A   1     -36.525  27.451   2.008  0.00  0.00    +0.013 C 
BRANCH  10  16
ATOM     15  O   UNK A   2     -34.566  25.681   5.541  0.00  0.00    -0.248 OA
ATOM     16  C   UNK A   1     -35.577  25.956   4.913  0.00  0.00    +0.333 C 
BRANCH  16  17
ATOM     17  O   UNK A   2     -36.598  26.704   5.399  0.00  0.00    -0.479 OA
ATOM     18  H   UNK A   2     -37.129  26.376   6.098  0.00  0.00    +0.295 HD
ENDBRANCH  16  17
ENDBRANCH  10  16
ENDBRANCH   2  11
BRANCH   3  19
ATOM     19  C   UNK A   0     -37.221  21.115  -0.720  0.00  0.00    +0.142 C 
BRANCH  19  20
ATOM     20  S   UNK A   1     -38.822  20.402  -0.271  0.00  0.00    -0.132 S 
BRANCH  20  21
ATOM     21  C   UNK A   1     -39.708  21.938   0.092  0.00  0.00    +0.047 C 
BRANCH  21  22
ATOM     22  C   UNK A   1     -39.741  22.238   1.591  0.00  0.00    +0.047 C 
BRANCH  22  23
ATOM     23  N   UNK A   1     -39.036  21.187   2.329  0.00  0.00    +0.389 N 
ATOM     24  H   UNK A   1     -39.287  20.275   1.944  0.00  0.00    -0.088 HD
ATOM     25  H   UNK A   1     -39.301  21.226   3.312  0.00  0.00    -0.088 HD
ATOM     26  H   UNK A   1     -38.030  21.327   2.241  0.00  0.00    -0.088 HD
ENDBRANCH  22  23
BRANCH  22  28
ATOM     27  O   UNK A   1     -38.395  24.194   1.130  0.00  0.00    -0.253 OA
ATOM     28  C   UNK A   1     -39.073  23.557   1.928  0.00  0.00    +0.294 C 
BRANCH  28  29
ATOM     29  O   UNK A   1     -39.266  23.957   3.211  0.00  0.00    -0.482 OA
ATOM     30  H   UNK A   1     -39.901  23.521   3.747  0.00  0.00    +0.295 HD
ENDBRANCH  28  29
ENDBRANCH  22  28
ENDBRANCH  21  22
ENDBRANCH  20  21
ENDBRANCH  19  20
ENDBRANCH   3  19
TORSDOF 10
ENDMDL
MODEL 7
REMARK VINA RESULT:      -4.7      2.854      3.624
REMARK  Name = 198349
REMARK  10 active torsions:
REMARK  status: ('A' for Active; 'I' for Inactive)
REMARK    1  A    between atoms: N_2  and  C_11
REMARK    2  A    between atoms: C_3  and  C_19
REMARK    3  A    between atoms: C_10  and  C_16
REMARK    4  A    between atoms: C_16  and  O_17
REMARK    5  A    between atoms: C_19  and  S_20
REMARK    6  A    between atoms: S_20  and  C_21
REMARK    7  A    between atoms: C_21  and  C_22
REMARK    8  A    between atoms: C_22  and  N_23
REMARK    9  A    between atoms: C_22  and  C_28
REMARK   10  A    between atoms: C_28  and  O_29
REMARK                            x       y       z     vdW  Elec       q    Type
REMARK                         _______ _______ _______ _____ _____    ______ ____
ROOT
ATOM      1  O   UNK A   0     -38.883  26.283   0.750  0.00  0.00    -0.274 OA
ATOM      2  N   UNK A   1     -37.202  25.420   2.098  0.00  0.00    -0.296 N 
ATOM      3  C   UNK A   0     -37.823  26.425   1.357  0.00  0.00    +0.234 C 
ATOM      4  H   UNK A   1     -36.352  25.627   2.551  0.00  0.00    +0.150 HD
ENDROOT
BRANCH   2  11
ATOM      5  S   UNK A   1     -36.065  23.504  -0.015  0.00  0.00    -0.118 S 
ATOM      6  O   UNK A   1     -36.605  23.226   4.349  0.00  0.00    -0.273 OA
ATOM      7  N   UNK A   1     -36.693  22.285   2.186  0.00  0.00    -0.260 N 
ATOM      8  C   UNK A   1     -37.400  23.041   1.149  0.00  0.00    +0.151 C 
ATOM      9  C   UNK A   1     -35.125  21.946   0.382  0.00  0.00    +0.068 C 
ATOM     10  C   UNK A   1     -35.383  21.740   1.890  0.00  0.00    +0.184 C 
ATOM     11  C   UNK A   1     -37.759  24.068   2.232  0.00  0.00    +0.178 C 
ATOM     12  C   UNK A   1     -36.971  23.159   3.197  0.00  0.00    +0.247 C 
ATOM     13  C   UNK A   1     -35.667  20.826  -0.517  0.00  0.00    +0.013 C 
ATOM     14  C   UNK A   1     -33.640  22.176   0.096  0.00  0.00    +0.013 C 
BRANCH  10  16
ATOM     15  O   UNK A   2     -34.391  19.614   2.461  0.00  0.00    -0.248 OA
ATOM     16  C   UNK A   1     -35.384  20.316   2.349  0.00  0.00    +0.333 C 
BRANCH  16  17
ATOM     17  O   UNK A   2     -36.646  19.903   2.623  0.00  0.00    -0.479 OA
ATOM     18  H   UNK A   2     -37.077  19.299   2.050  0.00  0.00    +0.295 HD
ENDBRANCH  16  17
ENDBRANCH  10  16
ENDBRANCH   2  11
BRANCH   3  19
ATOM     19  C   UNK A   0     -37.081  27.739   1.375  0.00  0.00    +0.142 C 
BRANCH  19  20
ATOM     20  S   UNK A   1     -35.304  27.410   1.305  0.00  0.00    -0.132 S 
BRANCH  20  21
ATOM     21  C   UNK A   1     -34.867  27.937   2.980  0.00  0.00    +0.047 C 
BRANCH  21  22
ATOM     22  C   UNK A   1     -34.146  26.834   3.757  0.00  0.00    +0.047 C 
BRANCH  22  23
ATOM     23  N   UNK A   1     -32.888  27.347   4.304  0.00  0.00    +0.389 N 
ATOM     24  H   UNK A   1     -32.761  26.993   5.253  0.00  0.00    -0.088 HD
ATOM     25  H   UNK A   1     -32.914  28.366   4.321  0.00  0.00    -0.088 HD
ATOM     26  H   UNK A   1     -32.112  27.036   3.719  0.00  0.00    -0.088 HD
ENDBRANCH  22  23
BRANCH  22  28
ATOM     27  O   UNK A   1     -34.481  25.893   5.960  0.00  0.00    -0.253 OA
ATOM     28  C   UNK A   1     -34.971  26.317   4.920  0.00  0.00    +0.294 C 
BRANCH  28  29
ATOM     29  O   UNK A   1     -36.310  26.333   4.691  0.00  0.00    -0.482 OA
ATOM     30  H   UNK A   1     -36.886  26.734   5.312  0.00  0.00    +0.295 HD
ENDBRANCH  28  29
ENDBRANCH  22  28
ENDBRANCH  21  22
ENDBRANCH  20  21
ENDBRANCH  19  20
ENDBRANCH   3  19
TORSDOF 10
ENDMDL
MODEL 8
REMARK VINA RESULT:      -4.7      5.114      7.405
REMARK  Name = 198349
REMARK  10 active torsions:
REMARK  status: ('A' for Active; 'I' for Inactive)
REMARK    1  A    between atoms: N_2  and  C_11
REMARK    2  A    between atoms: C_3  and  C_19
REMARK    3  A    between atoms: C_10  and  C_16
REMARK    4  A    between atoms: C_16  and  O_17
REMARK    5  A    between atoms: C_19  and  S_20
REMARK    6  A    between atoms: S_20  and  C_21
REMARK    7  A    between atoms: C_21  and  C_22
REMARK    8  A    between atoms: C_22  and  N_23
REMARK    9  A    between atoms: C_22  and  C_28
REMARK   10  A    between atoms: C_28  and  O_29
REMARK                            x       y       z     vdW  Elec       q    Type
REMARK                         _______ _______ _______ _____ _____    ______ ____
ROOT
ATOM      1  O   UNK A   0     -40.624  24.675   0.236  0.00  0.00    -0.274 OA
ATOM      2  N   UNK A   1     -38.816  25.697   1.271  0.00  0.00    -0.296 N 
ATOM      3  C   UNK A   0     -40.127  25.649   0.799  0.00  0.00    +0.234 C 
ATOM      4  H   UNK A   1     -38.504  26.522   1.710  0.00  0.00    +0.150 HD
ENDROOT
BRANCH   2  11
ATOM      5  S   UNK A   1     -36.255  26.155   2.903  0.00  0.00    -0.118 S 
ATOM      6  O   UNK A   1     -39.036  22.758   2.517  0.00  0.00    -0.273 OA
ATOM      7  N   UNK A   1     -36.852  23.640   2.689  0.00  0.00    -0.260 N 
ATOM      8  C   UNK A   1     -36.490  24.729   1.779  0.00  0.00    +0.151 C 
ATOM      9  C   UNK A   1     -35.668  25.031   4.268  0.00  0.00    +0.068 C 
ATOM     10  C   UNK A   1     -36.540  23.767   4.099  0.00  0.00    +0.184 C 
ATOM     11  C   UNK A   1     -37.879  24.573   1.143  0.00  0.00    +0.178 C 
ATOM     12  C   UNK A   1     -38.102  23.450   2.175  0.00  0.00    +0.247 C 
ATOM     13  C   UNK A   1     -34.164  24.798   4.073  0.00  0.00    +0.013 C 
ATOM     14  C   UNK A   1     -35.924  25.709   5.614  0.00  0.00    +0.013 C 
BRANCH  10  16
ATOM     15  O   UNK A   2     -35.307  21.715   3.783  0.00  0.00    -0.248 OA
ATOM     16  C   UNK A   1     -35.897  22.486   4.525  0.00  0.00    +0.333 C 
BRANCH  16  17
ATOM     17  O   UNK A   2     -36.060  22.289   5.856  0.00  0.00    -0.479 OA
ATOM     18  H   UNK A   2     -36.866  21.941   6.184  0.00  0.00    +0.295 HD
ENDBRANCH  16  17
ENDBRANCH  10  16
ENDBRANCH   2  11
BRANCH   3  19
ATOM     19  C   UNK A   0     -40.911  26.911   1.057  0.00  0.00    +0.142 C 
BRANCH  19  20
ATOM     20  S   UNK A   1     -42.608  26.469   1.501  0.00  0.00    -0.132 S 
BRANCH  20  21
ATOM     21  C   UNK A   1     -43.167  28.090   2.077  0.00  0.00    +0.047 C 
BRANCH  21  22
ATOM     22  C   UNK A   1     -43.613  28.055   3.539  0.00  0.00    +0.047 C 
BRANCH  22  23
ATOM     23  N   UNK A   1     -43.957  26.685   3.926  0.00  0.00    +0.389 N 
ATOM     24  H   UNK A   1     -44.587  26.283   3.230  0.00  0.00    -0.088 HD
ATOM     25  H   UNK A   1     -44.417  26.694   4.836  0.00  0.00    -0.088 HD
ATOM     26  H   UNK A   1     -43.107  26.123   3.979  0.00  0.00    -0.088 HD
ENDBRANCH  22  23
BRANCH  22  28
ATOM     27  O   UNK A   1     -42.645  29.521   5.201  0.00  0.00    -0.253 OA
ATOM     28  C   UNK A   1     -42.527  28.536   4.483  0.00  0.00    +0.294 C 
BRANCH  28  29
ATOM     29  O   UNK A   1     -41.391  27.793   4.435  0.00  0.00    -0.482 OA
ATOM     30  H   UNK A   1     -40.916  27.716   3.630  0.00  0.00    +0.295 HD
ENDBRANCH  28  29
ENDBRANCH  22  28
ENDBRANCH  21  22
ENDBRANCH  20  21
ENDBRANCH  19  20
ENDBRANCH   3  19
TORSDOF 10
ENDMDL
MODEL 9
REMARK VINA RESULT:      -4.7      3.511      4.849
REMARK  Name = 198349
REMARK  10 active torsions:
REMARK  status: ('A' for Active; 'I' for Inactive)
REMARK    1  A    between atoms: N_2  and  C_11
REMARK    2  A    between atoms: C_3  and  C_19
REMARK    3  A    between atoms: C_10  and  C_16
REMARK    4  A    between atoms: C_16  and  O_17
REMARK    5  A    between atoms: C_19  and  S_20
REMARK    6  A    between atoms: S_20  and  C_21
REMARK    7  A    between atoms: C_21  and  C_22
REMARK    8  A    between atoms: C_22  and  N_23
REMARK    9  A    between atoms: C_22  and  C_28
REMARK   10  A    between atoms: C_28  and  O_29
REMARK                            x       y       z     vdW  Elec       q    Type
REMARK                         _______ _______ _______ _____ _____    ______ ____
ROOT
ATOM      1  O   UNK A   0     -35.049  27.303   0.369  0.00  0.00    -0.274 OA
ATOM      2  N   UNK A   1     -35.913  25.742   1.854  0.00  0.00    -0.296 N 
ATOM      3  C   UNK A   0     -34.937  26.622   1.387  0.00  0.00    +0.234 C 
ATOM      4  H   UNK A   1     -35.735  25.237   2.680  0.00  0.00    +0.150 HD
ENDROOT
BRANCH   2  11
ATOM      5  S   UNK A   1     -36.090  22.952   0.582  0.00  0.00    -0.118 S 
ATOM      6  O   UNK A   1     -38.815  25.299   3.128  0.00  0.00    -0.273 OA
ATOM      7  N   UNK A   1     -38.411  23.856   1.304  0.00  0.00    -0.260 N 
ATOM      8  C   UNK A   1     -37.366  24.245   0.354  0.00  0.00    +0.151 C 
ATOM      9  C   UNK A   1     -37.390  21.689   1.007  0.00  0.00    +0.068 C 
ATOM     10  C   UNK A   1     -38.436  22.497   1.806  0.00  0.00    +0.184 C 
ATOM     11  C   UNK A   1     -37.196  25.535   1.167  0.00  0.00    +0.178 C 
ATOM     12  C   UNK A   1     -38.309  24.977   2.076  0.00  0.00    +0.247 C 
ATOM     13  C   UNK A   1     -37.914  21.091  -0.306  0.00  0.00    +0.013 C 
ATOM     14  C   UNK A   1     -36.756  20.593   1.866  0.00  0.00    +0.013 C 
BRANCH  10  16
ATOM     15  O   UNK A   2     -40.703  22.505   0.975  0.00  0.00    -0.248 OA
ATOM     16  C   UNK A   1     -39.845  22.009   1.690  0.00  0.00    +0.333 C 
BRANCH  16  17
ATOM     17  O   UNK A   2     -40.047  20.936   2.493  0.00  0.00    -0.479 OA
ATOM     18  H   UNK A   2     -39.492  20.184   2.421  0.00  0.00    +0.295 HD
ENDBRANCH  16  17
ENDBRANCH  10  16
ENDBRANCH   2  11
BRANCH   3  19
ATOM     19  C   UNK A   0     -33.710  26.685   2.261  0.00  0.00    +0.142 C 
BRANCH  19  20
ATOM     20  S   UNK A   1     -34.160  27.417   3.853  0.00  0.00    -0.132 S 
BRANCH  20  21
ATOM     21  C   UNK A   1     -33.972  25.946   4.888  0.00  0.00    +0.047 C 
BRANCH  21  22
ATOM     22  C   UNK A   1     -35.262  25.604   5.636  0.00  0.00    +0.047 C 
BRANCH  22  23
ATOM     23  N   UNK A   1     -36.360  26.444   5.151  0.00  0.00    +0.389 N 
ATOM     24  H   UNK A   1     -37.143  26.389   5.804  0.00  0.00    -0.088 HD
ATOM     25  H   UNK A   1     -36.658  26.116   4.233  0.00  0.00    -0.088 HD
ATOM     26  H   UNK A   1     -36.043  27.411   5.082  0.00  0.00    -0.088 HD
ENDBRANCH  22  23
BRANCH  22  28
ATOM     27  O   UNK A   1     -35.151  23.221   6.033  0.00  0.00    -0.253 OA
ATOM     28  C   UNK A   1     -35.673  24.158   5.441  0.00  0.00    +0.294 C 
BRANCH  28  29
ATOM     29  O   UNK A   1     -36.656  23.987   4.520  0.00  0.00    -0.482 OA
ATOM     30  H   UNK A   1     -36.465  23.567   3.704  0.00  0.00    +0.295 HD
ENDBRANCH  28  29
ENDBRANCH  22  28
ENDBRANCH  21  22
ENDBRANCH  20  21
ENDBRANCH  19  20
ENDBRANCH   3  19
TORSDOF 10
ENDMDL
