MODEL 1
REMARK VINA RESULT:      -6.7      0.000      0.000
REMARK  Name = 196985
REMARK  8 active torsions:
REMARK  status: ('A' for Active; 'I' for Inactive)
REMARK    1  A    between atoms: C_5  and  C_21
REMARK    2  A    between atoms: C_8  and  O_15
REMARK    3  A    between atoms: C_11  and  C_18
REMARK    4  A    between atoms: C_18  and  O_19
REMARK    5  A    between atoms: C_21  and  O_22
REMARK    6  A    between atoms: O_22  and  C_24
REMARK    7  A    between atoms: C_24  and  C_25
REMARK    8  A    between atoms: C_25  and  O_26
REMARK                            x       y       z     vdW  Elec       q    Type
REMARK                         _______ _______ _______ _____ _____    ______ ____
ROOT
ATOM      1  N   UNL     1     -37.673  25.131   4.024  0.00  0.00    -0.397 NA
ATOM      2  N   UNL     1     -37.809  22.635   2.867  0.00  0.00    -0.393 NA
ATOM      3  C   UNL     1     -36.738  24.207   4.296  0.00  0.00    +0.163 C 
ATOM      4  C   UNL     1     -36.808  22.939   3.708  0.00  0.00    +0.194 C 
ATOM      5  C   UNL     1     -35.689  24.497   5.165  0.00  0.00    +0.054 C 
ATOM      6  C   UNL     1     -38.743  23.561   2.595  0.00  0.00    +0.167 C 
ATOM      7  C   UNL     1     -38.674  24.828   3.183  0.00  0.00    +0.161 C 
ATOM      8  C   UNL     1     -35.826  21.997   4.007  0.00  0.00    +0.171 C 
ATOM      9  C   UNL     1     -34.709  23.549   5.459  0.00  0.00    +0.005 C 
ATOM     10  C   UNL     1     -34.779  22.293   4.877  0.00  0.00    +0.040 C 
ATOM     11  C   UNL     1     -39.792  23.270   1.725  0.00  0.00    +0.107 C 
ATOM     12  C   UNL     1     -39.656  25.770   2.886  0.00  0.00    +0.035 C 
ATOM     13  C   UNL     1     -40.771  24.218   1.431  0.00  0.00    +0.009 C 
ATOM     14  C   UNL     1     -40.703  25.474   2.014  0.00  0.00    +0.003 C 
ENDROOT
BRANCH   8  15
ATOM     15  O   UNL     1     -35.875  20.753   3.443  0.00  0.00    -0.469 OA
ATOM     16  C   UNL     1     -35.084  20.544   2.277  0.00  0.00    +0.253 C 
ENDBRANCH   8  15
BRANCH  11  18
ATOM     17  O   UNL     1     -39.701  21.727  -0.101  0.00  0.00    -0.245 OA
ATOM     18  C   UNL     1     -39.895  21.959   1.094  0.00  0.00    +0.341 C 
BRANCH  18  19
ATOM     19  O   UNL     1     -40.234  20.986   1.980  0.00  0.00    -0.477 OA
ATOM     20  H   UNL     1     -41.046  21.037   2.444  0.00  0.00    +0.295 HD
ENDBRANCH  18  19
ENDBRANCH  11  18
BRANCH   5  21
ATOM     21  C   UNL     1     -35.588  25.844   5.808  0.00  0.00    +0.238 C 
BRANCH  21  22
ATOM     22  O   UNL     1     -34.862  26.716   4.953  0.00  0.00    -0.442 OA
BRANCH  22  24
ATOM     23  O   UNL     1     -32.670  26.692   4.229  0.00  0.00    -0.247 OA
ATOM     24  C   UNL     1     -33.503  26.727   5.125  0.00  0.00    +0.348 C 
BRANCH  24  25
ATOM     25  C   UNL     1     -33.186  26.788   6.596  0.00  0.00    +0.248 C 
BRANCH  25  26
ATOM     26  O   UNL     1     -31.870  27.278   6.761  0.00  0.00    -0.372 OA
ATOM     27  H   UNL     1     -31.290  26.879   6.094  0.00  0.00    +0.211 HD
ENDBRANCH  25  26
ENDBRANCH  24  25
ENDBRANCH  22  24
ENDBRANCH  21  22
ENDBRANCH   5  21
TORSDOF 8
ENDMDL
MODEL 2
REMARK VINA RESULT:      -6.6      2.464      5.399
REMARK  Name = 196985
REMARK  8 active torsions:
REMARK  status: ('A' for Active; 'I' for Inactive)
REMARK    1  A    between atoms: C_5  and  C_21
REMARK    2  A    between atoms: C_8  and  O_15
REMARK    3  A    between atoms: C_11  and  C_18
REMARK    4  A    between atoms: C_18  and  O_19
REMARK    5  A    between atoms: C_21  and  O_22
REMARK    6  A    between atoms: O_22  and  C_24
REMARK    7  A    between atoms: C_24  and  C_25
REMARK    8  A    between atoms: C_25  and  O_26
REMARK                            x       y       z     vdW  Elec       q    Type
REMARK                         _______ _______ _______ _____ _____    ______ ____
ROOT
ATOM      1  N   UNL     1     -35.856  21.763   2.203  0.00  0.00    -0.397 NA
ATOM      2  N   UNL     1     -37.683  20.199   0.861  0.00  0.00    -0.393 NA
ATOM      3  C   UNL     1     -37.151  22.113   2.169  0.00  0.00    +0.163 C 
ATOM      4  C   UNL     1     -38.079  21.318   1.488  0.00  0.00    +0.194 C 
ATOM      5  C   UNL     1     -37.588  23.270   2.812  0.00  0.00    +0.054 C 
ATOM      6  C   UNL     1     -36.387  19.850   0.895  0.00  0.00    +0.167 C 
ATOM      7  C   UNL     1     -35.459  20.645   1.577  0.00  0.00    +0.161 C 
ATOM      8  C   UNL     1     -39.418  21.703   1.467  0.00  0.00    +0.171 C 
ATOM      9  C   UNL     1     -38.930  23.648   2.787  0.00  0.00    +0.005 C 
ATOM     10  C   UNL     1     -39.849  22.861   2.111  0.00  0.00    +0.040 C 
ATOM     11  C   UNL     1     -35.951  18.693   0.254  0.00  0.00    +0.107 C 
ATOM     12  C   UNL     1     -34.120  20.261   1.597  0.00  0.00    +0.035 C 
ATOM     13  C   UNL     1     -34.609  18.314   0.279  0.00  0.00    +0.009 C 
ATOM     14  C   UNL     1     -33.689  19.102   0.954  0.00  0.00    +0.003 C 
ENDROOT
BRANCH   8  15
ATOM     15  O   UNL     1     -40.341  20.941   0.807  0.00  0.00    -0.469 OA
ATOM     16  C   UNL     1     -40.863  21.471  -0.407  0.00  0.00    +0.253 C 
ENDBRANCH   8  15
BRANCH  11  18
ATOM     17  O   UNL     1     -37.044  17.825  -1.689  0.00  0.00    -0.245 OA
ATOM     18  C   UNL     1     -36.891  17.841  -0.465  0.00  0.00    +0.341 C 
BRANCH  18  19
ATOM     19  O   UNL     1     -37.604  17.039   0.368  0.00  0.00    -0.477 OA
ATOM     20  H   UNL     1     -37.284  16.185   0.584  0.00  0.00    +0.295 HD
ENDBRANCH  18  19
ENDBRANCH  11  18
BRANCH   5  21
ATOM     21  C   UNL     1     -36.619  24.138   3.549  0.00  0.00    +0.238 C 
BRANCH  21  22
ATOM     22  O   UNL     1     -36.551  23.717   4.904  0.00  0.00    -0.442 OA
BRANCH  22  24
ATOM     23  O   UNL     1     -34.278  24.003   5.193  0.00  0.00    -0.247 OA
ATOM     24  C   UNL     1     -35.308  23.363   5.359  0.00  0.00    +0.348 C 
BRANCH  24  25
ATOM     25  C   UNL     1     -35.401  22.055   6.099  0.00  0.00    +0.248 C 
BRANCH  25  26
ATOM     26  O   UNL     1     -35.489  21.002   5.160  0.00  0.00    -0.372 OA
ATOM     27  H   UNL     1     -36.326  21.068   4.677  0.00  0.00    +0.211 HD
ENDBRANCH  25  26
ENDBRANCH  24  25
ENDBRANCH  22  24
ENDBRANCH  21  22
ENDBRANCH   5  21
TORSDOF 8
ENDMDL
MODEL 3
REMARK VINA RESULT:      -6.3      1.909      2.353
REMARK  Name = 196985
REMARK  8 active torsions:
REMARK  status: ('A' for Active; 'I' for Inactive)
REMARK    1  A    between atoms: C_5  and  C_21
REMARK    2  A    between atoms: C_8  and  O_15
REMARK    3  A    between atoms: C_11  and  C_18
REMARK    4  A    between atoms: C_18  and  O_19
REMARK    5  A    between atoms: C_21  and  O_22
REMARK    6  A    between atoms: O_22  and  C_24
REMARK    7  A    between atoms: C_24  and  C_25
REMARK    8  A    between atoms: C_25  and  O_26
REMARK                            x       y       z     vdW  Elec       q    Type
REMARK                         _______ _______ _______ _____ _____    ______ ____
ROOT
ATOM      1  N   UNL     1     -36.745  25.740   2.054  0.00  0.00    -0.397 NA
ATOM      2  N   UNL     1     -37.391  23.338   3.237  0.00  0.00    -0.393 NA
ATOM      3  C   UNL     1     -36.196  25.395   3.229  0.00  0.00    +0.163 C 
ATOM      4  C   UNL     1     -36.523  24.174   3.829  0.00  0.00    +0.194 C 
ATOM      5  C   UNL     1     -35.292  26.244   3.865  0.00  0.00    +0.054 C 
ATOM      6  C   UNL     1     -37.940  23.685   2.062  0.00  0.00    +0.167 C 
ATOM      7  C   UNL     1     -37.612  24.905   1.461  0.00  0.00    +0.161 C 
ATOM      8  C   UNL     1     -35.941  23.839   5.049  0.00  0.00    +0.171 C 
ATOM      9  C   UNL     1     -34.712  25.902   5.085  0.00  0.00    +0.005 C 
ATOM     10  C   UNL     1     -35.038  24.693   5.680  0.00  0.00    +0.040 C 
ATOM     11  C   UNL     1     -38.842  22.835   1.426  0.00  0.00    +0.107 C 
ATOM     12  C   UNL     1     -38.196  25.242   0.242  0.00  0.00    +0.035 C 
ATOM     13  C   UNL     1     -39.423  23.177   0.205  0.00  0.00    +0.009 C 
ATOM     14  C   UNL     1     -39.098  24.387  -0.390  0.00  0.00    +0.003 C 
ENDROOT
BRANCH   8  15
ATOM     15  O   UNL     1     -36.247  22.652   5.653  0.00  0.00    -0.469 OA
ATOM     16  C   UNL     1     -35.154  21.866   6.119  0.00  0.00    +0.253 C 
ENDBRANCH   8  15
BRANCH  11  18
ATOM     17  O   UNL     1     -40.359  21.177   2.248  0.00  0.00    -0.245 OA
ATOM     18  C   UNL     1     -39.206  21.555   2.023  0.00  0.00    +0.341 C 
BRANCH  18  19
ATOM     19  O   UNL     1     -38.120  20.794   2.317  0.00  0.00    -0.477 OA
ATOM     20  H   UNL     1     -37.350  20.852   1.786  0.00  0.00    +0.295 HD
ENDBRANCH  18  19
ENDBRANCH  11  18
BRANCH   5  21
ATOM     21  C   UNL     1     -34.922  27.555   3.246  0.00  0.00    +0.238 C 
BRANCH  21  22
ATOM     22  O   UNL     1     -34.036  28.248   4.114  0.00  0.00    -0.442 OA
BRANCH  22  24
ATOM     23  O   UNL     1     -32.565  28.688   2.389  0.00  0.00    -0.247 OA
ATOM     24  C   UNL     1     -32.819  28.585   3.582  0.00  0.00    +0.348 C 
BRANCH  24  25
ATOM     25  C   UNL     1     -31.832  28.811   4.696  0.00  0.00    +0.248 C 
BRANCH  25  26
ATOM     26  O   UNL     1     -32.448  28.486   5.926  0.00  0.00    -0.372 OA
ATOM     27  H   UNL     1     -33.342  28.859   5.950  0.00  0.00    +0.211 HD
ENDBRANCH  25  26
ENDBRANCH  24  25
ENDBRANCH  22  24
ENDBRANCH  21  22
ENDBRANCH   5  21
TORSDOF 8
ENDMDL
MODEL 4
REMARK VINA RESULT:      -6.2      1.456      2.160
REMARK  Name = 196985
REMARK  8 active torsions:
REMARK  status: ('A' for Active; 'I' for Inactive)
REMARK    1  A    between atoms: C_5  and  C_21
REMARK    2  A    between atoms: C_8  and  O_15
REMARK    3  A    between atoms: C_11  and  C_18
REMARK    4  A    between atoms: C_18  and  O_19
REMARK    5  A    between atoms: C_21  and  O_22
REMARK    6  A    between atoms: O_22  and  C_24
REMARK    7  A    between atoms: C_24  and  C_25
REMARK    8  A    between atoms: C_25  and  O_26
REMARK                            x       y       z     vdW  Elec       q    Type
REMARK                         _______ _______ _______ _____ _____    ______ ____
ROOT
ATOM      1  N   UNL     1     -37.762  23.998   3.667  0.00  0.00    -0.397 NA
ATOM      2  N   UNL     1     -38.534  22.423   1.543  0.00  0.00    -0.393 NA
ATOM      3  C   UNL     1     -37.063  22.897   3.352  0.00  0.00    +0.163 C 
ATOM      4  C   UNL     1     -37.455  22.098   2.273  0.00  0.00    +0.194 C 
ATOM      5  C   UNL     1     -35.939  22.537   4.092  0.00  0.00    +0.054 C 
ATOM      6  C   UNL     1     -39.234  23.525   1.860  0.00  0.00    +0.167 C 
ATOM      7  C   UNL     1     -38.841  24.325   2.939  0.00  0.00    +0.161 C 
ATOM      8  C   UNL     1     -36.713  20.959   1.966  0.00  0.00    +0.171 C 
ATOM      9  C   UNL     1     -35.201  21.397   3.779  0.00  0.00    +0.005 C 
ATOM     10  C   UNL     1     -35.590  20.604   2.711  0.00  0.00    +0.040 C 
ATOM     11  C   UNL     1     -40.356  23.886   1.118  0.00  0.00    +0.107 C 
ATOM     12  C   UNL     1     -39.584  25.463   3.247  0.00  0.00    +0.035 C 
ATOM     13  C   UNL     1     -41.095  25.026   1.432  0.00  0.00    +0.009 C 
ATOM     14  C   UNL     1     -40.707  25.819   2.502  0.00  0.00    +0.003 C 
ENDROOT
BRANCH   8  15
ATOM     15  O   UNL     1     -37.079  20.164   0.916  0.00  0.00    -0.469 OA
ATOM     16  C   UNL     1     -36.037  19.456   0.253  0.00  0.00    +0.253 C 
ENDBRANCH   8  15
BRANCH  11  18
ATOM     17  O   UNL     1     -40.861  23.462  -1.182  0.00  0.00    -0.245 OA
ATOM     18  C   UNL     1     -40.793  23.075  -0.013  0.00  0.00    +0.341 C 
BRANCH  18  19
ATOM     19  O   UNL     1     -41.127  21.811   0.357  0.00  0.00    -0.477 OA
ATOM     20  H   UNL     1     -40.719  21.418   1.104  0.00  0.00    +0.295 HD
ENDBRANCH  18  19
ENDBRANCH  11  18
BRANCH   5  21
ATOM     21  C   UNL     1     -35.496  23.374   5.250  0.00  0.00    +0.238 C 
BRANCH  21  22
ATOM     22  O   UNL     1     -34.346  24.119   4.875  0.00  0.00    -0.442 OA
BRANCH  22  24
ATOM     23  O   UNL     1     -33.445  26.239   5.026  0.00  0.00    -0.247 OA
ATOM     24  C   UNL     1     -34.361  25.448   5.205  0.00  0.00    +0.348 C 
BRANCH  24  25
ATOM     25  C   UNL     1     -35.689  25.793   5.828  0.00  0.00    +0.248 C 
BRANCH  25  26
ATOM     26  O   UNL     1     -36.396  26.650   4.954  0.00  0.00    -0.372 OA
ATOM     27  H   UNL     1     -37.090  27.114   5.446  0.00  0.00    +0.211 HD
ENDBRANCH  25  26
ENDBRANCH  24  25
ENDBRANCH  22  24
ENDBRANCH  21  22
ENDBRANCH   5  21
TORSDOF 8
ENDMDL
MODEL 5
REMARK VINA RESULT:      -6.2      1.949      6.936
REMARK  Name = 196985
REMARK  8 active torsions:
REMARK  status: ('A' for Active; 'I' for Inactive)
REMARK    1  A    between atoms: C_5  and  C_21
REMARK    2  A    between atoms: C_8  and  O_15
REMARK    3  A    between atoms: C_11  and  C_18
REMARK    4  A    between atoms: C_18  and  O_19
REMARK    5  A    between atoms: C_21  and  O_22
REMARK    6  A    between atoms: O_22  and  C_24
REMARK    7  A    between atoms: C_24  and  C_25
REMARK    8  A    between atoms: C_25  and  O_26
REMARK                            x       y       z     vdW  Elec       q    Type
REMARK                         _______ _______ _______ _____ _____    ______ ____
ROOT
ATOM      1  N   UNL     1     -37.273  22.381   2.751  0.00  0.00    -0.397 NA
ATOM      2  N   UNL     1     -37.084  25.097   3.171  0.00  0.00    -0.393 NA
ATOM      3  C   UNL     1     -37.970  23.235   1.985  0.00  0.00    +0.163 C 
ATOM      4  C   UNL     1     -37.874  24.614   2.198  0.00  0.00    +0.194 C 
ATOM      5  C   UNL     1     -38.796  22.759   0.969  0.00  0.00    +0.054 C 
ATOM      6  C   UNL     1     -36.387  24.242   3.937  0.00  0.00    +0.167 C 
ATOM      7  C   UNL     1     -36.483  22.863   3.724  0.00  0.00    +0.161 C 
ATOM      8  C   UNL     1     -38.608  25.479   1.390  0.00  0.00    +0.171 C 
ATOM      9  C   UNL     1     -39.527  23.631   0.163  0.00  0.00    +0.005 C 
ATOM     10  C   UNL     1     -39.433  24.998   0.375  0.00  0.00    +0.040 C 
ATOM     11  C   UNL     1     -35.560  24.718   4.952  0.00  0.00    +0.107 C 
ATOM     12  C   UNL     1     -35.750  21.998   4.533  0.00  0.00    +0.035 C 
ATOM     13  C   UNL     1     -34.829  23.847   5.758  0.00  0.00    +0.009 C 
ATOM     14  C   UNL     1     -34.925  22.479   5.547  0.00  0.00    +0.003 C 
ENDROOT
BRANCH   8  15
ATOM     15  O   UNL     1     -38.528  26.830   1.581  0.00  0.00    -0.469 OA
ATOM     16  C   UNL     1     -37.846  27.581   0.582  0.00  0.00    +0.253 C 
ENDBRANCH   8  15
BRANCH  11  18
ATOM     17  O   UNL     1     -34.375  26.777   5.235  0.00  0.00    -0.245 OA
ATOM     18  C   UNL     1     -35.436  26.150   5.202  0.00  0.00    +0.341 C 
BRANCH  18  19
ATOM     19  O   UNL     1     -36.641  26.746   5.398  0.00  0.00    -0.477 OA
ATOM     20  H   UNL     1     -36.707  27.681   5.399  0.00  0.00    +0.295 HD
ENDBRANCH  18  19
ENDBRANCH  11  18
BRANCH   5  21
ATOM     21  C   UNL     1     -38.918  21.290   0.717  0.00  0.00    +0.238 C 
BRANCH  21  22
ATOM     22  O   UNL     1     -37.885  20.880  -0.167  0.00  0.00    -0.442 OA
BRANCH  22  24
ATOM     23  O   UNL     1     -37.911  18.576  -0.313  0.00  0.00    -0.247 OA
ATOM     24  C   UNL     1     -37.383  19.622   0.041  0.00  0.00    +0.348 C 
BRANCH  24  25
ATOM     25  C   UNL     1     -36.074  19.722   0.777  0.00  0.00    +0.248 C 
BRANCH  25  26
ATOM     26  O   UNL     1     -36.314  19.570   2.162  0.00  0.00    -0.372 OA
ATOM     27  H   UNL     1     -36.355  20.443   2.581  0.00  0.00    +0.211 HD
ENDBRANCH  25  26
ENDBRANCH  24  25
ENDBRANCH  22  24
ENDBRANCH  21  22
ENDBRANCH   5  21
TORSDOF 8
ENDMDL
MODEL 6
REMARK VINA RESULT:      -6.1      3.181      4.077
REMARK  Name = 196985
REMARK  8 active torsions:
REMARK  status: ('A' for Active; 'I' for Inactive)
REMARK    1  A    between atoms: C_5  and  C_21
REMARK    2  A    between atoms: C_8  and  O_15
REMARK    3  A    between atoms: C_11  and  C_18
REMARK    4  A    between atoms: C_18  and  O_19
REMARK    5  A    between atoms: C_21  and  O_22
REMARK    6  A    between atoms: O_22  and  C_24
REMARK    7  A    between atoms: C_24  and  C_25
REMARK    8  A    between atoms: C_25  and  O_26
REMARK                            x       y       z     vdW  Elec       q    Type
REMARK                         _______ _______ _______ _____ _____    ______ ____
ROOT
ATOM      1  N   UNL     1     -34.059  24.945   1.929  0.00  0.00    -0.397 NA
ATOM      2  N   UNL     1     -35.293  22.719   2.981  0.00  0.00    -0.393 NA
ATOM      3  C   UNL     1     -34.539  24.966   3.182  0.00  0.00    +0.163 C 
ATOM      4  C   UNL     1     -35.165  23.835   3.717  0.00  0.00    +0.194 C 
ATOM      5  C   UNL     1     -34.418  26.111   3.967  0.00  0.00    +0.054 C 
ATOM      6  C   UNL     1     -34.813  22.700   1.727  0.00  0.00    +0.167 C 
ATOM      7  C   UNL     1     -34.186  23.831   1.193  0.00  0.00    +0.161 C 
ATOM      8  C   UNL     1     -35.655  23.882   5.020  0.00  0.00    +0.171 C 
ATOM      9  C   UNL     1     -34.910  26.150   5.271  0.00  0.00    +0.005 C 
ATOM     10  C   UNL     1     -35.532  25.030   5.800  0.00  0.00    +0.040 C 
ATOM     11  C   UNL     1     -34.933  21.554   0.943  0.00  0.00    +0.107 C 
ATOM     12  C   UNL     1     -33.698  23.785  -0.111  0.00  0.00    +0.035 C 
ATOM     13  C   UNL     1     -34.441  21.515  -0.360  0.00  0.00    +0.009 C 
ATOM     14  C   UNL     1     -33.820  22.636  -0.890  0.00  0.00    +0.003 C 
ENDROOT
BRANCH   8  15
ATOM     15  O   UNL     1     -36.270  22.788   5.561  0.00  0.00    -0.469 OA
ATOM     16  C   UNL     1     -35.494  21.985   6.444  0.00  0.00    +0.253 C 
ENDBRANCH   8  15
BRANCH  11  18
ATOM     17  O   UNL     1     -36.617  19.857   1.027  0.00  0.00    -0.245 OA
ATOM     18  C   UNL     1     -35.580  20.357   1.469  0.00  0.00    +0.341 C 
BRANCH  18  19
ATOM     19  O   UNL     1     -34.908  19.828   2.525  0.00  0.00    -0.477 OA
ATOM     20  H   UNL     1     -34.004  20.036   2.657  0.00  0.00    +0.295 HD
ENDBRANCH  18  19
ENDBRANCH  11  18
BRANCH   5  21
ATOM     21  C   UNL     1     -33.752  27.335   3.423  0.00  0.00    +0.238 C 
BRANCH  21  22
ATOM     22  O   UNL     1     -33.354  28.169   4.501  0.00  0.00    -0.442 OA
BRANCH  22  24
ATOM     23  O   UNL     1     -31.118  27.760   4.093  0.00  0.00    -0.247 OA
ATOM     24  C   UNL     1     -32.024  28.130   4.828  0.00  0.00    +0.348 C 
BRANCH  24  25
ATOM     25  C   UNL     1     -31.842  28.617   6.241  0.00  0.00    +0.248 C 
BRANCH  25  26
ATOM     26  O   UNL     1     -32.327  27.632   7.131  0.00  0.00    -0.372 OA
ATOM     27  H   UNL     1     -32.760  28.061   7.885  0.00  0.00    +0.211 HD
ENDBRANCH  25  26
ENDBRANCH  24  25
ENDBRANCH  22  24
ENDBRANCH  21  22
ENDBRANCH   5  21
TORSDOF 8
ENDMDL
MODEL 7
REMARK VINA RESULT:      -6.0      2.894      6.630
REMARK  Name = 196985
REMARK  8 active torsions:
REMARK  status: ('A' for Active; 'I' for Inactive)
REMARK    1  A    between atoms: C_5  and  C_21
REMARK    2  A    between atoms: C_8  and  O_15
REMARK    3  A    between atoms: C_11  and  C_18
REMARK    4  A    between atoms: C_18  and  O_19
REMARK    5  A    between atoms: C_21  and  O_22
REMARK    6  A    between atoms: O_22  and  C_24
REMARK    7  A    between atoms: C_24  and  C_25
REMARK    8  A    between atoms: C_25  and  O_26
REMARK                            x       y       z     vdW  Elec       q    Type
REMARK                         _______ _______ _______ _____ _____    ______ ____
ROOT
ATOM      1  N   UNL     1     -35.473  21.203   2.806  0.00  0.00    -0.397 NA
ATOM      2  N   UNL     1     -36.111  23.876   2.625  0.00  0.00    -0.393 NA
ATOM      3  C   UNL     1     -35.792  21.744   1.620  0.00  0.00    +0.163 C 
ATOM      4  C   UNL     1     -36.115  23.102   1.528  0.00  0.00    +0.194 C 
ATOM      5  C   UNL     1     -35.804  20.962   0.467  0.00  0.00    +0.054 C 
ATOM      6  C   UNL     1     -35.793  23.333   3.811  0.00  0.00    +0.167 C 
ATOM      7  C   UNL     1     -35.469  21.976   3.903  0.00  0.00    +0.161 C 
ATOM      8  C   UNL     1     -36.444  23.640   0.286  0.00  0.00    +0.171 C 
ATOM      9  C   UNL     1     -36.132  21.508  -0.774  0.00  0.00    +0.005 C 
ATOM     10  C   UNL     1     -36.454  22.853  -0.865  0.00  0.00    +0.040 C 
ATOM     11  C   UNL     1     -35.779  24.116   4.964  0.00  0.00    +0.107 C 
ATOM     12  C   UNL     1     -35.142  21.437   5.146  0.00  0.00    +0.035 C 
ATOM     13  C   UNL     1     -35.451  23.571   6.205  0.00  0.00    +0.009 C 
ATOM     14  C   UNL     1     -35.131  22.224   6.296  0.00  0.00    +0.003 C 
ENDROOT
BRANCH   8  15
ATOM     15  O   UNL     1     -36.763  24.964   0.174  0.00  0.00    -0.469 OA
ATOM     16  C   UNL     1     -38.123  25.276  -0.109  0.00  0.00    +0.253 C 
ENDBRANCH   8  15
BRANCH  11  18
ATOM     17  O   UNL     1     -35.357  26.456   5.224  0.00  0.00    -0.245 OA
ATOM     18  C   UNL     1     -36.112  25.535   4.905  0.00  0.00    +0.341 C 
BRANCH  18  19
ATOM     19  O   UNL     1     -37.373  25.751   4.448  0.00  0.00    -0.477 OA
ATOM     20  H   UNL     1     -37.513  26.305   3.705  0.00  0.00    +0.295 HD
ENDBRANCH  18  19
ENDBRANCH  11  18
BRANCH   5  21
ATOM     21  C   UNL     1     -35.461  19.508   0.534  0.00  0.00    +0.238 C 
BRANCH  21  22
ATOM     22  O   UNL     1     -34.250  19.280  -0.173  0.00  0.00    -0.442 OA
BRANCH  22  24
ATOM     23  O   UNL     1     -32.299  20.368   0.412  0.00  0.00    -0.247 OA
ATOM     24  C   UNL     1     -33.096  19.449   0.547  0.00  0.00    +0.348 C 
BRANCH  24  25
ATOM     25  C   UNL     1     -32.957  18.325   1.538  0.00  0.00    +0.248 C 
BRANCH  25  26
ATOM     26  O   UNL     1     -31.641  17.813   1.468  0.00  0.00    -0.372 OA
ATOM     27  H   UNL     1     -31.672  16.846   1.417  0.00  0.00    +0.211 HD
ENDBRANCH  25  26
ENDBRANCH  24  25
ENDBRANCH  22  24
ENDBRANCH  21  22
ENDBRANCH   5  21
TORSDOF 8
ENDMDL
MODEL 8
REMARK VINA RESULT:      -5.9      3.436      6.144
REMARK  Name = 196985
REMARK  8 active torsions:
REMARK  status: ('A' for Active; 'I' for Inactive)
REMARK    1  A    between atoms: C_5  and  C_21
REMARK    2  A    between atoms: C_8  and  O_15
REMARK    3  A    between atoms: C_11  and  C_18
REMARK    4  A    between atoms: C_18  and  O_19
REMARK    5  A    between atoms: C_21  and  O_22
REMARK    6  A    between atoms: O_22  and  C_24
REMARK    7  A    between atoms: C_24  and  C_25
REMARK    8  A    between atoms: C_25  and  O_26
REMARK                            x       y       z     vdW  Elec       q    Type
REMARK                         _______ _______ _______ _____ _____    ______ ____
ROOT
ATOM      1  N   UNL     1     -33.261  26.912   5.316  0.00  0.00    -0.397 NA
ATOM      2  N   UNL     1     -34.734  27.484   3.060  0.00  0.00    -0.393 NA
ATOM      3  C   UNL     1     -32.945  27.969   4.551  0.00  0.00    +0.163 C 
ATOM      4  C   UNL     1     -33.694  28.259   3.406  0.00  0.00    +0.194 C 
ATOM      5  C   UNL     1     -31.871  28.790   4.888  0.00  0.00    +0.054 C 
ATOM      6  C   UNL     1     -35.049  26.426   3.826  0.00  0.00    +0.167 C 
ATOM      7  C   UNL     1     -34.301  26.136   4.972  0.00  0.00    +0.161 C 
ATOM      8  C   UNL     1     -33.346  29.361   2.628  0.00  0.00    +0.171 C 
ATOM      9  C   UNL     1     -31.529  29.892   4.106  0.00  0.00    +0.005 C 
ATOM     10  C   UNL     1     -32.270  30.178   2.970  0.00  0.00    +0.040 C 
ATOM     11  C   UNL     1     -36.124  25.607   3.490  0.00  0.00    +0.107 C 
ATOM     12  C   UNL     1     -34.647  25.033   5.749  0.00  0.00    +0.035 C 
ATOM     13  C   UNL     1     -36.466  24.505   4.273  0.00  0.00    +0.009 C 
ATOM     14  C   UNL     1     -35.724  24.216   5.408  0.00  0.00    +0.003 C 
ENDROOT
BRANCH   8  15
ATOM     15  O   UNL     1     -34.064  29.663   1.505  0.00  0.00    -0.469 OA
ATOM     16  C   UNL     1     -35.014  30.718   1.613  0.00  0.00    +0.253 C 
ENDBRANCH   8  15
BRANCH  11  18
ATOM     17  O   UNL     1     -36.957  25.179   1.289  0.00  0.00    -0.245 OA
ATOM     18  C   UNL     1     -36.926  25.880   2.303  0.00  0.00    +0.341 C 
BRANCH  18  19
ATOM     19  O   UNL     1     -37.660  27.017   2.426  0.00  0.00    -0.477 OA
ATOM     20  H   UNL     1     -37.459  27.764   1.895  0.00  0.00    +0.295 HD
ENDBRANCH  18  19
ENDBRANCH  11  18
BRANCH   5  21
ATOM     21  C   UNL     1     -31.054  28.504   6.108  0.00  0.00    +0.238 C 
BRANCH  21  22
ATOM     22  O   UNL     1     -29.849  27.859   5.723  0.00  0.00    -0.442 OA
BRANCH  22  24
ATOM     23  O   UNL     1     -28.348  26.727   7.064  0.00  0.00    -0.247 OA
ATOM     24  C   UNL     1     -28.886  27.762   6.692  0.00  0.00    +0.348 C 
BRANCH  24  25
ATOM     25  C   UNL     1     -28.586  29.134   7.237  0.00  0.00    +0.248 C 
BRANCH  25  26
ATOM     26  O   UNL     1     -28.495  29.057   8.646  0.00  0.00    -0.372 OA
ATOM     27  H   UNL     1     -27.888  29.740   8.969  0.00  0.00    +0.211 HD
ENDBRANCH  25  26
ENDBRANCH  24  25
ENDBRANCH  22  24
ENDBRANCH  21  22
ENDBRANCH   5  21
TORSDOF 8
ENDMDL
MODEL 9
REMARK VINA RESULT:      -5.9      2.926      6.486
REMARK  Name = 196985
REMARK  8 active torsions:
REMARK  status: ('A' for Active; 'I' for Inactive)
REMARK    1  A    between atoms: C_5  and  C_21
REMARK    2  A    between atoms: C_8  and  O_15
REMARK    3  A    between atoms: C_11  and  C_18
REMARK    4  A    between atoms: C_18  and  O_19
REMARK    5  A    between atoms: C_21  and  O_22
REMARK    6  A    between atoms: O_22  and  C_24
REMARK    7  A    between atoms: C_24  and  C_25
REMARK    8  A    between atoms: C_25  and  O_26
REMARK                            x       y       z     vdW  Elec       q    Type
REMARK                         _______ _______ _______ _____ _____    ______ ____
ROOT
ATOM      1  N   UNL     1     -35.283  21.979   2.932  0.00  0.00    -0.397 NA
ATOM      2  N   UNL     1     -37.726  23.054   2.251  0.00  0.00    -0.393 NA
ATOM      3  C   UNL     1     -36.062  21.370   2.025  0.00  0.00    +0.163 C 
ATOM      4  C   UNL     1     -37.302  21.917   1.679  0.00  0.00    +0.194 C 
ATOM      5  C   UNL     1     -35.645  20.188   1.415  0.00  0.00    +0.054 C 
ATOM      6  C   UNL     1     -36.946  23.663   3.160  0.00  0.00    +0.167 C 
ATOM      7  C   UNL     1     -35.705  23.117   3.505  0.00  0.00    +0.161 C 
ATOM      8  C   UNL     1     -38.092  21.265   0.735  0.00  0.00    +0.171 C 
ATOM      9  C   UNL     1     -36.441  19.541   0.470  0.00  0.00    +0.005 C 
ATOM     10  C   UNL     1     -37.671  20.082   0.129  0.00  0.00    +0.040 C 
ATOM     11  C   UNL     1     -37.362  24.846   3.767  0.00  0.00    +0.107 C 
ATOM     12  C   UNL     1     -34.915  23.768   4.450  0.00  0.00    +0.035 C 
ATOM     13  C   UNL     1     -36.566  25.493   4.712  0.00  0.00    +0.009 C 
ATOM     14  C   UNL     1     -35.336  24.950   5.055  0.00  0.00    +0.003 C 
ENDROOT
BRANCH   8  15
ATOM     15  O   UNL     1     -39.307  21.781   0.382  0.00  0.00    -0.469 OA
ATOM     16  C   UNL     1     -39.849  21.358  -0.865  0.00  0.00    +0.253 C 
ENDBRANCH   8  15
BRANCH  11  18
ATOM     17  O   UNL     1     -38.807  26.439   2.720  0.00  0.00    -0.245 OA
ATOM     18  C   UNL     1     -38.649  25.443   3.430  0.00  0.00    +0.341 C 
BRANCH  18  19
ATOM     19  O   UNL     1     -39.691  24.775   3.990  0.00  0.00    -0.477 OA
ATOM     20  H   UNL     1     -39.974  24.990   4.857  0.00  0.00    +0.295 HD
ENDBRANCH  18  19
ENDBRANCH  11  18
BRANCH   5  21
ATOM     21  C   UNL     1     -34.323  19.581   1.764  0.00  0.00    +0.238 C 
BRANCH  21  22
ATOM     22  O   UNL     1     -33.837  18.849   0.649  0.00  0.00    -0.442 OA
BRANCH  22  24
ATOM     23  O   UNL     1     -32.086  17.814   1.744  0.00  0.00    -0.247 OA
ATOM     24  C   UNL     1     -33.009  17.796   0.940  0.00  0.00    +0.348 C 
BRANCH  24  25
ATOM     25  C   UNL     1     -33.409  16.603   0.114  0.00  0.00    +0.248 C 
BRANCH  25  26
ATOM     26  O   UNL     1     -34.789  16.359   0.300  0.00  0.00    -0.372 OA
ATOM     27  H   UNL     1     -35.105  15.747  -0.382  0.00  0.00    +0.211 HD
ENDBRANCH  25  26
ENDBRANCH  24  25
ENDBRANCH  22  24
ENDBRANCH  21  22
ENDBRANCH   5  21
TORSDOF 8
ENDMDL
