MODEL 1
REMARK VINA RESULT:      -6.6      0.000      0.000
REMARK  Name = 54693864
REMARK  12 active torsions:
REMARK  status: ('A' for Active; 'I' for Inactive)
REMARK    1  A    between atoms: N_3  and  C_10
REMARK    2  A    between atoms: C_4  and  C_35
REMARK    3  A    between atoms: C_8  and  O_21
REMARK    4  A    between atoms: C_8  and  C_23
REMARK    5  A    between atoms: C_11  and  O_15
REMARK    6  A    between atoms: C_12  and  O_17
REMARK    7  A    between atoms: C_13  and  O_19
REMARK    8  A    between atoms: C_24  and  C_25
REMARK    9  A    between atoms: C_26  and  C_27
REMARK   10  A    between atoms: C_28  and  C_29
REMARK   11  A    between atoms: C_30  and  C_32
REMARK   12  A    between atoms: C_35  and  C_38
REMARK                            x       y       z     vdW  Elec       q    Type
REMARK                         _______ _______ _______ _____ _____    ______ ____
ROOT
ATOM      1  O   UNL     1     -33.442  27.141   3.639  0.00  0.00    -0.270 OA
ATOM      2  O   UNL     1     -37.331  28.344   1.276  0.00  0.00    -0.289 OA
ATOM      3  N   UNL     1     -35.345  25.954   2.871  0.00  0.00    -0.246 N 
ATOM      4  C   UNL     1     -36.606  26.185   2.145  0.00  0.00    +0.149 C 
ATOM      5  C   UNL     1     -34.521  27.065   3.080  0.00  0.00    +0.257 C 
ATOM      6  C   UNL     1     -36.505  27.670   1.870  0.00  0.00    +0.199 C 
ATOM      7  C   UNL     1     -35.245  28.180   2.445  0.00  0.00    +0.123 C 
ATOM      8  C   UNL     1     -34.826  29.452   2.397  0.00  0.00    +0.141 C 
ENDROOT
BRANCH   3  10
ATOM      9  O   UNL     1     -35.534  23.712   2.340  0.00  0.00    -0.333 OA
ATOM     10  C   UNL     1     -34.974  24.622   3.283  0.00  0.00    +0.225 C 
ATOM     11  C   UNL     1     -35.472  24.327   4.700  0.00  0.00    +0.187 C 
ATOM     12  C   UNL     1     -35.236  22.861   5.073  0.00  0.00    +0.171 C 
ATOM     13  C   UNL     1     -35.720  21.926   3.967  0.00  0.00    +0.169 C 
ATOM     14  C   UNL     1     -35.173  22.363   2.615  0.00  0.00    +0.176 C 
BRANCH  11  15
ATOM     15  O   UNL     1     -34.766  25.164   5.613  0.00  0.00    -0.378 OA
ATOM     16  H   UNL     1     -33.811  25.061   5.474  0.00  0.00    +0.211 HD
ENDBRANCH  11  15
BRANCH  12  17
ATOM     17  O   UNL     1     -35.962  22.551   6.265  0.00  0.00    -0.379 OA
ATOM     18  H   UNL     1     -35.351  22.207   6.935  0.00  0.00    +0.211 HD
ENDBRANCH  12  17
BRANCH  13  19
ATOM     19  O   UNL     1     -35.281  20.601   4.252  0.00  0.00    -0.379 OA
ATOM     20  H   UNL     1     -34.636  20.623   4.976  0.00  0.00    +0.211 HD
ENDBRANCH  13  19
ENDBRANCH   3  10
BRANCH   8  21
ATOM     21  O   UNL     1     -33.629  29.846   2.963  0.00  0.00    -0.505 OA
ATOM     22  H   UNL     1     -32.826  29.452   2.682  0.00  0.00    +0.292 HD
ENDBRANCH   8  21
BRANCH   8  23
ATOM     23  C   UNL     1     -35.595  30.500   1.752  0.00  0.00    +0.037 C 
ATOM     24  C   UNL     1     -36.145  31.557   2.372  0.00  0.00    +0.003 C 
BRANCH  24  25
ATOM     25  C   UNL     1     -36.903  32.572   1.672  0.00  0.00    +0.000 C 
ATOM     26  C   UNL     1     -38.203  32.807   1.910  0.00  0.00    +0.000 C 
BRANCH  26  27
ATOM     27  C   UNL     1     -38.961  33.822   1.209  0.00  0.00    +0.000 C 
ATOM     28  C   UNL     1     -39.361  34.964   1.786  0.00  0.00    +0.000 C 
BRANCH  28  29
ATOM     29  C   UNL     1     -40.120  35.978   1.085  0.00  0.00    +0.000 C 
ATOM     30  C   UNL     1     -41.297  35.732   0.490  0.00  0.00    +0.001 C 
BRANCH  30  32
ATOM     31 CL   UNL     1     -40.281  36.971  -2.257  0.00  0.00    -0.087 Cl
ATOM     32  C   UNL     1     -42.051  36.752  -0.211  0.00  0.00    +0.007 C 
ATOM     33  C   UNL     1     -41.724  37.346  -1.371  0.00  0.00    +0.036 C 
ATOM     34  C   UNL     1     -42.576  38.395  -2.016  0.00  0.00    +0.044 C 
ENDBRANCH  30  32
ENDBRANCH  28  29
ENDBRANCH  26  27
ENDBRANCH  24  25
ENDBRANCH   8  23
BRANCH   4  35
ATOM     35  C   UNL     1     -37.842  25.867   2.966  0.00  0.00    +0.113 C 
BRANCH  35  38
ATOM     36  O   UNL     1     -39.447  25.082   1.328  0.00  0.00    -0.275 OA
ATOM     37  N   UNL     1     -38.656  23.605   2.902  0.00  0.00    -0.329 N 
ATOM     38  C   UNL     1     -38.735  24.841   2.298  0.00  0.00    +0.222 C 
ATOM     39  H   UNL     1     -39.191  22.854   2.558  0.00  0.00    +0.145 HD
ATOM     40  H   UNL     1     -38.064  23.474   3.678  0.00  0.00    +0.145 HD
ENDBRANCH  35  38
ENDBRANCH   4  35
TORSDOF 12
ENDMDL
MODEL 2
REMARK VINA RESULT:      -6.5      5.892      7.259
REMARK  Name = 54693864
REMARK  12 active torsions:
REMARK  status: ('A' for Active; 'I' for Inactive)
REMARK    1  A    between atoms: N_3  and  C_10
REMARK    2  A    between atoms: C_4  and  C_35
REMARK    3  A    between atoms: C_8  and  O_21
REMARK    4  A    between atoms: C_8  and  C_23
REMARK    5  A    between atoms: C_11  and  O_15
REMARK    6  A    between atoms: C_12  and  O_17
REMARK    7  A    between atoms: C_13  and  O_19
REMARK    8  A    between atoms: C_24  and  C_25
REMARK    9  A    between atoms: C_26  and  C_27
REMARK   10  A    between atoms: C_28  and  C_29
REMARK   11  A    between atoms: C_30  and  C_32
REMARK   12  A    between atoms: C_35  and  C_38
REMARK                            x       y       z     vdW  Elec       q    Type
REMARK                         _______ _______ _______ _____ _____    ______ ____
ROOT
ATOM      1  O   UNL     1     -38.040  22.231  -0.186  0.00  0.00    -0.270 OA
ATOM      2  O   UNL     1     -39.175  24.651   3.688  0.00  0.00    -0.289 OA
ATOM      3  N   UNL     1     -36.959  22.644   1.883  0.00  0.00    -0.246 N 
ATOM      4  C   UNL     1     -37.177  23.362   3.151  0.00  0.00    +0.149 C 
ATOM      5  C   UNL     1     -37.974  22.727   0.924  0.00  0.00    +0.257 C 
ATOM      6  C   UNL     1     -38.547  23.956   2.906  0.00  0.00    +0.199 C 
ATOM      7  C   UNL     1     -39.006  23.566   1.558  0.00  0.00    +0.123 C 
ATOM      8  C   UNL     1     -40.173  23.916   1.002  0.00  0.00    +0.141 C 
ENDROOT
BRANCH   3  10
ATOM      9  O   UNL     1     -35.077  22.386   0.567  0.00  0.00    -0.333 OA
ATOM     10  C   UNL     1     -35.770  21.850   1.690  0.00  0.00    +0.225 C 
ATOM     11  C   UNL     1     -36.123  20.376   1.471  0.00  0.00    +0.187 C 
ATOM     12  C   UNL     1     -34.883  19.563   1.092  0.00  0.00    +0.171 C 
ATOM     13  C   UNL     1     -34.089  20.251  -0.017  0.00  0.00    +0.169 C 
ATOM     14  C   UNL     1     -33.845  21.715   0.325  0.00  0.00    +0.176 C 
BRANCH  11  15
ATOM     15  O   UNL     1     -36.674  19.857   2.679  0.00  0.00    -0.378 OA
ATOM     16  H   UNL     1     -37.286  20.506   3.061  0.00  0.00    +0.211 HD
ENDBRANCH  11  15
BRANCH  12  17
ATOM     17  O   UNL     1     -35.284  18.276   0.617  0.00  0.00    -0.379 OA
ATOM     18  H   UNL     1     -36.205  18.111   0.871  0.00  0.00    +0.211 HD
ENDBRANCH  12  17
BRANCH  13  19
ATOM     19  O   UNL     1     -32.841  19.586  -0.179  0.00  0.00    -0.379 OA
ATOM     20  H   UNL     1     -32.962  18.634  -0.037  0.00  0.00    +0.211 HD
ENDBRANCH  13  19
ENDBRANCH   3  10
BRANCH   8  21
ATOM     21  O   UNL     1     -40.526  23.505  -0.270  0.00  0.00    -0.505 OA
ATOM     22  H   UNL     1     -40.670  24.141  -0.943  0.00  0.00    +0.292 HD
ENDBRANCH   8  21
BRANCH   8  23
ATOM     23  C   UNL     1     -41.145  24.747   1.688  0.00  0.00    +0.037 C 
ATOM     24  C   UNL     1     -41.472  26.004   1.351  0.00  0.00    +0.003 C 
BRANCH  24  25
ATOM     25  C   UNL     1     -42.451  26.783   2.079  0.00  0.00    +0.000 C 
ATOM     26  C   UNL     1     -42.296  27.136   3.365  0.00  0.00    +0.000 C 
BRANCH  26  27
ATOM     27  C   UNL     1     -43.276  27.914   4.092  0.00  0.00    +0.000 C 
ATOM     28  C   UNL     1     -42.970  29.039   4.754  0.00  0.00    +0.000 C 
BRANCH  28  29
ATOM     29  C   UNL     1     -43.950  29.817   5.482  0.00  0.00    +0.000 C 
ATOM     30  C   UNL     1     -43.734  30.298   6.716  0.00  0.00    +0.001 C 
BRANCH  30  32
ATOM     31 CL   UNL     1     -46.076  28.914   8.362  0.00  0.00    -0.087 Cl
ATOM     32  C   UNL     1     -44.720  31.076   7.439  0.00  0.00    +0.007 C 
ATOM     33  C   UNL     1     -45.748  30.606   8.165  0.00  0.00    +0.036 C 
ATOM     34  C   UNL     1     -46.716  31.498   8.878  0.00  0.00    +0.044 C 
ENDBRANCH  30  32
ENDBRANCH  28  29
ENDBRANCH  26  27
ENDBRANCH  24  25
ENDBRANCH   8  23
BRANCH   4  35
ATOM     35  C   UNL     1     -36.152  24.450   3.412  0.00  0.00    +0.113 C 
BRANCH  35  38
ATOM     36  O   UNL     1     -35.528  24.120   5.732  0.00  0.00    -0.275 OA
ATOM     37  N   UNL     1     -36.648  26.040   5.146  0.00  0.00    -0.329 N 
ATOM     38  C   UNL     1     -36.062  24.822   4.878  0.00  0.00    +0.222 C 
ATOM     39  H   UNL     1     -36.654  26.393   6.065  0.00  0.00    +0.145 HD
ATOM     40  H   UNL     1     -37.061  26.559   4.418  0.00  0.00    +0.145 HD
ENDBRANCH  35  38
ENDBRANCH   4  35
TORSDOF 12
ENDMDL
MODEL 3
REMARK VINA RESULT:      -6.5      4.008      4.275
REMARK  Name = 54693864
REMARK  12 active torsions:
REMARK  status: ('A' for Active; 'I' for Inactive)
REMARK    1  A    between atoms: N_3  and  C_10
REMARK    2  A    between atoms: C_4  and  C_35
REMARK    3  A    between atoms: C_8  and  O_21
REMARK    4  A    between atoms: C_8  and  C_23
REMARK    5  A    between atoms: C_11  and  O_15
REMARK    6  A    between atoms: C_12  and  O_17
REMARK    7  A    between atoms: C_13  and  O_19
REMARK    8  A    between atoms: C_24  and  C_25
REMARK    9  A    between atoms: C_26  and  C_27
REMARK   10  A    between atoms: C_28  and  C_29
REMARK   11  A    between atoms: C_30  and  C_32
REMARK   12  A    between atoms: C_35  and  C_38
REMARK                            x       y       z     vdW  Elec       q    Type
REMARK                         _______ _______ _______ _____ _____    ______ ____
ROOT
ATOM      1  O   UNL     1     -32.760  26.695   4.333  0.00  0.00    -0.270 OA
ATOM      2  O   UNL     1     -35.937  28.977   1.715  0.00  0.00    -0.289 OA
ATOM      3  N   UNL     1     -34.663  26.028   3.086  0.00  0.00    -0.246 N 
ATOM      4  C   UNL     1     -35.726  26.608   2.246  0.00  0.00    +0.149 C 
ATOM      5  C   UNL     1     -33.723  26.916   3.621  0.00  0.00    +0.257 C 
ATOM      6  C   UNL     1     -35.345  28.072   2.280  0.00  0.00    +0.199 C 
ATOM      7  C   UNL     1     -34.140  28.236   3.116  0.00  0.00    +0.123 C 
ATOM      8  C   UNL     1     -33.523  29.397   3.374  0.00  0.00    +0.141 C 
ENDROOT
BRANCH   3  10
ATOM      9  O   UNL     1     -35.212  23.982   2.162  0.00  0.00    -0.333 OA
ATOM     10  C   UNL     1     -34.586  24.602   3.282  0.00  0.00    +0.225 C 
ATOM     11  C   UNL     1     -35.263  24.189   4.592  0.00  0.00    +0.187 C 
ATOM     12  C   UNL     1     -35.338  22.665   4.718  0.00  0.00    +0.171 C 
ATOM     13  C   UNL     1     -35.878  22.032   3.437  0.00  0.00    +0.169 C 
ATOM     14  C   UNL     1     -35.133  22.562   2.219  0.00  0.00    +0.176 C 
BRANCH  11  15
ATOM     15  O   UNL     1     -34.505  24.714   5.679  0.00  0.00    -0.378 OA
ATOM     16  H   UNL     1     -35.062  25.308   6.206  0.00  0.00    +0.211 HD
ENDBRANCH  11  15
BRANCH  12  17
ATOM     17  O   UNL     1     -36.219  22.319   5.788  0.00  0.00    -0.379 OA
ATOM     18  H   UNL     1     -37.018  22.865   5.739  0.00  0.00    +0.211 HD
ENDBRANCH  12  17
BRANCH  13  19
ATOM     19  O   UNL     1     -35.720  20.619   3.513  0.00  0.00    -0.379 OA
ATOM     20  H   UNL     1     -35.010  20.340   2.914  0.00  0.00    +0.211 HD
ENDBRANCH  13  19
ENDBRANCH   3  10
BRANCH   8  21
ATOM     21  O   UNL     1     -32.396  29.461   4.171  0.00  0.00    -0.505 OA
ATOM     22  H   UNL     1     -32.000  30.290   4.356  0.00  0.00    +0.292 HD
ENDBRANCH   8  21
BRANCH   8  23
ATOM     23  C   UNL     1     -33.993  30.662   2.841  0.00  0.00    +0.037 C 
ATOM     24  C   UNL     1     -33.264  31.786   2.745  0.00  0.00    +0.003 C 
BRANCH  24  25
ATOM     25  C   UNL     1     -33.791  33.020   2.203  0.00  0.00    +0.000 C 
ATOM     26  C   UNL     1     -33.126  34.185   2.257  0.00  0.00    +0.000 C 
BRANCH  26  27
ATOM     27  C   UNL     1     -33.653  35.419   1.715  0.00  0.00    +0.000 C 
ATOM     28  C   UNL     1     -32.888  36.491   1.461  0.00  0.00    +0.000 C 
BRANCH  28  29
ATOM     29  C   UNL     1     -33.416  37.726   0.920  0.00  0.00    +0.000 C 
ATOM     30  C   UNL     1     -32.746  38.887   0.959  0.00  0.00    +0.001 C 
BRANCH  30  32
ATOM     31 CL   UNL     1     -34.261  41.003   2.787  0.00  0.00    -0.087 Cl
ATOM     32  C   UNL     1     -33.280  40.120   0.416  0.00  0.00    +0.007 C 
ATOM     33  C   UNL     1     -33.934  41.083   1.085  0.00  0.00    +0.036 C 
ATOM     34  C   UNL     1     -34.449  42.326   0.427  0.00  0.00    +0.044 C 
ENDBRANCH  30  32
ENDBRANCH  28  29
ENDBRANCH  26  27
ENDBRANCH  24  25
ENDBRANCH   8  23
BRANCH   4  35
ATOM     35  C   UNL     1     -37.121  26.396   2.805  0.00  0.00    +0.113 C 
BRANCH  35  38
ATOM     36  O   UNL     1     -38.994  26.958   1.372  0.00  0.00    -0.275 OA
ATOM     37  N   UNL     1     -38.026  24.882   1.171  0.00  0.00    -0.329 N 
ATOM     38  C   UNL     1     -38.148  26.140   1.721  0.00  0.00    +0.222 C 
ATOM     39  H   UNL     1     -38.638  24.596   0.455  0.00  0.00    +0.145 HD
ATOM     40  H   UNL     1     -37.326  24.270   1.494  0.00  0.00    +0.145 HD
ENDBRANCH  35  38
ENDBRANCH   4  35
TORSDOF 12
ENDMDL
MODEL 4
REMARK VINA RESULT:      -6.2      1.643      2.400
REMARK  Name = 54693864
REMARK  12 active torsions:
REMARK  status: ('A' for Active; 'I' for Inactive)
REMARK    1  A    between atoms: N_3  and  C_10
REMARK    2  A    between atoms: C_4  and  C_35
REMARK    3  A    between atoms: C_8  and  O_21
REMARK    4  A    between atoms: C_8  and  C_23
REMARK    5  A    between atoms: C_11  and  O_15
REMARK    6  A    between atoms: C_12  and  O_17
REMARK    7  A    between atoms: C_13  and  O_19
REMARK    8  A    between atoms: C_24  and  C_25
REMARK    9  A    between atoms: C_26  and  C_27
REMARK   10  A    between atoms: C_28  and  C_29
REMARK   11  A    between atoms: C_30  and  C_32
REMARK   12  A    between atoms: C_35  and  C_38
REMARK                            x       y       z     vdW  Elec       q    Type
REMARK                         _______ _______ _______ _____ _____    ______ ____
ROOT
ATOM      1  O   UNL     1     -33.509  25.106   3.802  0.00  0.00    -0.270 OA
ATOM      2  O   UNL     1     -36.759  27.202   1.118  0.00  0.00    -0.289 OA
ATOM      3  N   UNL     1     -35.099  24.334   2.222  0.00  0.00    -0.246 N 
ATOM      4  C   UNL     1     -36.155  24.851   1.333  0.00  0.00    +0.149 C 
ATOM      5  C   UNL     1     -34.412  25.270   3.002  0.00  0.00    +0.257 C 
ATOM      6  C   UNL     1     -36.069  26.333   1.626  0.00  0.00    +0.199 C 
ATOM      7  C   UNL     1     -35.017  26.563   2.636  0.00  0.00    +0.123 C 
ATOM      8  C   UNL     1     -34.668  27.755   3.138  0.00  0.00    +0.141 C 
ENDROOT
BRANCH   3  10
ATOM      9  O   UNL     1     -34.417  22.572   0.889  0.00  0.00    -0.333 OA
ATOM     10  C   UNL     1     -34.770  22.930   2.223  0.00  0.00    +0.225 C 
ATOM     11  C   UNL     1     -35.946  22.090   2.728  0.00  0.00    +0.187 C 
ATOM     12  C   UNL     1     -35.666  20.594   2.566  0.00  0.00    +0.171 C 
ATOM     13  C   UNL     1     -35.149  20.278   1.163  0.00  0.00    +0.169 C 
ATOM     14  C   UNL     1     -34.007  21.213   0.788  0.00  0.00    +0.176 C 
BRANCH  11  15
ATOM     15  O   UNL     1     -36.153  22.382   4.108  0.00  0.00    -0.378 OA
ATOM     16  H   UNL     1     -36.578  21.624   4.540  0.00  0.00    +0.211 HD
ENDBRANCH  11  15
BRANCH  12  17
ATOM     17  O   UNL     1     -36.873  19.858   2.769  0.00  0.00    -0.379 OA
ATOM     18  H   UNL     1     -37.048  19.779   3.719  0.00  0.00    +0.211 HD
ENDBRANCH  12  17
BRANCH  13  19
ATOM     19  O   UNL     1     -34.692  18.930   1.127  0.00  0.00    -0.379 OA
ATOM     20  H   UNL     1     -35.444  18.331   1.258  0.00  0.00    +0.211 HD
ENDBRANCH  13  19
ENDBRANCH   3  10
BRANCH   8  21
ATOM     21  O   UNL     1     -33.669  27.881   4.085  0.00  0.00    -0.505 OA
ATOM     22  H   UNL     1     -33.572  28.684   4.558  0.00  0.00    +0.292 HD
ENDBRANCH   8  21
BRANCH   8  23
ATOM     23  C   UNL     1     -35.311  28.990   2.730  0.00  0.00    +0.037 C 
ATOM     24  C   UNL     1     -34.835  30.226   2.948  0.00  0.00    +0.003 C 
BRANCH  24  25
ATOM     25  C   UNL     1     -35.525  31.422   2.515  0.00  0.00    +0.000 C 
ATOM     26  C   UNL     1     -36.643  31.392   1.773  0.00  0.00    +0.000 C 
BRANCH  26  27
ATOM     27  C   UNL     1     -37.333  32.588   1.338  0.00  0.00    +0.000 C 
ATOM     28  C   UNL     1     -38.247  33.218   2.091  0.00  0.00    +0.000 C 
BRANCH  28  29
ATOM     29  C   UNL     1     -38.937  34.414   1.656  0.00  0.00    +0.000 C 
ATOM     30  C   UNL     1     -40.272  34.544   1.694  0.00  0.00    +0.001 C 
BRANCH  30  32
ATOM     31 CL   UNL     1     -41.957  34.620  -1.002  0.00  0.00    -0.087 Cl
ATOM     32  C   UNL     1     -40.956  35.744   1.257  0.00  0.00    +0.007 C 
ATOM     33  C   UNL     1     -41.693  35.895   0.144  0.00  0.00    +0.036 C 
ATOM     34  C   UNL     1     -42.363  37.184  -0.220  0.00  0.00    +0.044 C 
ENDBRANCH  30  32
ENDBRANCH  28  29
ENDBRANCH  26  27
ENDBRANCH  24  25
ENDBRANCH   8  23
BRANCH   4  35
ATOM     35  C   UNL     1     -37.535  24.311   1.659  0.00  0.00    +0.113 C 
BRANCH  35  38
ATOM     36  O   UNL     1     -37.776  24.698   4.040  0.00  0.00    -0.275 OA
ATOM     37  N   UNL     1     -39.125  25.859   2.584  0.00  0.00    -0.329 N 
ATOM     38  C   UNL     1     -38.133  24.954   2.894  0.00  0.00    +0.222 C 
ATOM     39  H   UNL     1     -39.591  26.344   3.303  0.00  0.00    +0.145 HD
ATOM     40  H   UNL     1     -39.367  26.022   1.644  0.00  0.00    +0.145 HD
ENDBRANCH  35  38
ENDBRANCH   4  35
TORSDOF 12
ENDMDL
MODEL 5
REMARK VINA RESULT:      -6.1      4.032      5.421
REMARK  Name = 54693864
REMARK  12 active torsions:
REMARK  status: ('A' for Active; 'I' for Inactive)
REMARK    1  A    between atoms: N_3  and  C_10
REMARK    2  A    between atoms: C_4  and  C_35
REMARK    3  A    between atoms: C_8  and  O_21
REMARK    4  A    between atoms: C_8  and  C_23
REMARK    5  A    between atoms: C_11  and  O_15
REMARK    6  A    between atoms: C_12  and  O_17
REMARK    7  A    between atoms: C_13  and  O_19
REMARK    8  A    between atoms: C_24  and  C_25
REMARK    9  A    between atoms: C_26  and  C_27
REMARK   10  A    between atoms: C_28  and  C_29
REMARK   11  A    between atoms: C_30  and  C_32
REMARK   12  A    between atoms: C_35  and  C_38
REMARK                            x       y       z     vdW  Elec       q    Type
REMARK                         _______ _______ _______ _____ _____    ______ ____
ROOT
ATOM      1  O   UNL     1     -36.851  28.031   1.503  0.00  0.00    -0.270 OA
ATOM      2  O   UNL     1     -33.841  31.355   2.934  0.00  0.00    -0.289 OA
ATOM      3  N   UNL     1     -34.836  28.012   2.752  0.00  0.00    -0.246 N 
ATOM      4  C   UNL     1     -33.810  28.940   3.260  0.00  0.00    +0.149 C 
ATOM      5  C   UNL     1     -35.890  28.570   2.021  0.00  0.00    +0.257 C 
ATOM      6  C   UNL     1     -34.352  30.261   2.758  0.00  0.00    +0.199 C 
ATOM      7  C   UNL     1     -35.602  30.015   2.012  0.00  0.00    +0.123 C 
ATOM      8  C   UNL     1     -36.353  30.954   1.422  0.00  0.00    +0.141 C 
ENDROOT
BRANCH   3  10
ATOM      9  O   UNL     1     -34.623  25.904   1.827  0.00  0.00    -0.333 OA
ATOM     10  C   UNL     1     -34.763  26.605   3.060  0.00  0.00    +0.225 C 
ATOM     11  C   UNL     1     -36.010  26.142   3.820  0.00  0.00    +0.187 C 
ATOM     12  C   UNL     1     -36.018  24.621   3.993  0.00  0.00    +0.171 C 
ATOM     13  C   UNL     1     -35.716  23.914   2.673  0.00  0.00    +0.169 C 
ATOM     14  C   UNL     1     -34.473  24.502   2.019  0.00  0.00    +0.176 C 
BRANCH  11  15
ATOM     15  O   UNL     1     -36.014  26.762   5.104  0.00  0.00    -0.378 OA
ATOM     16  H   UNL     1     -36.923  26.804   5.441  0.00  0.00    +0.211 HD
ENDBRANCH  11  15
BRANCH  12  17
ATOM     17  O   UNL     1     -37.308  24.200   4.437  0.00  0.00    -0.379 OA
ATOM     18  H   UNL     1     -37.802  23.829   3.690  0.00  0.00    +0.211 HD
ENDBRANCH  12  17
BRANCH  13  19
ATOM     19  O   UNL     1     -35.512  22.528   2.923  0.00  0.00    -0.379 OA
ATOM     20  H   UNL     1     -35.502  22.370   3.880  0.00  0.00    +0.211 HD
ENDBRANCH  13  19
ENDBRANCH   3  10
BRANCH   8  21
ATOM     21  O   UNL     1     -37.512  30.637   0.740  0.00  0.00    -0.505 OA
ATOM     22  H   UNL     1     -37.858  31.230   0.102  0.00  0.00    +0.292 HD
ENDBRANCH   8  21
BRANCH   8  23
ATOM     23  C   UNL     1     -36.006  32.363   1.454  0.00  0.00    +0.037 C 
ATOM     24  C   UNL     1     -36.819  33.374   1.111  0.00  0.00    +0.003 C 
BRANCH  24  25
ATOM     25  C   UNL     1     -36.412  34.762   1.165  0.00  0.00    +0.000 C 
ATOM     26  C   UNL     1     -37.120  35.754   0.602  0.00  0.00    +0.000 C 
BRANCH  26  27
ATOM     27  C   UNL     1     -36.713  37.142   0.654  0.00  0.00    +0.000 C 
ATOM     28  C   UNL     1     -35.459  37.545   0.401  0.00  0.00    +0.000 C 
BRANCH  28  29
ATOM     29  C   UNL     1     -35.051  38.933   0.454  0.00  0.00    +0.000 C 
ATOM     30  C   UNL     1     -33.894  39.336   1.000  0.00  0.00    +0.001 C 
BRANCH  30  32
ATOM     31 CL   UNL     1     -34.755  41.240   3.397  0.00  0.00    -0.087 Cl
ATOM     32  C   UNL     1     -33.492  40.728   1.050  0.00  0.00    +0.007 C 
ATOM     33  C   UNL     1     -33.793  41.623   2.005  0.00  0.00    +0.036 C 
ATOM     34  C   UNL     1     -33.327  43.045   1.964  0.00  0.00    +0.044 C 
ENDBRANCH  30  32
ENDBRANCH  28  29
ENDBRANCH  26  27
ENDBRANCH  24  25
ENDBRANCH   8  23
BRANCH   4  35
ATOM     35  C   UNL     1     -32.425  28.673   2.701  0.00  0.00    +0.113 C 
BRANCH  35  38
ATOM     36  O   UNL     1     -30.160  28.678   3.565  0.00  0.00    -0.275 OA
ATOM     37  N   UNL     1     -31.910  28.452   5.039  0.00  0.00    -0.329 N 
ATOM     38  C   UNL     1     -31.366  28.605   3.782  0.00  0.00    +0.222 C 
ATOM     39  H   UNL     1     -31.322  28.395   5.826  0.00  0.00    +0.145 HD
ATOM     40  H   UNL     1     -32.887  28.401   5.150  0.00  0.00    +0.145 HD
ENDBRANCH  35  38
ENDBRANCH   4  35
TORSDOF 12
ENDMDL
MODEL 6
REMARK VINA RESULT:      -5.9      3.854      5.086
REMARK  Name = 54693864
REMARK  12 active torsions:
REMARK  status: ('A' for Active; 'I' for Inactive)
REMARK    1  A    between atoms: N_3  and  C_10
REMARK    2  A    between atoms: C_4  and  C_35
REMARK    3  A    between atoms: C_8  and  O_21
REMARK    4  A    between atoms: C_8  and  C_23
REMARK    5  A    between atoms: C_11  and  O_15
REMARK    6  A    between atoms: C_12  and  O_17
REMARK    7  A    between atoms: C_13  and  O_19
REMARK    8  A    between atoms: C_24  and  C_25
REMARK    9  A    between atoms: C_26  and  C_27
REMARK   10  A    between atoms: C_28  and  C_29
REMARK   11  A    between atoms: C_30  and  C_32
REMARK   12  A    between atoms: C_35  and  C_38
REMARK                            x       y       z     vdW  Elec       q    Type
REMARK                         _______ _______ _______ _____ _____    ______ ____
ROOT
ATOM      1  O   UNL     1     -36.461  26.700   2.261  0.00  0.00    -0.270 OA
ATOM      2  O   UNL     1     -32.537  29.277   1.923  0.00  0.00    -0.289 OA
ATOM      3  N   UNL     1     -34.153  26.248   2.560  0.00  0.00    -0.246 N 
ATOM      4  C   UNL     1     -32.848  26.927   2.487  0.00  0.00    +0.149 C 
ATOM      5  C   UNL     1     -35.285  27.016   2.269  0.00  0.00    +0.257 C 
ATOM      6  C   UNL     1     -33.279  28.326   2.103  0.00  0.00    +0.199 C 
ATOM      7  C   UNL     1     -34.749  28.356   1.973  0.00  0.00    +0.123 C 
ATOM      8  C   UNL     1     -35.478  29.429   1.640  0.00  0.00    +0.141 C 
ENDROOT
BRANCH   3  10
ATOM      9  O   UNL     1     -35.056  24.187   2.027  0.00  0.00    -0.333 OA
ATOM     10  C   UNL     1     -34.236  24.868   2.973  0.00  0.00    +0.225 C 
ATOM     11  C   UNL     1     -34.809  24.750   4.388  0.00  0.00    +0.187 C 
ATOM     12  C   UNL     1     -35.062  23.287   4.761  0.00  0.00    +0.171 C 
ATOM     13  C   UNL     1     -35.817  22.558   3.651  0.00  0.00    +0.169 C 
ATOM     14  C   UNL     1     -35.152  22.794   2.302  0.00  0.00    +0.176 C 
BRANCH  11  15
ATOM     15  O   UNL     1     -33.873  25.314   5.305  0.00  0.00    -0.378 OA
ATOM     16  H   UNL     1     -33.369  26.016   4.863  0.00  0.00    +0.211 HD
ENDBRANCH  11  15
BRANCH  12  17
ATOM     17  O   UNL     1     -35.853  23.229   5.949  0.00  0.00    -0.379 OA
ATOM     18  H   UNL     1     -35.305  23.458   6.715  0.00  0.00    +0.211 HD
ENDBRANCH  12  17
BRANCH  13  19
ATOM     19  O   UNL     1     -35.832  21.163   3.937  0.00  0.00    -0.379 OA
ATOM     20  H   UNL     1     -35.834  20.663   3.105  0.00  0.00    +0.211 HD
ENDBRANCH  13  19
ENDBRANCH   3  10
BRANCH   8  21
ATOM     21  O   UNL     1     -36.855  29.371   1.539  0.00  0.00    -0.505 OA
ATOM     22  H   UNL     1     -37.344  28.823   2.122  0.00  0.00    +0.292 HD
ENDBRANCH   8  21
BRANCH   8  23
ATOM     23  C   UNL     1     -34.880  30.721   1.360  0.00  0.00    +0.037 C 
ATOM     24  C   UNL     1     -34.927  31.793   2.167  0.00  0.00    +0.003 C 
BRANCH  24  25
ATOM     25  C   UNL     1     -34.307  33.058   1.830  0.00  0.00    +0.000 C 
ATOM     26  C   UNL     1     -35.004  34.119   1.392  0.00  0.00    +0.000 C 
BRANCH  26  27
ATOM     27  C   UNL     1     -34.385  35.383   1.055  0.00  0.00    +0.000 C 
ATOM     28  C   UNL     1     -35.085  36.458   0.666  0.00  0.00    +0.000 C 
BRANCH  28  29
ATOM     29  C   UNL     1     -34.466  37.723   0.329  0.00  0.00    +0.000 C 
ATOM     30  C   UNL     1     -34.882  38.897   0.825  0.00  0.00    +0.001 C 
BRANCH  30  32
ATOM     31 CL   UNL     1     -34.516  41.219   2.968  0.00  0.00    -0.087 Cl
ATOM     32  C   UNL     1     -34.258  40.160   0.482  0.00  0.00    +0.007 C 
ATOM     33  C   UNL     1     -34.050  41.207   1.297  0.00  0.00    +0.036 C 
ATOM     34  C   UNL     1     -33.393  42.474   0.842  0.00  0.00    +0.044 C 
ENDBRANCH  30  32
ENDBRANCH  28  29
ENDBRANCH  26  27
ENDBRANCH  24  25
ENDBRANCH   8  23
BRANCH   4  35
ATOM     35  C   UNL     1     -31.919  26.338   1.442  0.00  0.00    +0.113 C 
BRANCH  35  38
ATOM     36  O   UNL     1     -29.792  26.088   2.578  0.00  0.00    -0.275 OA
ATOM     37  N   UNL     1     -29.974  27.641   0.893  0.00  0.00    -0.329 N 
ATOM     38  C   UNL     1     -30.462  26.651   1.718  0.00  0.00    +0.222 C 
ATOM     39  H   UNL     1     -29.038  27.934   0.975  0.00  0.00    +0.145 HD
ATOM     40  H   UNL     1     -30.562  28.055   0.221  0.00  0.00    +0.145 HD
ENDBRANCH  35  38
ENDBRANCH   4  35
TORSDOF 12
ENDMDL
MODEL 7
REMARK VINA RESULT:      -5.9      6.788     13.290
REMARK  Name = 54693864
REMARK  12 active torsions:
REMARK  status: ('A' for Active; 'I' for Inactive)
REMARK    1  A    between atoms: N_3  and  C_10
REMARK    2  A    between atoms: C_4  and  C_35
REMARK    3  A    between atoms: C_8  and  O_21
REMARK    4  A    between atoms: C_8  and  C_23
REMARK    5  A    between atoms: C_11  and  O_15
REMARK    6  A    between atoms: C_12  and  O_17
REMARK    7  A    between atoms: C_13  and  O_19
REMARK    8  A    between atoms: C_24  and  C_25
REMARK    9  A    between atoms: C_26  and  C_27
REMARK   10  A    between atoms: C_28  and  C_29
REMARK   11  A    between atoms: C_30  and  C_32
REMARK   12  A    between atoms: C_35  and  C_38
REMARK                            x       y       z     vdW  Elec       q    Type
REMARK                         _______ _______ _______ _____ _____    ______ ____
ROOT
ATOM      1  O   UNL     1     -39.992  23.014   2.018  0.00  0.00    -0.270 OA
ATOM      2  O   UNL     1     -35.399  23.316   2.999  0.00  0.00    -0.289 OA
ATOM      3  N   UNL     1     -38.558  24.775   2.697  0.00  0.00    -0.246 N 
ATOM      4  C   UNL     1     -37.145  25.016   3.039  0.00  0.00    +0.149 C 
ATOM      5  C   UNL     1     -38.910  23.468   2.341  0.00  0.00    +0.257 C 
ATOM      6  C   UNL     1     -36.566  23.632   2.839  0.00  0.00    +0.199 C 
ATOM      7  C   UNL     1     -37.646  22.715   2.423  0.00  0.00    +0.123 C 
ATOM      8  C   UNL     1     -37.501  21.409   2.163  0.00  0.00    +0.141 C 
ENDROOT
BRANCH   3  10
ATOM      9  O   UNL     1     -40.551  25.534   3.588  0.00  0.00    -0.333 OA
ATOM     10  C   UNL     1     -39.501  25.866   2.683  0.00  0.00    +0.225 C 
ATOM     11  C   UNL     1     -40.043  26.106   1.272  0.00  0.00    +0.187 C 
ATOM     12  C   UNL     1     -41.170  27.142   1.283  0.00  0.00    +0.171 C 
ATOM     13  C   UNL     1     -42.198  26.827   2.368  0.00  0.00    +0.169 C 
ATOM     14  C   UNL     1     -41.511  26.578   3.704  0.00  0.00    +0.176 C 
BRANCH  11  15
ATOM     15  O   UNL     1     -38.977  26.581   0.452  0.00  0.00    -0.378 OA
ATOM     16  H   UNL     1     -38.460  25.828   0.124  0.00  0.00    +0.211 HD
ENDBRANCH  11  15
BRANCH  12  17
ATOM     17  O   UNL     1     -41.840  27.129   0.021  0.00  0.00    -0.379 OA
ATOM     18  H   UNL     1     -41.739  26.257  -0.391  0.00  0.00    +0.211 HD
ENDBRANCH  12  17
BRANCH  13  19
ATOM     19  O   UNL     1     -43.097  27.924   2.491  0.00  0.00    -0.379 OA
ATOM     20  H   UNL     1     -43.857  27.659   3.033  0.00  0.00    +0.211 HD
ENDBRANCH  13  19
ENDBRANCH   3  10
BRANCH   8  21
ATOM     21  O   UNL     1     -38.569  20.621   1.779  0.00  0.00    -0.505 OA
ATOM     22  H   UNL     1     -39.214  20.960   1.189  0.00  0.00    +0.292 HD
ENDBRANCH   8  21
BRANCH   8  23
ATOM     23  C   UNL     1     -36.222  20.732   2.266  0.00  0.00    +0.037 C 
ATOM     24  C   UNL     1     -35.560  20.157   1.250  0.00  0.00    +0.003 C 
BRANCH  24  25
ATOM     25  C   UNL     1     -34.284  19.495   1.418  0.00  0.00    +0.000 C 
ATOM     26  C   UNL     1     -33.853  18.521   0.601  0.00  0.00    +0.000 C 
BRANCH  26  27
ATOM     27  C   UNL     1     -32.577  17.858   0.770  0.00  0.00    +0.000 C 
ATOM     28  C   UNL     1     -31.410  18.518   0.804  0.00  0.00    +0.000 C 
BRANCH  28  29
ATOM     29  C   UNL     1     -30.134  17.856   0.972  0.00  0.00    +0.000 C 
ATOM     30  C   UNL     1     -29.818  16.708   0.354  0.00  0.00    +0.001 C 
BRANCH  30  32
ATOM     31 CL   UNL     1     -29.566  13.539   0.437  0.00  0.00    -0.087 Cl
ATOM     32  C   UNL     1     -28.539  16.049   0.528  0.00  0.00    +0.007 C 
ATOM     33  C   UNL     1     -28.310  14.726   0.579  0.00  0.00    +0.036 C 
ATOM     34  C   UNL     1     -26.943  14.144   0.763  0.00  0.00    +0.044 C 
ENDBRANCH  30  32
ENDBRANCH  28  29
ENDBRANCH  26  27
ENDBRANCH  24  25
ENDBRANCH   8  23
BRANCH   4  35
ATOM     35  C   UNL     1     -36.941  25.490   4.465  0.00  0.00    +0.113 C 
BRANCH  35  38
ATOM     36  O   UNL     1     -34.732  25.857   5.395  0.00  0.00    -0.275 OA
ATOM     37  N   UNL     1     -35.566  27.375   3.883  0.00  0.00    -0.329 N 
ATOM     38  C   UNL     1     -35.632  26.231   4.649  0.00  0.00    +0.222 C 
ATOM     39  H   UNL     1     -34.763  27.944   3.915  0.00  0.00    +0.145 HD
ATOM     40  H   UNL     1     -36.322  27.622   3.302  0.00  0.00    +0.145 HD
ENDBRANCH  35  38
ENDBRANCH   4  35
TORSDOF 12
ENDMDL
MODEL 8
REMARK VINA RESULT:      -5.8      3.930      5.230
REMARK  Name = 54693864
REMARK  12 active torsions:
REMARK  status: ('A' for Active; 'I' for Inactive)
REMARK    1  A    between atoms: N_3  and  C_10
REMARK    2  A    between atoms: C_4  and  C_35
REMARK    3  A    between atoms: C_8  and  O_21
REMARK    4  A    between atoms: C_8  and  C_23
REMARK    5  A    between atoms: C_11  and  O_15
REMARK    6  A    between atoms: C_12  and  O_17
REMARK    7  A    between atoms: C_13  and  O_19
REMARK    8  A    between atoms: C_24  and  C_25
REMARK    9  A    between atoms: C_26  and  C_27
REMARK   10  A    between atoms: C_28  and  C_29
REMARK   11  A    between atoms: C_30  and  C_32
REMARK   12  A    between atoms: C_35  and  C_38
REMARK                            x       y       z     vdW  Elec       q    Type
REMARK                         _______ _______ _______ _____ _____    ______ ____
ROOT
ATOM      1  O   UNL     1     -36.830  26.985   0.529  0.00  0.00    -0.270 OA
ATOM      2  O   UNL     1     -34.201  29.686   3.348  0.00  0.00    -0.289 OA
ATOM      3  N   UNL     1     -35.933  26.721   2.707  0.00  0.00    -0.246 N 
ATOM      4  C   UNL     1     -35.112  27.451   3.689  0.00  0.00    +0.149 C 
ATOM      5  C   UNL     1     -36.188  27.364   1.491  0.00  0.00    +0.257 C 
ATOM      6  C   UNL     1     -34.850  28.738   2.937  0.00  0.00    +0.199 C 
ATOM      7  C   UNL     1     -35.503  28.663   1.615  0.00  0.00    +0.123 C 
ATOM      8  C   UNL     1     -35.477  29.621   0.679  0.00  0.00    +0.141 C 
ENDROOT
BRANCH   3  10
ATOM      9  O   UNL     1     -35.789  24.459   2.255  0.00  0.00    -0.333 OA
ATOM     10  C   UNL     1     -36.484  25.429   3.034  0.00  0.00    +0.225 C 
ATOM     11  C   UNL     1     -37.989  25.386   2.755  0.00  0.00    +0.187 C 
ATOM     12  C   UNL     1     -38.543  23.971   2.933  0.00  0.00    +0.171 C 
ATOM     13  C   UNL     1     -37.679  22.945   2.201  0.00  0.00    +0.169 C 
ATOM     14  C   UNL     1     -36.209  23.132   2.550  0.00  0.00    +0.176 C 
BRANCH  11  15
ATOM     15  O   UNL     1     -38.644  26.265   3.667  0.00  0.00    -0.378 OA
ATOM     16  H   UNL     1     -39.296  26.801   3.189  0.00  0.00    +0.211 HD
ENDBRANCH  11  15
BRANCH  12  17
ATOM     17  O   UNL     1     -39.863  23.905   2.392  0.00  0.00    -0.379 OA
ATOM     18  H   UNL     1     -40.493  24.273   3.031  0.00  0.00    +0.211 HD
ENDBRANCH  12  17
BRANCH  13  19
ATOM     19  O   UNL     1     -38.095  21.635   2.574  0.00  0.00    -0.379 OA
ATOM     20  H   UNL     1     -38.773  21.696   3.264  0.00  0.00    +0.211 HD
ENDBRANCH  13  19
ENDBRANCH   3  10
BRANCH   8  21
ATOM     21  O   UNL     1     -36.117  29.469  -0.536  0.00  0.00    -0.505 OA
ATOM     22  H   UNL     1     -35.626  29.225  -1.296  0.00  0.00    +0.292 HD
ENDBRANCH   8  21
BRANCH   8  23
ATOM     23  C   UNL     1     -34.780  30.879   0.872  0.00  0.00    +0.037 C 
ATOM     24  C   UNL     1     -35.358  32.055   1.161  0.00  0.00    +0.003 C 
BRANCH  24  25
ATOM     25  C   UNL     1     -34.605  33.278   1.342  0.00  0.00    +0.000 C 
ATOM     26  C   UNL     1     -35.112  34.493   1.080  0.00  0.00    +0.000 C 
BRANCH  26  27
ATOM     27  C   UNL     1     -34.358  35.716   1.260  0.00  0.00    +0.000 C 
ATOM     28  C   UNL     1     -34.647  36.854   0.611  0.00  0.00    +0.000 C 
BRANCH  28  29
ATOM     29  C   UNL     1     -33.894  38.077   0.791  0.00  0.00    +0.000 C 
ATOM     30  C   UNL     1     -34.473  39.275   0.958  0.00  0.00    +0.001 C 
BRANCH  30  32
ATOM     31 CL   UNL     1     -34.918  41.171   3.472  0.00  0.00    -0.087 Cl
ATOM     32  C   UNL     1     -33.713  40.496   1.136  0.00  0.00    +0.007 C 
ATOM     33  C   UNL     1     -33.812  41.371   2.151  0.00  0.00    +0.036 C 
ATOM     34  C   UNL     1     -32.976  42.610   2.242  0.00  0.00    +0.044 C 
ENDBRANCH  30  32
ENDBRANCH  28  29
ENDBRANCH  26  27
ENDBRANCH  24  25
ENDBRANCH   8  23
BRANCH   4  35
ATOM     35  C   UNL     1     -33.812  26.747   4.031  0.00  0.00    +0.113 C 
BRANCH  35  38
ATOM     36  O   UNL     1     -33.705  26.264   6.405  0.00  0.00    -0.275 OA
ATOM     37  N   UNL     1     -32.589  28.104   5.595  0.00  0.00    -0.329 N 
ATOM     38  C   UNL     1     -33.383  26.985   5.465  0.00  0.00    +0.222 C 
ATOM     39  H   UNL     1     -32.246  28.365   6.480  0.00  0.00    +0.145 HD
ATOM     40  H   UNL     1     -32.365  28.643   4.802  0.00  0.00    +0.145 HD
ENDBRANCH  35  38
ENDBRANCH   4  35
TORSDOF 12
ENDMDL
MODEL 9
REMARK VINA RESULT:      -5.8      4.030      4.958
REMARK  Name = 54693864
REMARK  12 active torsions:
REMARK  status: ('A' for Active; 'I' for Inactive)
REMARK    1  A    between atoms: N_3  and  C_10
REMARK    2  A    between atoms: C_4  and  C_35
REMARK    3  A    between atoms: C_8  and  O_21
REMARK    4  A    between atoms: C_8  and  C_23
REMARK    5  A    between atoms: C_11  and  O_15
REMARK    6  A    between atoms: C_12  and  O_17
REMARK    7  A    between atoms: C_13  and  O_19
REMARK    8  A    between atoms: C_24  and  C_25
REMARK    9  A    between atoms: C_26  and  C_27
REMARK   10  A    between atoms: C_28  and  C_29
REMARK   11  A    between atoms: C_30  and  C_32
REMARK   12  A    between atoms: C_35  and  C_38
REMARK                            x       y       z     vdW  Elec       q    Type
REMARK                         _______ _______ _______ _____ _____    ______ ____
ROOT
ATOM      1  O   UNL     1     -34.286  24.519   0.892  0.00  0.00    -0.270 OA
ATOM      2  O   UNL     1     -35.181  28.398   3.404  0.00  0.00    -0.289 OA
ATOM      3  N   UNL     1     -35.605  24.983   2.806  0.00  0.00    -0.246 N 
ATOM      4  C   UNL     1     -35.969  26.109   3.685  0.00  0.00    +0.149 C 
ATOM      5  C   UNL     1     -34.733  25.260   1.748  0.00  0.00    +0.257 C 
ATOM      6  C   UNL     1     -35.198  27.236   3.032  0.00  0.00    +0.199 C 
ATOM      7  C   UNL     1     -34.457  26.703   1.872  0.00  0.00    +0.123 C 
ATOM      8  C   UNL     1     -33.663  27.415   1.061  0.00  0.00    +0.141 C 
ENDROOT
BRANCH   3  10
ATOM      9  O   UNL     1     -35.108  22.749   3.128  0.00  0.00    -0.333 OA
ATOM     10  C   UNL     1     -36.182  23.678   3.017  0.00  0.00    +0.225 C 
ATOM     11  C   UNL     1     -37.122  23.301   1.869  0.00  0.00    +0.187 C 
ATOM     12  C   UNL     1     -37.598  21.852   1.998  0.00  0.00    +0.171 C 
ATOM     13  C   UNL     1     -36.426  20.909   2.264  0.00  0.00    +0.169 C 
ATOM     14  C   UNL     1     -35.564  21.430   3.406  0.00  0.00    +0.176 C 
BRANCH  11  15
ATOM     15  O   UNL     1     -38.252  24.171   1.903  0.00  0.00    -0.378 OA
ATOM     16  H   UNL     1     -39.059  23.661   1.732  0.00  0.00    +0.211 HD
ENDBRANCH  11  15
BRANCH  12  17
ATOM     17  O   UNL     1     -38.226  21.447   0.781  0.00  0.00    -0.379 OA
ATOM     18  H   UNL     1     -38.067  22.115   0.097  0.00  0.00    +0.211 HD
ENDBRANCH  12  17
BRANCH  13  19
ATOM     19  O   UNL     1     -36.932  19.621   2.599  0.00  0.00    -0.379 OA
ATOM     20  H   UNL     1     -36.331  18.939   2.256  0.00  0.00    +0.211 HD
ENDBRANCH  13  19
ENDBRANCH   3  10
BRANCH   8  21
ATOM     21  O   UNL     1     -33.005  26.835  -0.006  0.00  0.00    -0.505 OA
ATOM     22  H   UNL     1     -33.173  25.941  -0.230  0.00  0.00    +0.292 HD
ENDBRANCH   8  21
BRANCH   8  23
ATOM     23  C   UNL     1     -33.438  28.836   1.245  0.00  0.00    +0.037 C 
ATOM     24  C   UNL     1     -33.939  29.812   0.470  0.00  0.00    +0.003 C 
BRANCH  24  25
ATOM     25  C   UNL     1     -33.676  31.216   0.706  0.00  0.00    +0.000 C 
ATOM     26  C   UNL     1     -33.577  31.744   1.936  0.00  0.00    +0.000 C 
BRANCH  26  27
ATOM     27  C   UNL     1     -33.315  33.147   2.173  0.00  0.00    +0.000 C 
ATOM     28  C   UNL     1     -34.015  34.130   1.586  0.00  0.00    +0.000 C 
BRANCH  28  29
ATOM     29  C   UNL     1     -33.753  35.534   1.823  0.00  0.00    +0.000 C 
ATOM     30  C   UNL     1     -33.060  36.303   0.969  0.00  0.00    +0.001 C 
BRANCH  30  32
ATOM     31 CL   UNL     1     -35.304  38.516   0.545  0.00  0.00    -0.087 Cl
ATOM     32  C   UNL     1     -32.801  37.708   1.213  0.00  0.00    +0.007 C 
ATOM     33  C   UNL     1     -33.664  38.727   1.069  0.00  0.00    +0.036 C 
ATOM     34  C   UNL     1     -33.296  40.151   1.347  0.00  0.00    +0.044 C 
ENDBRANCH  30  32
ENDBRANCH  28  29
ENDBRANCH  26  27
ENDBRANCH  24  25
ENDBRANCH   8  23
BRANCH   4  35
ATOM     35  C   UNL     1     -35.535  25.916   5.125  0.00  0.00    +0.113 C 
BRANCH  35  38
ATOM     36  O   UNL     1     -33.335  24.925   4.888  0.00  0.00    -0.275 OA
ATOM     37  N   UNL     1     -33.522  26.983   5.895  0.00  0.00    -0.329 N 
ATOM     38  C   UNL     1     -34.027  25.861   5.275  0.00  0.00    +0.222 C 
ATOM     39  H   UNL     1     -32.554  27.066   6.051  0.00  0.00    +0.145 HD
ATOM     40  H   UNL     1     -34.130  27.702   6.183  0.00  0.00    +0.145 HD
ENDBRANCH  35  38
ENDBRANCH   4  35
TORSDOF 12
ENDMDL
