MODEL 1
REMARK VINA RESULT:      -5.6      0.000      0.000
REMARK  Name = 54756941
REMARK  11 active torsions:
REMARK  status: ('A' for Active; 'I' for Inactive)
REMARK    1  A    between atoms: C_1  and  C_4
REMARK    2  A    between atoms: C_1  and  N_8
REMARK    3  A    between atoms: C_1  and  C_21
REMARK    4  A    between atoms: C_9  and  C_11
REMARK    5  A    between atoms: C_12  and  C_18
REMARK    6  A    between atoms: C_18  and  O_19
REMARK    7  A    between atoms: C_21  and  C_22
REMARK    8  A    between atoms: C_22  and  C_23
REMARK    9  A    between atoms: C_23  and  N_24
REMARK   10  A    between atoms: N_24  and  C_26
REMARK   11  A    between atoms: C_26  and  C_30
REMARK                            x       y       z     vdW  Elec       q    Type
REMARK                         _______ _______ _______ _____ _____    ______ ____
ROOT
ATOM      1  C   UNL     1     -35.699  27.010   1.171  0.00  0.00    +0.149 C 
ENDROOT
BRANCH   1   4
ATOM      2  O   UNL     1     -36.652  29.224   1.469  0.00  0.00    -0.274 OA
ATOM      3  N   UNL     1     -35.243  28.408   3.089  0.00  0.00    -0.327 N 
ATOM      4  C   UNL     1     -35.917  28.333   1.889  0.00  0.00    +0.237 C 
ATOM      5  H   UNL     1     -35.310  29.220   3.642  0.00  0.00    +0.145 HD
ATOM      6  H   UNL     1     -34.693  27.650   3.394  0.00  0.00    +0.145 HD
ENDBRANCH   1   4
BRANCH   1   8
ATOM      7  O   UNL     1     -33.554  25.550   2.401  0.00  0.00    -0.270 OA
ATOM      8  N   UNL     1     -35.823  25.966   2.154  0.00  0.00    -0.295 N 
ATOM      9  C   UNL     1     -34.723  25.313   2.696  0.00  0.00    +0.246 C 
ATOM     10  H   UNL     1     -36.724  25.705   2.456  0.00  0.00    +0.150 HD
BRANCH   9  11
ATOM     11  C   UNL     1     -35.021  24.241   3.680  0.00  0.00    +0.060 C 
ATOM     12  C   UNL     1     -35.230  24.533   5.028  0.00  0.00    +0.080 C 
ATOM     13  C   UNL     1     -35.089  22.921   3.233  0.00  0.00    +0.005 C 
ATOM     14  C   UNL     1     -35.508  23.505   5.929  0.00  0.00    +0.007 C 
ATOM     15  C   UNL     1     -35.367  21.893   4.134  0.00  0.00    +0.000 C 
ATOM     16  C   UNL     1     -35.576  22.186   5.482  0.00  0.00    +0.000 C 
BRANCH  12  18
ATOM     17  O   UNL     1     -34.184  26.419   6.064  0.00  0.00    -0.245 OA
ATOM     18  C   UNL     1     -35.166  25.901   5.525  0.00  0.00    +0.338 C 
BRANCH  18  19
ATOM     19  O   UNL     1     -36.330  26.577   5.331  0.00  0.00    -0.477 OA
ATOM     20  H   UNL     1     -36.782  26.952   6.062  0.00  0.00    +0.295 HD
ENDBRANCH  18  19
ENDBRANCH  12  18
ENDBRANCH   9  11
ENDBRANCH   1   8
BRANCH   1  21
ATOM     21  C   UNL     1     -36.705  26.850   0.025  0.00  0.00    +0.031 C 
BRANCH  21  22
ATOM     22  C   UNL     1     -37.773  25.793   0.332  0.00  0.00    +0.026 C 
BRANCH  22  23
ATOM     23  C   UNL     1     -39.080  26.411   0.816  0.00  0.00    +0.114 C 
BRANCH  23  24
ATOM     24  N   UNL     1     -38.999  26.680   2.253  0.00  0.00    -0.225 NA
BRANCH  24  26
ATOM     25  N   UNL     1     -38.651  24.931   3.868  0.00  0.00    -0.388 N 
ATOM     26  C   UNL     1     -39.399  25.739   3.041  0.00  0.00    +0.111 C 
ATOM     27  H   UNL     1     -37.672  25.031   3.900  0.00  0.00    +0.157 HD
ATOM     28  H   UNL     1     -39.095  24.253   4.426  0.00  0.00    +0.157 HD
BRANCH  26  30
ATOM     29 CL   UNL     1     -41.656  26.920   3.806  0.00  0.00    -0.105 Cl
ATOM     30  C   UNL     1     -40.895  25.498   3.070  0.00  0.00    +0.154 C 
ENDBRANCH  26  30
ENDBRANCH  24  26
ENDBRANCH  23  24
ENDBRANCH  22  23
ENDBRANCH  21  22
ENDBRANCH   1  21
TORSDOF 11
ENDMDL
MODEL 2
REMARK VINA RESULT:      -5.5      2.527      4.687
REMARK  Name = 54756941
REMARK  11 active torsions:
REMARK  status: ('A' for Active; 'I' for Inactive)
REMARK    1  A    between atoms: C_1  and  C_4
REMARK    2  A    between atoms: C_1  and  N_8
REMARK    3  A    between atoms: C_1  and  C_21
REMARK    4  A    between atoms: C_9  and  C_11
REMARK    5  A    between atoms: C_12  and  C_18
REMARK    6  A    between atoms: C_18  and  O_19
REMARK    7  A    between atoms: C_21  and  C_22
REMARK    8  A    between atoms: C_22  and  C_23
REMARK    9  A    between atoms: C_23  and  N_24
REMARK   10  A    between atoms: N_24  and  C_26
REMARK   11  A    between atoms: C_26  and  C_30
REMARK                            x       y       z     vdW  Elec       q    Type
REMARK                         _______ _______ _______ _____ _____    ______ ____
ROOT
ATOM      1  C   UNL     1     -35.787  22.859   4.231  0.00  0.00    +0.149 C 
ENDROOT
BRANCH   1   4
ATOM      2  O   UNL     1     -34.871  20.770   5.065  0.00  0.00    -0.274 OA
ATOM      3  N   UNL     1     -36.031  22.117   6.519  0.00  0.00    -0.327 N 
ATOM      4  C   UNL     1     -35.517  21.793   5.281  0.00  0.00    +0.237 C 
ATOM      5  H   UNL     1     -35.917  21.499   7.277  0.00  0.00    +0.145 HD
ATOM      6  H   UNL     1     -36.513  22.966   6.644  0.00  0.00    +0.145 HD
ENDBRANCH   1   4
BRANCH   1   8
ATOM      7  O   UNL     1     -36.465  25.460   5.241  0.00  0.00    -0.270 OA
ATOM      8  N   UNL     1     -34.878  23.947   4.485  0.00  0.00    -0.295 N 
ATOM      9  C   UNL     1     -35.299  25.175   4.977  0.00  0.00    +0.246 C 
ATOM     10  H   UNL     1     -33.919  23.813   4.305  0.00  0.00    +0.150 HD
BRANCH   9  11
ATOM     11  C   UNL     1     -34.241  26.201   5.160  0.00  0.00    +0.060 C 
ATOM     12  C   UNL     1     -33.893  27.076   4.131  0.00  0.00    +0.080 C 
ATOM     13  C   UNL     1     -33.589  26.278   6.391  0.00  0.00    +0.005 C 
ATOM     14  C   UNL     1     -32.895  28.029   4.333  0.00  0.00    +0.007 C 
ATOM     15  C   UNL     1     -32.591  27.231   6.594  0.00  0.00    +0.000 C 
ATOM     16  C   UNL     1     -32.244  28.106   5.564  0.00  0.00    +0.000 C 
BRANCH  12  18
ATOM     17  O   UNL     1     -34.059  26.570   1.798  0.00  0.00    -0.245 OA
ATOM     18  C   UNL     1     -34.555  27.021   2.834  0.00  0.00    +0.338 C 
BRANCH  18  19
ATOM     19  O   UNL     1     -35.816  27.529   2.875  0.00  0.00    -0.477 OA
ATOM     20  H   UNL     1     -36.487  27.163   2.332  0.00  0.00    +0.295 HD
ENDBRANCH  18  19
ENDBRANCH  12  18
ENDBRANCH   9  11
ENDBRANCH   1   8
BRANCH   1  21
ATOM     21  C   UNL     1     -35.618  22.280   2.822  0.00  0.00    +0.031 C 
BRANCH  21  22
ATOM     22  C   UNL     1     -35.569  23.372   1.747  0.00  0.00    +0.026 C 
BRANCH  22  23
ATOM     23  C   UNL     1     -36.952  23.720   1.206  0.00  0.00    +0.114 C 
BRANCH  23  24
ATOM     24  N   UNL     1     -37.341  25.056   1.660  0.00  0.00    -0.225 NA
BRANCH  24  26
ATOM     25  N   UNL     1     -38.627  26.147   3.376  0.00  0.00    -0.388 N 
ATOM     26  C   UNL     1     -38.301  25.119   2.521  0.00  0.00    +0.111 C 
ATOM     27  H   UNL     1     -38.086  26.970   3.385  0.00  0.00    +0.157 HD
ATOM     28  H   UNL     1     -39.400  26.060   3.979  0.00  0.00    +0.157 HD
BRANCH  26  30
ATOM     29 CL   UNL     1     -40.650  24.245   1.632  0.00  0.00    -0.105 Cl
ATOM     30  C   UNL     1     -39.199  23.900   2.591  0.00  0.00    +0.154 C 
ENDBRANCH  26  30
ENDBRANCH  24  26
ENDBRANCH  23  24
ENDBRANCH  22  23
ENDBRANCH  21  22
ENDBRANCH   1  21
TORSDOF 11
ENDMDL
MODEL 3
REMARK VINA RESULT:      -5.5      3.056      3.738
REMARK  Name = 54756941
REMARK  11 active torsions:
REMARK  status: ('A' for Active; 'I' for Inactive)
REMARK    1  A    between atoms: C_1  and  C_4
REMARK    2  A    between atoms: C_1  and  N_8
REMARK    3  A    between atoms: C_1  and  C_21
REMARK    4  A    between atoms: C_9  and  C_11
REMARK    5  A    between atoms: C_12  and  C_18
REMARK    6  A    between atoms: C_18  and  O_19
REMARK    7  A    between atoms: C_21  and  C_22
REMARK    8  A    between atoms: C_22  and  C_23
REMARK    9  A    between atoms: C_23  and  N_24
REMARK   10  A    between atoms: N_24  and  C_26
REMARK   11  A    between atoms: C_26  and  C_30
REMARK                            x       y       z     vdW  Elec       q    Type
REMARK                         _______ _______ _______ _____ _____    ______ ____
ROOT
ATOM      1  C   UNL     1     -38.048  25.008   1.374  0.00  0.00    +0.149 C 
ENDROOT
BRANCH   1   4
ATOM      2  O   UNL     1     -38.975  27.242   1.141  0.00  0.00    -0.274 OA
ATOM      3  N   UNL     1     -39.063  26.225   3.199  0.00  0.00    -0.327 N 
ATOM      4  C   UNL     1     -38.721  26.281   1.865  0.00  0.00    +0.237 C 
ATOM      5  H   UNL     1     -39.505  26.995   3.627  0.00  0.00    +0.145 HD
ATOM      6  H   UNL     1     -38.865  25.417   3.725  0.00  0.00    +0.145 HD
ENDBRANCH   1   4
BRANCH   1   8
ATOM      7  O   UNL     1     -35.269  24.674   2.010  0.00  0.00    -0.270 OA
ATOM      8  N   UNL     1     -37.505  24.340   2.528  0.00  0.00    -0.295 N 
ATOM      9  C   UNL     1     -36.140  24.228   2.753  0.00  0.00    +0.246 C 
ATOM     10  H   UNL     1     -38.127  23.949   3.183  0.00  0.00    +0.150 HD
BRANCH   9  11
ATOM     11  C   UNL     1     -35.741  23.487   3.977  0.00  0.00    +0.060 C 
ATOM     12  C   UNL     1     -35.523  24.148   5.186  0.00  0.00    +0.080 C 
ATOM     13  C   UNL     1     -35.582  22.103   3.901  0.00  0.00    +0.005 C 
ATOM     14  C   UNL     1     -35.149  23.424   6.319  0.00  0.00    +0.007 C 
ATOM     15  C   UNL     1     -35.208  21.380   5.033  0.00  0.00    +0.000 C 
ATOM     16  C   UNL     1     -34.991  22.041   6.242  0.00  0.00    +0.000 C 
BRANCH  12  18
ATOM     17  O   UNL     1     -34.766  26.396   5.494  0.00  0.00    -0.245 OA
ATOM     18  C   UNL     1     -35.681  25.592   5.298  0.00  0.00    +0.338 C 
BRANCH  18  19
ATOM     19  O   UNL     1     -36.976  25.983   5.160  0.00  0.00    -0.477 OA
ATOM     20  H   UNL     1     -37.499  25.636   4.464  0.00  0.00    +0.295 HD
ENDBRANCH  18  19
ENDBRANCH  12  18
ENDBRANCH   9  11
ENDBRANCH   1   8
BRANCH   1  21
ATOM     21  C   UNL     1     -39.050  24.132   0.614  0.00  0.00    +0.031 C 
BRANCH  21  22
ATOM     22  C   UNL     1     -39.823  23.191   1.546  0.00  0.00    +0.026 C 
BRANCH  22  23
ATOM     23  C   UNL     1     -39.537  21.721   1.257  0.00  0.00    +0.114 C 
BRANCH  23  24
ATOM     24  N   UNL     1     -38.258  21.337   1.857  0.00  0.00    -0.225 NA
BRANCH  24  26
ATOM     25  N   UNL     1     -36.827  19.433   1.518  0.00  0.00    -0.388 N 
ATOM     26  C   UNL     1     -37.490  20.581   1.147  0.00  0.00    +0.111 C 
ATOM     27  H   UNL     1     -36.905  19.096   2.440  0.00  0.00    +0.157 HD
ATOM     28  H   UNL     1     -36.276  18.948   0.862  0.00  0.00    +0.157 HD
BRANCH  26  30
ATOM     29 CL   UNL     1     -36.032  22.247  -0.326  0.00  0.00    -0.105 Cl
ATOM     30  C   UNL     1     -37.299  21.009  -0.295  0.00  0.00    +0.154 C 
ENDBRANCH  26  30
ENDBRANCH  24  26
ENDBRANCH  23  24
ENDBRANCH  22  23
ENDBRANCH  21  22
ENDBRANCH   1  21
TORSDOF 11
ENDMDL
MODEL 4
REMARK VINA RESULT:      -5.5      3.644      5.601
REMARK  Name = 54756941
REMARK  11 active torsions:
REMARK  status: ('A' for Active; 'I' for Inactive)
REMARK    1  A    between atoms: C_1  and  C_4
REMARK    2  A    between atoms: C_1  and  N_8
REMARK    3  A    between atoms: C_1  and  C_21
REMARK    4  A    between atoms: C_9  and  C_11
REMARK    5  A    between atoms: C_12  and  C_18
REMARK    6  A    between atoms: C_18  and  O_19
REMARK    7  A    between atoms: C_21  and  C_22
REMARK    8  A    between atoms: C_22  and  C_23
REMARK    9  A    between atoms: C_23  and  N_24
REMARK   10  A    between atoms: N_24  and  C_26
REMARK   11  A    between atoms: C_26  and  C_30
REMARK                            x       y       z     vdW  Elec       q    Type
REMARK                         _______ _______ _______ _____ _____    ______ ____
ROOT
ATOM      1  C   UNL     1     -35.250  26.100   3.977  0.00  0.00    +0.149 C 
ENDROOT
BRANCH   1   4
ATOM      2  O   UNL     1     -36.292  27.029   1.989  0.00  0.00    -0.274 OA
ATOM      3  N   UNL     1     -37.642  26.163   3.634  0.00  0.00    -0.327 N 
ATOM      4  C   UNL     1     -36.420  26.501   3.092  0.00  0.00    +0.237 C 
ATOM      5  H   UNL     1     -38.472  26.375   3.147  0.00  0.00    +0.145 HD
ATOM      6  H   UNL     1     -37.685  25.712   4.507  0.00  0.00    +0.145 HD
ENDBRANCH   1   4
BRANCH   1   8
ATOM      7  O   UNL     1     -32.496  26.640   3.374  0.00  0.00    -0.270 OA
ATOM      8  N   UNL     1     -34.521  27.301   4.290  0.00  0.00    -0.295 N 
ATOM      9  C   UNL     1     -33.184  27.474   3.957  0.00  0.00    +0.246 C 
ATOM     10  H   UNL     1     -34.990  28.030   4.758  0.00  0.00    +0.150 HD
BRANCH   9  11
ATOM     11  C   UNL     1     -32.570  28.760   4.373  0.00  0.00    +0.060 C 
ATOM     12  C   UNL     1     -31.994  28.914   5.635  0.00  0.00    +0.080 C 
ATOM     13  C   UNL     1     -32.578  29.828   3.476  0.00  0.00    +0.005 C 
ATOM     14  C   UNL     1     -31.425  30.135   5.997  0.00  0.00    +0.007 C 
ATOM     15  C   UNL     1     -32.009  31.049   3.838  0.00  0.00    +0.000 C 
ATOM     16  C   UNL     1     -31.432  31.202   5.099  0.00  0.00    +0.000 C 
BRANCH  12  18
ATOM     17  O   UNL     1     -32.963  27.306   7.117  0.00  0.00    -0.245 OA
ATOM     18  C   UNL     1     -31.969  27.818   6.594  0.00  0.00    +0.338 C 
BRANCH  18  19
ATOM     19  O   UNL     1     -30.706  27.398   6.868  0.00  0.00    -0.477 OA
ATOM     20  H   UNL     1     -30.367  27.467   7.739  0.00  0.00    +0.295 HD
ENDBRANCH  18  19
ENDBRANCH  12  18
ENDBRANCH   9  11
ENDBRANCH   1   8
BRANCH   1  21
ATOM     21  C   UNL     1     -35.751  25.381   5.235  0.00  0.00    +0.031 C 
BRANCH  21  22
ATOM     22  C   UNL     1     -34.907  24.145   5.572  0.00  0.00    +0.026 C 
BRANCH  22  23
ATOM     23  C   UNL     1     -35.595  22.844   5.175  0.00  0.00    +0.114 C 
BRANCH  23  24
ATOM     24  N   UNL     1     -36.724  23.131   4.288  0.00  0.00    -0.225 NA
BRANCH  24  26
ATOM     25  N   UNL     1     -37.707  21.680   2.639  0.00  0.00    -0.388 N 
ATOM     26  C   UNL     1     -36.740  22.514   3.154  0.00  0.00    +0.111 C 
ATOM     27  H   UNL     1     -38.517  21.483   3.164  0.00  0.00    +0.157 HD
ATOM     28  H   UNL     1     -37.589  21.281   1.747  0.00  0.00    +0.157 HD
BRANCH  26  30
ATOM     29 CL   UNL     1     -34.959  21.165   1.711  0.00  0.00    -0.105 Cl
ATOM     30  C   UNL     1     -35.537  22.748   2.262  0.00  0.00    +0.154 C 
ENDBRANCH  26  30
ENDBRANCH  24  26
ENDBRANCH  23  24
ENDBRANCH  22  23
ENDBRANCH  21  22
ENDBRANCH   1  21
TORSDOF 11
ENDMDL
MODEL 5
REMARK VINA RESULT:      -5.4      3.549      6.398
REMARK  Name = 54756941
REMARK  11 active torsions:
REMARK  status: ('A' for Active; 'I' for Inactive)
REMARK    1  A    between atoms: C_1  and  C_4
REMARK    2  A    between atoms: C_1  and  N_8
REMARK    3  A    between atoms: C_1  and  C_21
REMARK    4  A    between atoms: C_9  and  C_11
REMARK    5  A    between atoms: C_12  and  C_18
REMARK    6  A    between atoms: C_18  and  O_19
REMARK    7  A    between atoms: C_21  and  C_22
REMARK    8  A    between atoms: C_22  and  C_23
REMARK    9  A    between atoms: C_23  and  N_24
REMARK   10  A    between atoms: N_24  and  C_26
REMARK   11  A    between atoms: C_26  and  C_30
REMARK                            x       y       z     vdW  Elec       q    Type
REMARK                         _______ _______ _______ _____ _____    ______ ____
ROOT
ATOM      1  C   UNL     1     -35.560  21.782   3.629  0.00  0.00    +0.149 C 
ENDROOT
BRANCH   1   4
ATOM      2  O   UNL     1     -34.582  20.138   2.132  0.00  0.00    -0.274 OA
ATOM      3  N   UNL     1     -36.818  19.977   2.629  0.00  0.00    -0.327 N 
ATOM      4  C   UNL     1     -35.577  20.571   2.709  0.00  0.00    +0.237 C 
ATOM      5  H   UNL     1     -36.949  19.184   2.060  0.00  0.00    +0.145 HD
ATOM      6  H   UNL     1     -37.575  20.347   3.138  0.00  0.00    +0.145 HD
ENDBRANCH   1   4
BRANCH   1   8
ATOM      7  O   UNL     1     -36.119  23.772   1.636  0.00  0.00    -0.270 OA
ATOM      8  N   UNL     1     -36.804  22.481   3.438  0.00  0.00    -0.295 N 
ATOM      9  C   UNL     1     -36.983  23.432   2.442  0.00  0.00    +0.246 C 
ATOM     10  H   UNL     1     -37.558  22.275   4.036  0.00  0.00    +0.150 HD
BRANCH   9  11
ATOM     11  C   UNL     1     -38.318  24.081   2.393  0.00  0.00    +0.060 C 
ATOM     12  C   UNL     1     -39.420  23.430   1.838  0.00  0.00    +0.080 C 
ATOM     13  C   UNL     1     -38.457  25.367   2.913  0.00  0.00    +0.005 C 
ATOM     14  C   UNL     1     -40.661  24.065   1.806  0.00  0.00    +0.007 C 
ATOM     15  C   UNL     1     -39.698  26.002   2.881  0.00  0.00    +0.000 C 
ATOM     16  C   UNL     1     -40.800  25.351   2.327  0.00  0.00    +0.000 C 
BRANCH  12  18
ATOM     17  O   UNL     1     -39.112  21.817   0.098  0.00  0.00    -0.245 OA
ATOM     18  C   UNL     1     -39.307  22.086   1.286  0.00  0.00    +0.338 C 
BRANCH  18  19
ATOM     19  O   UNL     1     -39.438  21.123   2.237  0.00  0.00    -0.477 OA
ATOM     20  H   UNL     1     -38.692  20.626   2.508  0.00  0.00    +0.295 HD
ENDBRANCH  18  19
ENDBRANCH  12  18
ENDBRANCH   9  11
ENDBRANCH   1   8
BRANCH   1  21
ATOM     21  C   UNL     1     -35.357  21.346   5.085  0.00  0.00    +0.031 C 
BRANCH  21  22
ATOM     22  C   UNL     1     -35.518  22.512   6.068  0.00  0.00    +0.026 C 
BRANCH  22  23
ATOM     23  C   UNL     1     -34.702  23.734   5.661  0.00  0.00    +0.114 C 
BRANCH  23  24
ATOM     24  N   UNL     1     -35.593  24.875   5.443  0.00  0.00    -0.225 NA
BRANCH  24  26
ATOM     25  N   UNL     1     -35.657  27.077   4.473  0.00  0.00    -0.388 N 
ATOM     26  C   UNL     1     -35.160  25.806   4.661  0.00  0.00    +0.111 C 
ATOM     27  H   UNL     1     -36.455  27.371   4.969  0.00  0.00    +0.157 HD
ATOM     28  H   UNL     1     -35.215  27.690   3.844  0.00  0.00    +0.157 HD
BRANCH  26  30
ATOM     29 CL   UNL     1     -33.982  26.419   2.356  0.00  0.00    -0.105 Cl
ATOM     30  C   UNL     1     -33.929  25.459   3.846  0.00  0.00    +0.154 C 
ENDBRANCH  26  30
ENDBRANCH  24  26
ENDBRANCH  23  24
ENDBRANCH  22  23
ENDBRANCH  21  22
ENDBRANCH   1  21
TORSDOF 11
ENDMDL
MODEL 6
REMARK VINA RESULT:      -5.4      1.999      2.174
REMARK  Name = 54756941
REMARK  11 active torsions:
REMARK  status: ('A' for Active; 'I' for Inactive)
REMARK    1  A    between atoms: C_1  and  C_4
REMARK    2  A    between atoms: C_1  and  N_8
REMARK    3  A    between atoms: C_1  and  C_21
REMARK    4  A    between atoms: C_9  and  C_11
REMARK    5  A    between atoms: C_12  and  C_18
REMARK    6  A    between atoms: C_18  and  O_19
REMARK    7  A    between atoms: C_21  and  C_22
REMARK    8  A    between atoms: C_22  and  C_23
REMARK    9  A    between atoms: C_23  and  N_24
REMARK   10  A    between atoms: N_24  and  C_26
REMARK   11  A    between atoms: C_26  and  C_30
REMARK                            x       y       z     vdW  Elec       q    Type
REMARK                         _______ _______ _______ _____ _____    ______ ____
ROOT
ATOM      1  C   UNL     1     -36.588  25.776   1.041  0.00  0.00    +0.149 C 
ENDROOT
BRANCH   1   4
ATOM      2  O   UNL     1     -38.267  27.529   1.132  0.00  0.00    -0.274 OA
ATOM      3  N   UNL     1     -36.334  27.797   2.344  0.00  0.00    -0.327 N 
ATOM      4  C   UNL     1     -37.162  27.116   1.477  0.00  0.00    +0.237 C 
ATOM      5  H   UNL     1     -36.604  28.677   2.693  0.00  0.00    +0.145 HD
ATOM      6  H   UNL     1     -35.473  27.403   2.614  0.00  0.00    +0.145 HD
ENDBRANCH   1   4
BRANCH   1   8
ATOM      7  O   UNL     1     -34.150  24.762   2.169  0.00  0.00    -0.270 OA
ATOM      8  N   UNL     1     -36.460  24.963   2.222  0.00  0.00    -0.295 N 
ATOM      9  C   UNL     1     -35.233  24.517   2.695  0.00  0.00    +0.246 C 
ATOM     10  H   UNL     1     -37.275  24.713   2.715  0.00  0.00    +0.150 HD
BRANCH   9  11
ATOM     11  C   UNL     1     -35.273  23.665   3.910  0.00  0.00    +0.060 C 
ATOM     12  C   UNL     1     -35.340  24.225   5.186  0.00  0.00    +0.080 C 
ATOM     13  C   UNL     1     -35.242  22.279   3.759  0.00  0.00    +0.005 C 
ATOM     14  C   UNL     1     -35.376  23.399   6.310  0.00  0.00    +0.007 C 
ATOM     15  C   UNL     1     -35.278  21.453   4.882  0.00  0.00    +0.000 C 
ATOM     16  C   UNL     1     -35.345  22.014   6.158  0.00  0.00    +0.000 C 
BRANCH  12  18
ATOM     17  O   UNL     1     -34.414  26.367   5.717  0.00  0.00    -0.245 OA
ATOM     18  C   UNL     1     -35.373  25.669   5.378  0.00  0.00    +0.338 C 
BRANCH  18  19
ATOM     19  O   UNL     1     -36.604  26.194   5.137  0.00  0.00    -0.477 OA
ATOM     20  H   UNL     1     -36.922  26.261   4.258  0.00  0.00    +0.295 HD
ENDBRANCH  18  19
ENDBRANCH  12  18
ENDBRANCH   9  11
ENDBRANCH   1   8
BRANCH   1  21
ATOM     21  C   UNL     1     -37.486  25.126  -0.017  0.00  0.00    +0.031 C 
BRANCH  21  22
ATOM     22  C   UNL     1     -37.016  23.715  -0.391  0.00  0.00    +0.026 C 
BRANCH  22  23
ATOM     23  C   UNL     1     -38.043  22.646  -0.036  0.00  0.00    +0.114 C 
BRANCH  23  24
ATOM     24  N   UNL     1     -38.091  22.466   1.416  0.00  0.00    -0.225 NA
BRANCH  24  26
ATOM     25  N   UNL     1     -40.065  21.275   2.103  0.00  0.00    -0.388 N 
ATOM     26  C   UNL     1     -39.263  22.383   1.950  0.00  0.00    +0.111 C 
ATOM     27  H   UNL     1     -39.761  20.398   1.771  0.00  0.00    +0.157 HD
ATOM     28  H   UNL     1     -40.941  21.358   2.542  0.00  0.00    +0.157 HD
BRANCH  26  30
ATOM     29 CL   UNL     1     -40.983  24.306   1.306  0.00  0.00    -0.105 Cl
ATOM     30  C   UNL     1     -39.829  23.680   2.496  0.00  0.00    +0.154 C 
ENDBRANCH  26  30
ENDBRANCH  24  26
ENDBRANCH  23  24
ENDBRANCH  22  23
ENDBRANCH  21  22
ENDBRANCH   1  21
TORSDOF 11
ENDMDL
MODEL 7
REMARK VINA RESULT:      -5.3      4.402      5.415
REMARK  Name = 54756941
REMARK  11 active torsions:
REMARK  status: ('A' for Active; 'I' for Inactive)
REMARK    1  A    between atoms: C_1  and  C_4
REMARK    2  A    between atoms: C_1  and  N_8
REMARK    3  A    between atoms: C_1  and  C_21
REMARK    4  A    between atoms: C_9  and  C_11
REMARK    5  A    between atoms: C_12  and  C_18
REMARK    6  A    between atoms: C_18  and  O_19
REMARK    7  A    between atoms: C_21  and  C_22
REMARK    8  A    between atoms: C_22  and  C_23
REMARK    9  A    between atoms: C_23  and  N_24
REMARK   10  A    between atoms: N_24  and  C_26
REMARK   11  A    between atoms: C_26  and  C_30
REMARK                            x       y       z     vdW  Elec       q    Type
REMARK                         _______ _______ _______ _____ _____    ______ ____
ROOT
ATOM      1  C   UNL     1     -38.917  24.275   1.891  0.00  0.00    +0.149 C 
ENDROOT
BRANCH   1   4
ATOM      2  O   UNL     1     -39.658  26.588   1.928  0.00  0.00    -0.274 OA
ATOM      3  N   UNL     1     -40.127  25.256   3.739  0.00  0.00    -0.327 N 
ATOM      4  C   UNL     1     -39.579  25.503   2.499  0.00  0.00    +0.237 C 
ATOM      5  H   UNL     1     -40.582  25.979   4.229  0.00  0.00    +0.145 HD
ATOM      6  H   UNL     1     -40.063  24.358   4.136  0.00  0.00    +0.145 HD
ENDBRANCH   1   4
BRANCH   1   8
ATOM      7  O   UNL     1     -36.053  24.312   2.083  0.00  0.00    -0.270 OA
ATOM      8  N   UNL     1     -38.117  23.668   2.922  0.00  0.00    -0.295 N 
ATOM      9  C   UNL     1     -36.730  23.738   2.933  0.00  0.00    +0.246 C 
ATOM     10  H   UNL     1     -38.572  23.184   3.649  0.00  0.00    +0.150 HD
BRANCH   9  11
ATOM     11  C   UNL     1     -36.051  23.037   4.052  0.00  0.00    +0.060 C 
ATOM     12  C   UNL     1     -35.607  21.721   3.920  0.00  0.00    +0.080 C 
ATOM     13  C   UNL     1     -35.861  23.720   5.253  0.00  0.00    +0.005 C 
ATOM     14  C   UNL     1     -34.973  21.089   4.990  0.00  0.00    +0.007 C 
ATOM     15  C   UNL     1     -35.227  23.088   6.322  0.00  0.00    +0.000 C 
ATOM     16  C   UNL     1     -34.783  21.772   6.190  0.00  0.00    +0.000 C 
BRANCH  12  18
ATOM     17  O   UNL     1     -35.166  21.177   1.632  0.00  0.00    -0.245 OA
ATOM     18  C   UNL     1     -35.791  20.981   2.678  0.00  0.00    +0.338 C 
BRANCH  18  19
ATOM     19  O   UNL     1     -36.747  20.020   2.785  0.00  0.00    -0.477 OA
ATOM     20  H   UNL     1     -37.577  20.226   3.168  0.00  0.00    +0.295 HD
ENDBRANCH  18  19
ENDBRANCH  12  18
ENDBRANCH   9  11
ENDBRANCH   1   8
BRANCH   1  21
ATOM     21  C   UNL     1     -39.975  23.315   1.336  0.00  0.00    +0.031 C 
BRANCH  21  22
ATOM     22  C   UNL     1     -39.642  21.848   1.634  0.00  0.00    +0.026 C 
BRANCH  22  23
ATOM     23  C   UNL     1     -39.645  20.983   0.379  0.00  0.00    +0.114 C 
BRANCH  23  24
ATOM     24  N   UNL     1     -38.277  20.573   0.056  0.00  0.00    -0.225 NA
BRANCH  24  26
ATOM     25  N   UNL     1     -37.228  18.435   0.398  0.00  0.00    -0.388 N 
ATOM     26  C   UNL     1     -38.095  19.321  -0.201  0.00  0.00    +0.111 C 
ATOM     27  H   UNL     1     -36.634  18.741   1.122  0.00  0.00    +0.157 HD
ATOM     28  H   UNL     1     -37.201  17.497   0.102  0.00  0.00    +0.157 HD
BRANCH  26  30
ATOM     29 CL   UNL     1     -39.057  16.992  -1.052  0.00  0.00    -0.105 Cl
ATOM     30  C   UNL     1     -38.960  18.744  -1.304  0.00  0.00    +0.154 C 
ENDBRANCH  26  30
ENDBRANCH  24  26
ENDBRANCH  23  24
ENDBRANCH  22  23
ENDBRANCH  21  22
ENDBRANCH   1  21
TORSDOF 11
ENDMDL
MODEL 8
REMARK VINA RESULT:      -5.3      3.595      6.236
REMARK  Name = 54756941
REMARK  11 active torsions:
REMARK  status: ('A' for Active; 'I' for Inactive)
REMARK    1  A    between atoms: C_1  and  C_4
REMARK    2  A    between atoms: C_1  and  N_8
REMARK    3  A    between atoms: C_1  and  C_21
REMARK    4  A    between atoms: C_9  and  C_11
REMARK    5  A    between atoms: C_12  and  C_18
REMARK    6  A    between atoms: C_18  and  O_19
REMARK    7  A    between atoms: C_21  and  C_22
REMARK    8  A    between atoms: C_22  and  C_23
REMARK    9  A    between atoms: C_23  and  N_24
REMARK   10  A    between atoms: N_24  and  C_26
REMARK   11  A    between atoms: C_26  and  C_30
REMARK                            x       y       z     vdW  Elec       q    Type
REMARK                         _______ _______ _______ _____ _____    ______ ____
ROOT
ATOM      1  C   UNL     1     -35.572  22.960   4.373  0.00  0.00    +0.149 C 
ENDROOT
BRANCH   1   4
ATOM      2  O   UNL     1     -35.408  20.661   3.606  0.00  0.00    -0.274 OA
ATOM      3  N   UNL     1     -35.168  21.089   5.850  0.00  0.00    -0.327 N 
ATOM      4  C   UNL     1     -35.396  21.459   4.541  0.00  0.00    +0.237 C 
ATOM      5  H   UNL     1     -35.039  20.140   6.079  0.00  0.00    +0.145 HD
ATOM      6  H   UNL     1     -35.136  21.774   6.556  0.00  0.00    +0.145 HD
ENDBRANCH   1   4
BRANCH   1   8
ATOM      7  O   UNL     1     -36.121  24.377   1.937  0.00  0.00    -0.270 OA
ATOM      8  N   UNL     1     -36.864  23.173   3.775  0.00  0.00    -0.295 N 
ATOM      9  C   UNL     1     -37.034  23.874   2.589  0.00  0.00    +0.246 C 
ATOM     10  H   UNL     1     -37.660  22.805   4.225  0.00  0.00    +0.150 HD
BRANCH   9  11
ATOM     11  C   UNL     1     -38.433  24.028   2.117  0.00  0.00    +0.060 C 
ATOM     12  C   UNL     1     -39.087  23.000   1.437  0.00  0.00    +0.080 C 
ATOM     13  C   UNL     1     -39.095  25.231   2.364  0.00  0.00    +0.005 C 
ATOM     14  C   UNL     1     -40.402  23.175   1.006  0.00  0.00    +0.007 C 
ATOM     15  C   UNL     1     -40.410  25.406   1.933  0.00  0.00    +0.000 C 
ATOM     16  C   UNL     1     -41.063  24.377   1.254  0.00  0.00    +0.000 C 
BRANCH  12  18
ATOM     17  O   UNL     1     -37.963  21.388   0.071  0.00  0.00    -0.245 OA
ATOM     18  C   UNL     1     -38.423  21.732   1.164  0.00  0.00    +0.338 C 
BRANCH  18  19
ATOM     19  O   UNL     1     -38.353  20.937   2.264  0.00  0.00    -0.477 OA
ATOM     20  H   UNL     1     -38.769  21.201   3.061  0.00  0.00    +0.295 HD
ENDBRANCH  18  19
ENDBRANCH  12  18
ENDBRANCH   9  11
ENDBRANCH   1   8
BRANCH   1  21
ATOM     21  C   UNL     1     -35.434  23.671   5.724  0.00  0.00    +0.031 C 
BRANCH  21  22
ATOM     22  C   UNL     1     -34.670  24.996   5.608  0.00  0.00    +0.026 C 
BRANCH  22  23
ATOM     23  C   UNL     1     -35.575  26.157   5.213  0.00  0.00    +0.114 C 
BRANCH  23  24
ATOM     24  N   UNL     1     -34.791  27.186   4.526  0.00  0.00    -0.225 NA
BRANCH  24  26
ATOM     25  N   UNL     1     -36.187  27.438   2.583  0.00  0.00    -0.388 N 
ATOM     26  C   UNL     1     -34.993  27.316   3.258  0.00  0.00    +0.111 C 
ATOM     27  H   UNL     1     -37.037  27.423   3.079  0.00  0.00    +0.157 HD
ATOM     28  H   UNL     1     -36.190  27.541   1.604  0.00  0.00    +0.157 HD
BRANCH  26  30
ATOM     29 CL   UNL     1     -32.982  25.755   2.489  0.00  0.00    -0.105 Cl
ATOM     30  C   UNL     1     -33.747  27.351   2.395  0.00  0.00    +0.154 C 
ENDBRANCH  26  30
ENDBRANCH  24  26
ENDBRANCH  23  24
ENDBRANCH  22  23
ENDBRANCH  21  22
ENDBRANCH   1  21
TORSDOF 11
ENDMDL
MODEL 9
REMARK VINA RESULT:      -5.3      4.316      6.818
REMARK  Name = 54756941
REMARK  11 active torsions:
REMARK  status: ('A' for Active; 'I' for Inactive)
REMARK    1  A    between atoms: C_1  and  C_4
REMARK    2  A    between atoms: C_1  and  N_8
REMARK    3  A    between atoms: C_1  and  C_21
REMARK    4  A    between atoms: C_9  and  C_11
REMARK    5  A    between atoms: C_12  and  C_18
REMARK    6  A    between atoms: C_18  and  O_19
REMARK    7  A    between atoms: C_21  and  C_22
REMARK    8  A    between atoms: C_22  and  C_23
REMARK    9  A    between atoms: C_23  and  N_24
REMARK   10  A    between atoms: N_24  and  C_26
REMARK   11  A    between atoms: C_26  and  C_30
REMARK                            x       y       z     vdW  Elec       q    Type
REMARK                         _______ _______ _______ _____ _____    ______ ____
ROOT
ATOM      1  C   UNL     1     -35.601  23.219   4.835  0.00  0.00    +0.149 C 
ENDROOT
BRANCH   1   4
ATOM      2  O   UNL     1     -36.324  22.061   6.845  0.00  0.00    -0.274 OA
ATOM      3  N   UNL     1     -34.371  21.395   5.836  0.00  0.00    -0.327 N 
ATOM      4  C   UNL     1     -35.487  22.195   5.954  0.00  0.00    +0.237 C 
ATOM      5  H   UNL     1     -34.194  20.695   6.506  0.00  0.00    +0.145 HD
ATOM      6  H   UNL     1     -33.750  21.524   5.084  0.00  0.00    +0.145 HD
ENDBRANCH   1   4
BRANCH   1   8
ATOM      7  O   UNL     1     -35.846  23.736   2.022  0.00  0.00    -0.270 OA
ATOM      8  N   UNL     1     -36.671  22.791   3.973  0.00  0.00    -0.295 N 
ATOM      9  C   UNL     1     -36.705  23.090   2.617  0.00  0.00    +0.246 C 
ATOM     10  H   UNL     1     -37.408  22.265   4.359  0.00  0.00    +0.150 HD
BRANCH   9  11
ATOM     11  C   UNL     1     -37.891  22.597   1.870  0.00  0.00    +0.060 C 
ATOM     12  C   UNL     1     -37.913  21.322   1.305  0.00  0.00    +0.080 C 
ATOM     13  C   UNL     1     -38.996  23.438   1.739  0.00  0.00    +0.005 C 
ATOM     14  C   UNL     1     -39.041  20.888   0.609  0.00  0.00    +0.007 C 
ATOM     15  C   UNL     1     -40.124  23.003   1.044  0.00  0.00    +0.000 C 
ATOM     16  C   UNL     1     -40.146  21.728   0.478  0.00  0.00    +0.000 C 
BRANCH  12  18
ATOM     17  O   UNL     1     -35.907  20.250   0.564  0.00  0.00    -0.245 OA
ATOM     18  C   UNL     1     -36.774  20.421   1.424  0.00  0.00    +0.338 C 
BRANCH  18  19
ATOM     19  O   UNL     1     -36.756  19.766   2.616  0.00  0.00    -0.477 OA
ATOM     20  H   UNL     1     -37.553  19.631   3.089  0.00  0.00    +0.295 HD
ENDBRANCH  18  19
ENDBRANCH  12  18
ENDBRANCH   9  11
ENDBRANCH   1   8
BRANCH   1  21
ATOM     21  C   UNL     1     -35.845  24.618   5.412  0.00  0.00    +0.031 C 
BRANCH  21  22
ATOM     22  C   UNL     1     -34.832  25.646   4.891  0.00  0.00    +0.026 C 
BRANCH  22  23
ATOM     23  C   UNL     1     -33.921  26.175   5.994  0.00  0.00    +0.114 C 
BRANCH  23  24
ATOM     24  N   UNL     1     -32.736  26.798   5.401  0.00  0.00    -0.225 NA
BRANCH  24  26
ATOM     25  N   UNL     1     -32.080  28.167   7.268  0.00  0.00    -0.388 N 
ATOM     26  C   UNL     1     -32.330  27.898   5.941  0.00  0.00    +0.111 C 
ATOM     27  H   UNL     1     -32.220  27.467   7.947  0.00  0.00    +0.157 HD
ATOM     28  H   UNL     1     -31.762  29.058   7.538  0.00  0.00    +0.157 HD
BRANCH  26  30
ATOM     29 CL   UNL     1     -32.056  30.543   5.933  0.00  0.00    -0.105 Cl
ATOM     30  C   UNL     1     -32.082  29.046   4.983  0.00  0.00    +0.154 C 
ENDBRANCH  26  30
ENDBRANCH  24  26
ENDBRANCH  23  24
ENDBRANCH  22  23
ENDBRANCH  21  22
ENDBRANCH   1  21
TORSDOF 11
ENDMDL
