MODEL 1
REMARK VINA RESULT:      -5.8      0.000      0.000
REMARK  Name = 191536
REMARK  6 active torsions:
REMARK  status: ('A' for Active; 'I' for Inactive)
REMARK    1  A    between atoms: C_2  and  O_17
REMARK    2  A    between atoms: C_3  and  O_19
REMARK    3  A    between atoms: C_4  and  N_8
REMARK    4  A    between atoms: C_5  and  O_21
REMARK    5  A    between atoms: C_6  and  C_24
REMARK    6  A    between atoms: C_24  and  O_25
REMARK                            x       y       z     vdW  Elec       q    Type
REMARK                         _______ _______ _______ _____ _____    ______ ____
ROOT
ATOM      1  O   UNL     1     -37.715  23.825   2.787  0.00  0.00    -0.324 OA
ATOM      2  C   UNL     1     -36.109  22.009   2.937  0.00  0.00    +0.188 C 
ATOM      3  C   UNL     1     -37.018  21.132   2.075  0.00  0.00    +0.171 C 
ATOM      4  C   UNL     1     -36.340  23.490   2.636  0.00  0.00    +0.237 C 
ATOM      5  C   UNL     1     -38.470  21.608   2.123  0.00  0.00    +0.178 C 
ATOM      6  C   UNL     1     -38.552  23.112   1.884  0.00  0.00    +0.244 C 
ENDROOT
BRANCH   4   8
ATOM      7  O   UNL     1     -33.807  24.606   2.108  0.00  0.00    -0.193 OA
ATOM      8  N   UNL     1     -35.590  24.320   3.544  0.00  0.00    -0.178 N 
ATOM      9  N   UNL     1     -33.658  25.636   4.125  0.00  0.00    -0.306 NA
ATOM     10  N   UNL     1     -33.510  26.687   6.194  0.00  0.00    -0.332 N 
ATOM     11  C   UNL     1     -36.138  24.606   4.783  0.00  0.00    +0.083 C 
ATOM     12  C   UNL     1     -34.321  24.844   3.202  0.00  0.00    +0.276 C 
ATOM     13  C   UNL     1     -35.516  25.364   5.684  0.00  0.00    +0.065 C 
ATOM     14  C   UNL     1     -34.185  25.898   5.291  0.00  0.00    +0.193 C 
ATOM     15  H   UNL     1     -32.627  27.055   5.961  0.00  0.00    +0.145 HD
ATOM     16  H   UNL     1     -33.910  26.883   7.071  0.00  0.00    +0.145 HD
ENDBRANCH   4   8
BRANCH   2  17
ATOM     17  O   UNL     1     -34.757  21.662   2.646  0.00  0.00    -0.378 OA
ATOM     18  H   UNL     1     -34.628  21.641   1.685  0.00  0.00    +0.211 HD
ENDBRANCH   2  17
BRANCH   3  19
ATOM     19  O   UNL     1     -36.969  19.788   2.558  0.00  0.00    -0.379 OA
ATOM     20  H   UNL     1     -36.825  19.182   1.813  0.00  0.00    +0.211 HD
ENDBRANCH   3  19
BRANCH   5  21
ATOM     21  O   UNL     1     -39.194  20.918   1.106  0.00  0.00    -0.379 OA
ATOM     22  H   UNL     1     -39.203  19.968   1.302  0.00  0.00    +0.211 HD
ENDBRANCH   5  21
BRANCH   6  24
ATOM     23  O   UNL     1     -40.908  23.478   1.515  0.00  0.00    -0.247 OA
ATOM     24  C   UNL     1     -39.913  23.636   2.207  0.00  0.00    +0.344 C 
BRANCH  24  25
ATOM     25  O   UNL     1     -39.899  24.318   3.379  0.00  0.00    -0.478 OA
ATOM     26  H   UNL     1     -40.688  24.411   3.876  0.00  0.00    +0.295 HD
ENDBRANCH  24  25
ENDBRANCH   6  24
TORSDOF 6
ENDMDL
MODEL 2
REMARK VINA RESULT:      -5.8      1.730      3.552
REMARK  Name = 191536
REMARK  6 active torsions:
REMARK  status: ('A' for Active; 'I' for Inactive)
REMARK    1  A    between atoms: C_2  and  O_17
REMARK    2  A    between atoms: C_3  and  O_19
REMARK    3  A    between atoms: C_4  and  N_8
REMARK    4  A    between atoms: C_5  and  O_21
REMARK    5  A    between atoms: C_6  and  C_24
REMARK    6  A    between atoms: C_24  and  O_25
REMARK                            x       y       z     vdW  Elec       q    Type
REMARK                         _______ _______ _______ _____ _____    ______ ____
ROOT
ATOM      1  O   UNL     1     -35.820  23.132   3.193  0.00  0.00    -0.324 OA
ATOM      2  C   UNL     1     -37.510  24.860   2.955  0.00  0.00    +0.188 C 
ATOM      3  C   UNL     1     -38.579  23.788   2.741  0.00  0.00    +0.171 C 
ATOM      4  C   UNL     1     -36.350  24.312   3.787  0.00  0.00    +0.237 C 
ATOM      5  C   UNL     1     -37.969  22.473   2.257  0.00  0.00    +0.178 C 
ATOM      6  C   UNL     1     -36.777  22.081   3.123  0.00  0.00    +0.244 C 
ENDROOT
BRANCH   4   8
ATOM      7  O   UNL     1     -36.013  26.200   5.850  0.00  0.00    -0.193 OA
ATOM      8  N   UNL     1     -35.280  25.273   3.870  0.00  0.00    -0.178 N 
ATOM      9  N   UNL     1     -34.124  27.085   4.956  0.00  0.00    -0.306 NA
ATOM     10  N   UNL     1     -32.189  27.987   4.034  0.00  0.00    -0.332 N 
ATOM     11  C   UNL     1     -34.328  25.289   2.864  0.00  0.00    +0.083 C 
ATOM     12  C   UNL     1     -35.180  26.190   4.943  0.00  0.00    +0.276 C 
ATOM     13  C   UNL     1     -33.306  26.142   2.859  0.00  0.00    +0.065 C 
ATOM     14  C   UNL     1     -33.231  27.090   4.001  0.00  0.00    +0.193 C 
ATOM     15  H   UNL     1     -32.114  28.627   4.778  0.00  0.00    +0.145 HD
ATOM     16  H   UNL     1     -31.519  27.989   3.314  0.00  0.00    +0.145 HD
ENDBRANCH   4   8
BRANCH   2  17
ATOM     17  O   UNL     1     -38.116  25.958   3.635  0.00  0.00    -0.378 OA
ATOM     18  H   UNL     1     -39.067  25.791   3.735  0.00  0.00    +0.211 HD
ENDBRANCH   2  17
BRANCH   3  19
ATOM     19  O   UNL     1     -39.510  24.243   1.757  0.00  0.00    -0.379 OA
ATOM     20  H   UNL     1     -40.062  24.946   2.134  0.00  0.00    +0.211 HD
ENDBRANCH   3  19
BRANCH   5  21
ATOM     21  O   UNL     1     -38.975  21.464   2.335  0.00  0.00    -0.379 OA
ATOM     22  H   UNL     1     -38.796  20.886   3.092  0.00  0.00    +0.211 HD
ENDBRANCH   5  21
BRANCH   6  24
ATOM     23  O   UNL     1     -34.933  21.094   1.920  0.00  0.00    -0.247 OA
ATOM     24  C   UNL     1     -36.001  20.966   2.501  0.00  0.00    +0.344 C 
BRANCH  24  25
ATOM     25  O   UNL     1     -36.644  19.784   2.665  0.00  0.00    -0.478 OA
ATOM     26  H   UNL     1     -37.226  19.664   3.390  0.00  0.00    +0.295 HD
ENDBRANCH  24  25
ENDBRANCH   6  24
TORSDOF 6
ENDMDL
MODEL 3
REMARK VINA RESULT:      -5.7      1.509      3.356
REMARK  Name = 191536
REMARK  6 active torsions:
REMARK  status: ('A' for Active; 'I' for Inactive)
REMARK    1  A    between atoms: C_2  and  O_17
REMARK    2  A    between atoms: C_3  and  O_19
REMARK    3  A    between atoms: C_4  and  N_8
REMARK    4  A    between atoms: C_5  and  O_21
REMARK    5  A    between atoms: C_6  and  C_24
REMARK    6  A    between atoms: C_24  and  O_25
REMARK                            x       y       z     vdW  Elec       q    Type
REMARK                         _______ _______ _______ _____ _____    ______ ____
ROOT
ATOM      1  O   UNL     1     -36.733  22.423   2.478  0.00  0.00    -0.324 OA
ATOM      2  C   UNL     1     -38.626  23.913   2.790  0.00  0.00    +0.188 C 
ATOM      3  C   UNL     1     -39.566  22.834   2.250  0.00  0.00    +0.171 C 
ATOM      4  C   UNL     1     -37.378  23.284   3.410  0.00  0.00    +0.237 C 
ATOM      5  C   UNL     1     -38.822  21.822   1.380  0.00  0.00    +0.178 C 
ATOM      6  C   UNL     1     -37.559  21.333   2.082  0.00  0.00    +0.244 C 
ENDROOT
BRANCH   4   8
ATOM      7  O   UNL     1     -35.954  23.354   5.840  0.00  0.00    -0.193 OA
ATOM      8  N   UNL     1     -36.428  24.299   3.790  0.00  0.00    -0.178 N 
ATOM      9  N   UNL     1     -34.851  25.271   5.328  0.00  0.00    -0.306 NA
ATOM     10  N   UNL     1     -33.725  27.236   4.800  0.00  0.00    -0.332 N 
ATOM     11  C   UNL     1     -36.179  25.334   2.904  0.00  0.00    +0.083 C 
ATOM     12  C   UNL     1     -35.752  24.261   5.031  0.00  0.00    +0.276 C 
ATOM     13  C   UNL     1     -35.318  26.314   3.172  0.00  0.00    +0.065 C 
ATOM     14  C   UNL     1     -34.624  26.243   4.485  0.00  0.00    +0.193 C 
ATOM     15  H   UNL     1     -33.251  27.214   5.662  0.00  0.00    +0.145 HD
ATOM     16  H   UNL     1     -33.557  27.966   4.162  0.00  0.00    +0.145 HD
ENDBRANCH   4   8
BRANCH   2  17
ATOM     17  O   UNL     1     -39.332  24.660   3.778  0.00  0.00    -0.378 OA
ATOM     18  H   UNL     1     -40.020  24.102   4.175  0.00  0.00    +0.211 HD
ENDBRANCH   2  17
BRANCH   3  19
ATOM     19  O   UNL     1     -40.582  23.451   1.456  0.00  0.00    -0.379 OA
ATOM     20  H   UNL     1     -41.066  24.096   1.995  0.00  0.00    +0.211 HD
ENDBRANCH   3  19
BRANCH   5  21
ATOM     21  O   UNL     1     -39.697  20.721   1.138  0.00  0.00    -0.379 OA
ATOM     22  H   UNL     1     -40.532  20.861   1.611  0.00  0.00    +0.211 HD
ENDBRANCH   5  21
BRANCH   6  24
ATOM     23  O   UNL     1     -35.833  21.072   0.417  0.00  0.00    -0.247 OA
ATOM     24  C   UNL     1     -36.680  20.573   1.143  0.00  0.00    +0.344 C 
BRANCH  24  25
ATOM     25  O   UNL     1     -36.949  19.246   1.203  0.00  0.00    -0.478 OA
ATOM     26  H   UNL     1     -36.463  18.645   0.673  0.00  0.00    +0.295 HD
ENDBRANCH  24  25
ENDBRANCH   6  24
TORSDOF 6
ENDMDL
MODEL 4
REMARK VINA RESULT:      -5.7      1.142      1.381
REMARK  Name = 191536
REMARK  6 active torsions:
REMARK  status: ('A' for Active; 'I' for Inactive)
REMARK    1  A    between atoms: C_2  and  O_17
REMARK    2  A    between atoms: C_3  and  O_19
REMARK    3  A    between atoms: C_4  and  N_8
REMARK    4  A    between atoms: C_5  and  O_21
REMARK    5  A    between atoms: C_6  and  C_24
REMARK    6  A    between atoms: C_24  and  O_25
REMARK                            x       y       z     vdW  Elec       q    Type
REMARK                         _______ _______ _______ _____ _____    ______ ____
ROOT
ATOM      1  O   UNL     1     -38.180  25.088   2.949  0.00  0.00    -0.324 OA
ATOM      2  C   UNL     1     -37.069  22.928   2.963  0.00  0.00    +0.188 C 
ATOM      3  C   UNL     1     -38.180  22.350   2.085  0.00  0.00    +0.171 C 
ATOM      4  C   UNL     1     -36.932  24.434   2.742  0.00  0.00    +0.237 C 
ATOM      5  C   UNL     1     -39.469  23.164   2.198  0.00  0.00    +0.178 C 
ATOM      6  C   UNL     1     -39.181  24.653   2.036  0.00  0.00    +0.244 C 
ENDROOT
BRANCH   4   8
ATOM      7  O   UNL     1     -34.189  24.827   2.232  0.00  0.00    -0.193 OA
ATOM      8  N   UNL     1     -35.986  25.004   3.668  0.00  0.00    -0.178 N 
ATOM      9  N   UNL     1     -33.770  25.725   4.274  0.00  0.00    -0.306 NA
ATOM     10  N   UNL     1     -33.346  26.643   6.369  0.00  0.00    -0.332 N 
ATOM     11  C   UNL     1     -36.440  25.397   4.916  0.00  0.00    +0.083 C 
ATOM     12  C   UNL     1     -34.622  25.169   3.334  0.00  0.00    +0.276 C 
ATOM     13  C   UNL     1     -35.636  25.932   5.833  0.00  0.00    +0.065 C 
ATOM     14  C   UNL     1     -34.209  26.092   5.449  0.00  0.00    +0.193 C 
ATOM     15  H   UNL     1     -32.396  26.761   6.142  0.00  0.00    +0.145 HD
ATOM     16  H   UNL     1     -33.680  26.918   7.252  0.00  0.00    +0.145 HD
ENDBRANCH   4   8
BRANCH   2  17
ATOM     17  O   UNL     1     -35.849  22.276   2.617  0.00  0.00    -0.378 OA
ATOM     18  H   UNL     1     -35.509  21.796   3.389  0.00  0.00    +0.211 HD
ENDBRANCH   2  17
BRANCH   3  19
ATOM     19  O   UNL     1     -38.456  21.010   2.500  0.00  0.00    -0.379 OA
ATOM     20  H   UNL     1     -39.338  20.971   2.902  0.00  0.00    +0.211 HD
ENDBRANCH   3  19
BRANCH   5  21
ATOM     21  O   UNL     1     -40.357  22.729   1.169  0.00  0.00    -0.379 OA
ATOM     22  H   UNL     1     -41.148  23.290   1.167  0.00  0.00    +0.211 HD
ENDBRANCH   5  21
BRANCH   6  24
ATOM     23  O   UNL     1     -41.490  25.348   1.962  0.00  0.00    -0.247 OA
ATOM     24  C   UNL     1     -40.365  25.477   2.424  0.00  0.00    +0.344 C 
BRANCH  24  25
ATOM     25  O   UNL     1     -40.025  26.394   3.362  0.00  0.00    -0.478 OA
ATOM     26  H   UNL     1     -39.610  26.120   4.156  0.00  0.00    +0.295 HD
ENDBRANCH  24  25
ENDBRANCH   6  24
TORSDOF 6
ENDMDL
MODEL 5
REMARK VINA RESULT:      -5.7      3.000      6.110
REMARK  Name = 191536
REMARK  6 active torsions:
REMARK  status: ('A' for Active; 'I' for Inactive)
REMARK    1  A    between atoms: C_2  and  O_17
REMARK    2  A    between atoms: C_3  and  O_19
REMARK    3  A    between atoms: C_4  and  N_8
REMARK    4  A    between atoms: C_5  and  O_21
REMARK    5  A    between atoms: C_6  and  C_24
REMARK    6  A    between atoms: C_24  and  O_25
REMARK                            x       y       z     vdW  Elec       q    Type
REMARK                         _______ _______ _______ _____ _____    ______ ____
ROOT
ATOM      1  O   UNL     1     -36.935  23.112   3.551  0.00  0.00    -0.324 OA
ATOM      2  C   UNL     1     -37.436  25.488   3.607  0.00  0.00    +0.188 C 
ATOM      3  C   UNL     1     -36.226  25.724   4.512  0.00  0.00    +0.171 C 
ATOM      4  C   UNL     1     -37.233  24.244   2.741  0.00  0.00    +0.237 C 
ATOM      5  C   UNL     1     -35.821  24.450   5.253  0.00  0.00    +0.178 C 
ATOM      6  C   UNL     1     -35.729  23.272   4.289  0.00  0.00    +0.244 C 
ENDROOT
BRANCH   4   8
ATOM      7  O   UNL     1     -39.869  24.535   3.691  0.00  0.00    -0.193 OA
ATOM      8  N   UNL     1     -38.426  23.939   1.993  0.00  0.00    -0.178 N 
ATOM      9  N   UNL     1     -40.819  23.801   1.764  0.00  0.00    -0.306 NA
ATOM     10  N   UNL     1     -41.786  23.048  -0.211  0.00  0.00    -0.332 N 
ATOM     11  C   UNL     1     -38.290  23.463   0.700  0.00  0.00    +0.083 C 
ATOM     12  C   UNL     1     -39.717  24.115   2.543  0.00  0.00    +0.276 C 
ATOM     13  C   UNL     1     -39.337  23.156  -0.063  0.00  0.00    +0.065 C 
ATOM     14  C   UNL     1     -40.678  23.352   0.545  0.00  0.00    +0.193 C 
ATOM     15  H   UNL     1     -42.687  23.168   0.166  0.00  0.00    +0.145 HD
ATOM     16  H   UNL     1     -41.677  22.710  -1.129  0.00  0.00    +0.145 HD
ENDBRANCH   4   8
BRANCH   2  17
ATOM     17  O   UNL     1     -37.595  26.635   2.774  0.00  0.00    -0.378 OA
ATOM     18  H   UNL     1     -38.126  27.301   3.240  0.00  0.00    +0.211 HD
ENDBRANCH   2  17
BRANCH   3  19
ATOM     19  O   UNL     1     -36.552  26.724   5.479  0.00  0.00    -0.379 OA
ATOM     20  H   UNL     1     -36.717  27.568   5.029  0.00  0.00    +0.211 HD
ENDBRANCH   3  19
BRANCH   5  21
ATOM     21  O   UNL     1     -34.549  24.679   5.859  0.00  0.00    -0.379 OA
ATOM     22  H   UNL     1     -34.145  25.472   5.475  0.00  0.00    +0.211 HD
ENDBRANCH   5  21
BRANCH   6  24
ATOM     23  O   UNL     1     -35.148  20.947   4.568  0.00  0.00    -0.247 OA
ATOM     24  C   UNL     1     -35.616  21.978   5.027  0.00  0.00    +0.344 C 
BRANCH  24  25
ATOM     25  O   UNL     1     -36.106  22.100   6.285  0.00  0.00    -0.478 OA
ATOM     26  H   UNL     1     -35.886  22.849   6.803  0.00  0.00    +0.295 HD
ENDBRANCH  24  25
ENDBRANCH   6  24
TORSDOF 6
ENDMDL
MODEL 6
REMARK VINA RESULT:      -5.6      1.863      4.019
REMARK  Name = 191536
REMARK  6 active torsions:
REMARK  status: ('A' for Active; 'I' for Inactive)
REMARK    1  A    between atoms: C_2  and  O_17
REMARK    2  A    between atoms: C_3  and  O_19
REMARK    3  A    between atoms: C_4  and  N_8
REMARK    4  A    between atoms: C_5  and  O_21
REMARK    5  A    between atoms: C_6  and  C_24
REMARK    6  A    between atoms: C_24  and  O_25
REMARK                            x       y       z     vdW  Elec       q    Type
REMARK                         _______ _______ _______ _____ _____    ______ ____
ROOT
ATOM      1  O   UNL     1     -34.837  21.410   2.451  0.00  0.00    -0.324 OA
ATOM      2  C   UNL     1     -37.119  22.240   2.426  0.00  0.00    +0.188 C 
ATOM      3  C   UNL     1     -37.595  20.922   1.814  0.00  0.00    +0.171 C 
ATOM      4  C   UNL     1     -35.844  22.032   3.243  0.00  0.00    +0.237 C 
ATOM      5  C   UNL     1     -36.457  20.188   1.105  0.00  0.00    +0.178 C 
ATOM      6  C   UNL     1     -35.222  20.117   1.997  0.00  0.00    +0.244 C 
ENDROOT
BRANCH   4   8
ATOM      7  O   UNL     1     -36.073  23.034   5.866  0.00  0.00    -0.193 OA
ATOM      8  N   UNL     1     -35.317  23.292   3.702  0.00  0.00    -0.178 N 
ATOM      9  N   UNL     1     -34.940  24.947   5.409  0.00  0.00    -0.306 NA
ATOM     10  N   UNL     1     -33.780  26.906   4.936  0.00  0.00    -0.332 N 
ATOM     11  C   UNL     1     -34.640  24.092   2.797  0.00  0.00    +0.083 C 
ATOM     12  C   UNL     1     -35.474  23.724   5.039  0.00  0.00    +0.276 C 
ATOM     13  C   UNL     1     -34.121  25.271   3.134  0.00  0.00    +0.065 C 
ATOM     14  C   UNL     1     -34.303  25.694   4.547  0.00  0.00    +0.193 C 
ATOM     15  H   UNL     1     -33.885  27.212   5.865  0.00  0.00    +0.145 HD
ATOM     16  H   UNL     1     -33.301  27.466   4.284  0.00  0.00    +0.145 HD
ENDBRANCH   4   8
BRANCH   2  17
ATOM     17  O   UNL     1     -38.158  22.734   3.270  0.00  0.00    -0.378 OA
ATOM     18  H   UNL     1     -38.379  22.065   3.937  0.00  0.00    +0.211 HD
ENDBRANCH   2  17
BRANCH   3  19
ATOM     19  O   UNL     1     -38.622  21.191   0.858  0.00  0.00    -0.379 OA
ATOM     20  H   UNL     1     -39.237  20.441   0.824  0.00  0.00    +0.211 HD
ENDBRANCH   3  19
BRANCH   5  21
ATOM     21  O   UNL     1     -36.906  18.870   0.797  0.00  0.00    -0.379 OA
ATOM     22  H   UNL     1     -37.506  18.902   0.036  0.00  0.00    +0.211 HD
ENDBRANCH   5  21
BRANCH   6  24
ATOM     23  O   UNL     1     -33.177  20.406   0.750  0.00  0.00    -0.247 OA
ATOM     24  C   UNL     1     -34.025  19.665   1.227  0.00  0.00    +0.344 C 
BRANCH  24  25
ATOM     25  O   UNL     1     -34.003  18.314   1.124  0.00  0.00    -0.478 OA
ATOM     26  H   UNL     1     -34.802  17.840   1.002  0.00  0.00    +0.295 HD
ENDBRANCH  24  25
ENDBRANCH   6  24
TORSDOF 6
ENDMDL
MODEL 7
REMARK VINA RESULT:      -5.5      2.475      4.358
REMARK  Name = 191536
REMARK  6 active torsions:
REMARK  status: ('A' for Active; 'I' for Inactive)
REMARK    1  A    between atoms: C_2  and  O_17
REMARK    2  A    between atoms: C_3  and  O_19
REMARK    3  A    between atoms: C_4  and  N_8
REMARK    4  A    between atoms: C_5  and  O_21
REMARK    5  A    between atoms: C_6  and  C_24
REMARK    6  A    between atoms: C_24  and  O_25
REMARK                            x       y       z     vdW  Elec       q    Type
REMARK                         _______ _______ _______ _____ _____    ______ ____
ROOT
ATOM      1  O   UNL     1     -34.540  24.628   3.037  0.00  0.00    -0.324 OA
ATOM      2  C   UNL     1     -36.241  25.842   4.274  0.00  0.00    +0.188 C 
ATOM      3  C   UNL     1     -37.137  24.602   4.263  0.00  0.00    +0.171 C 
ATOM      4  C   UNL     1     -34.768  25.448   4.178  0.00  0.00    +0.237 C 
ATOM      5  C   UNL     1     -36.770  23.652   3.123  0.00  0.00    +0.178 C 
ATOM      6  C   UNL     1     -35.265  23.405   3.092  0.00  0.00    +0.244 C 
ENDROOT
BRANCH   4   8
ATOM      7  O   UNL     1     -33.480  26.779   6.301  0.00  0.00    -0.193 OA
ATOM      8  N   UNL     1     -33.933  26.615   4.045  0.00  0.00    -0.178 N 
ATOM      9  N   UNL     1     -32.529  28.344   4.961  0.00  0.00    -0.306 NA
ATOM     10  N   UNL     1     -31.559  29.946   3.582  0.00  0.00    -0.332 N 
ATOM     11  C   UNL     1     -33.733  27.143   2.781  0.00  0.00    +0.083 C 
ATOM     12  C   UNL     1     -33.319  27.225   5.164  0.00  0.00    +0.276 C 
ATOM     13  C   UNL     1     -32.978  28.219   2.565  0.00  0.00    +0.065 C 
ATOM     14  C   UNL     1     -32.348  28.834   3.763  0.00  0.00    +0.193 C 
ATOM     15  H   UNL     1     -31.129  30.375   4.357  0.00  0.00    +0.145 HD
ATOM     16  H   UNL     1     -31.425  30.313   2.679  0.00  0.00    +0.145 HD
ENDBRANCH   4   8
BRANCH   2  17
ATOM     17  O   UNL     1     -36.476  26.545   5.493  0.00  0.00    -0.378 OA
ATOM     18  H   UNL     1     -37.127  26.061   6.025  0.00  0.00    +0.211 HD
ENDBRANCH   2  17
BRANCH   3  19
ATOM     19  O   UNL     1     -38.497  25.007   4.092  0.00  0.00    -0.379 OA
ATOM     20  H   UNL     1     -38.723  24.992   3.148  0.00  0.00    +0.211 HD
ENDBRANCH   3  19
BRANCH   5  21
ATOM     21  O   UNL     1     -37.458  22.421   3.336  0.00  0.00    -0.379 OA
ATOM     22  H   UNL     1     -36.948  21.867   3.948  0.00  0.00    +0.211 HD
ENDBRANCH   5  21
BRANCH   6  24
ATOM     23  O   UNL     1     -35.112  21.556   1.550  0.00  0.00    -0.247 OA
ATOM     24  C   UNL     1     -34.857  22.719   1.830  0.00  0.00    +0.344 C 
BRANCH  24  25
ATOM     25  O   UNL     1     -34.161  23.562   1.029  0.00  0.00    -0.478 OA
ATOM     26  H   UNL     1     -34.500  23.794   0.187  0.00  0.00    +0.295 HD
ENDBRANCH  24  25
ENDBRANCH   6  24
TORSDOF 6
ENDMDL
MODEL 8
REMARK VINA RESULT:      -5.5      2.769      3.731
REMARK  Name = 191536
REMARK  6 active torsions:
REMARK  status: ('A' for Active; 'I' for Inactive)
REMARK    1  A    between atoms: C_2  and  O_17
REMARK    2  A    between atoms: C_3  and  O_19
REMARK    3  A    between atoms: C_4  and  N_8
REMARK    4  A    between atoms: C_5  and  O_21
REMARK    5  A    between atoms: C_6  and  C_24
REMARK    6  A    between atoms: C_24  and  O_25
REMARK                            x       y       z     vdW  Elec       q    Type
REMARK                         _______ _______ _______ _____ _____    ______ ____
ROOT
ATOM      1  O   UNL     1     -35.321  23.678   4.369  0.00  0.00    -0.324 OA
ATOM      2  C   UNL     1     -34.976  23.740   1.966  0.00  0.00    +0.188 C 
ATOM      3  C   UNL     1     -35.514  22.313   1.850  0.00  0.00    +0.171 C 
ATOM      4  C   UNL     1     -35.558  24.442   3.192  0.00  0.00    +0.237 C 
ATOM      5  C   UNL     1     -35.398  21.558   3.174  0.00  0.00    +0.178 C 
ATOM      6  C   UNL     1     -35.943  22.399   4.324  0.00  0.00    +0.244 C 
ENDROOT
BRANCH   4   8
ATOM      7  O   UNL     1     -36.636  26.899   2.332  0.00  0.00    -0.193 OA
ATOM      8  N   UNL     1     -34.946  25.733   3.383  0.00  0.00    -0.178 N 
ATOM      9  N   UNL     1     -34.908  28.128   3.140  0.00  0.00    -0.306 NA
ATOM     10  N   UNL     1     -33.134  29.382   3.970  0.00  0.00    -0.332 N 
ATOM     11  C   UNL     1     -33.729  25.794   4.040  0.00  0.00    +0.083 C 
ATOM     12  C   UNL     1     -35.554  26.923   2.920  0.00  0.00    +0.276 C 
ATOM     13  C   UNL     1     -33.092  26.943   4.259  0.00  0.00    +0.065 C 
ATOM     14  C   UNL     1     -33.759  28.174   3.761  0.00  0.00    +0.193 C 
ATOM     15  H   UNL     1     -33.552  30.214   3.651  0.00  0.00    +0.145 HD
ATOM     16  H   UNL     1     -32.269  29.413   4.438  0.00  0.00    +0.145 HD
ENDBRANCH   4   8
BRANCH   2  17
ATOM     17  O   UNL     1     -35.343  24.447   0.783  0.00  0.00    -0.378 OA
ATOM     18  H   UNL     1     -35.393  23.828   0.038  0.00  0.00    +0.211 HD
ENDBRANCH   2  17
BRANCH   3  19
ATOM     19  O   UNL     1     -34.763  21.606   0.861  0.00  0.00    -0.379 OA
ATOM     20  H   UNL     1     -34.680  22.155   0.065  0.00  0.00    +0.211 HD
ENDBRANCH   3  19
BRANCH   5  21
ATOM     21  O   UNL     1     -36.149  20.350   3.061  0.00  0.00    -0.379 OA
ATOM     22  H   UNL     1     -35.560  19.626   2.797  0.00  0.00    +0.211 HD
ENDBRANCH   5  21
BRANCH   6  24
ATOM     23  O   UNL     1     -35.902  22.264   6.732  0.00  0.00    -0.247 OA
ATOM     24  C   UNL     1     -35.581  21.805   5.645  0.00  0.00    +0.344 C 
BRANCH  24  25
ATOM     25  O   UNL     1     -34.843  20.681   5.480  0.00  0.00    -0.478 OA
ATOM     26  H   UNL     1     -34.259  20.400   6.157  0.00  0.00    +0.295 HD
ENDBRANCH  24  25
ENDBRANCH   6  24
TORSDOF 6
ENDMDL
MODEL 9
REMARK VINA RESULT:      -5.4      2.978      5.414
REMARK  Name = 191536
REMARK  6 active torsions:
REMARK  status: ('A' for Active; 'I' for Inactive)
REMARK    1  A    between atoms: C_2  and  O_17
REMARK    2  A    between atoms: C_3  and  O_19
REMARK    3  A    between atoms: C_4  and  N_8
REMARK    4  A    between atoms: C_5  and  O_21
REMARK    5  A    between atoms: C_6  and  C_24
REMARK    6  A    between atoms: C_24  and  O_25
REMARK                            x       y       z     vdW  Elec       q    Type
REMARK                         _______ _______ _______ _____ _____    ______ ____
ROOT
ATOM      1  O   UNL     1     -36.566  24.057   2.389  0.00  0.00    -0.324 OA
ATOM      2  C   UNL     1     -35.794  23.034   4.452  0.00  0.00    +0.188 C 
ATOM      3  C   UNL     1     -35.993  24.360   5.187  0.00  0.00    +0.171 C 
ATOM      4  C   UNL     1     -36.730  22.934   3.248  0.00  0.00    +0.237 C 
ATOM      5  C   UNL     1     -35.974  25.546   4.223  0.00  0.00    +0.178 C 
ATOM      6  C   UNL     1     -36.889  25.285   3.031  0.00  0.00    +0.244 C 
ENDROOT
BRANCH   4   8
ATOM      7  O   UNL     1     -38.634  21.427   1.820  0.00  0.00    -0.193 OA
ATOM      8  N   UNL     1     -36.446  21.752   2.475  0.00  0.00    -0.178 N 
ATOM      9  N   UNL     1     -37.114  19.923   1.058  0.00  0.00    -0.306 NA
ATOM     10  N   UNL     1     -35.553  18.384   0.282  0.00  0.00    -0.332 N 
ATOM     11  C   UNL     1     -35.138  21.302   2.414  0.00  0.00    +0.083 C 
ATOM     12  C   UNL     1     -37.462  21.050   1.783  0.00  0.00    +0.276 C 
ATOM     13  C   UNL     1     -34.785  20.219   1.724  0.00  0.00    +0.065 C 
ATOM     14  C   UNL     1     -35.877  19.507   1.009  0.00  0.00    +0.193 C 
ATOM     15  H   UNL     1     -36.255  17.892  -0.201  0.00  0.00    +0.145 HD
ATOM     16  H   UNL     1     -34.620  18.073   0.247  0.00  0.00    +0.145 HD
ENDBRANCH   4   8
BRANCH   2  17
ATOM     17  O   UNL     1     -36.070  21.976   5.368  0.00  0.00    -0.378 OA
ATOM     18  H   UNL     1     -36.563  21.274   4.914  0.00  0.00    +0.211 HD
ENDBRANCH   2  17
BRANCH   3  19
ATOM     19  O   UNL     1     -34.939  24.534   6.136  0.00  0.00    -0.379 OA
ATOM     20  H   UNL     1     -34.095  24.272   5.734  0.00  0.00    +0.211 HD
ENDBRANCH   3  19
BRANCH   5  21
ATOM     21  O   UNL     1     -36.423  26.699   4.933  0.00  0.00    -0.379 OA
ATOM     22  H   UNL     1     -36.515  26.484   5.874  0.00  0.00    +0.211 HD
ENDBRANCH   5  21
BRANCH   6  24
ATOM     23  O   UNL     1     -35.890  26.161   1.016  0.00  0.00    -0.247 OA
ATOM     24  C   UNL     1     -36.668  26.293   1.951  0.00  0.00    +0.344 C 
BRANCH  24  25
ATOM     25  O   UNL     1     -37.448  27.384   2.145  0.00  0.00    -0.478 OA
ATOM     26  H   UNL     1     -37.347  28.136   1.595  0.00  0.00    +0.295 HD
ENDBRANCH  24  25
ENDBRANCH   6  24
TORSDOF 6
ENDMDL
