MODEL 1
REMARK VINA RESULT:      -6.7      0.000      0.000
REMARK  Name = 53350155
REMARK  2 active torsions:
REMARK  status: ('A' for Active; 'I' for Inactive)
REMARK    1  A    between atoms: C_16  and  O_20
REMARK    2  A    between atoms: C_19  and  O_22
REMARK                            x       y       z     vdW  Elec       q    Type
REMARK                         _______ _______ _______ _____ _____    ______ ____
ROOT
ATOM      1  O   UNL     1     -36.797  22.454   3.966  0.00  0.00    -0.316 OA
ATOM      2  O   UNL     1     -36.451  24.442   5.225  0.00  0.00    -0.430 OA
ATOM      3  O   UNL     1     -34.621  23.709   1.332  0.00  0.00    -0.476 OA
ATOM      4  O   UNL     1     -35.821  26.637   5.414  0.00  0.00    -0.250 OA
ATOM      5  O   UNL     1     -36.131  20.127   2.712  0.00  0.00    -0.288 OA
ATOM      6  C   UNL     1     -34.759  23.679   3.795  0.00  0.00    +0.118 C 
ATOM      7  C   UNL     1     -35.859  23.227   4.735  0.00  0.00    +0.236 C 
ATOM      8  C   UNL     1     -35.486  23.691   2.455  0.00  0.00    +0.207 C 
ATOM      9  C   UNL     1     -36.423  22.511   2.585  0.00  0.00    +0.220 C 
ATOM     10  C   UNL     1     -34.369  25.047   4.307  0.00  0.00    +0.119 C 
ATOM     11  C   UNL     1     -35.370  22.401   5.913  0.00  0.00    +0.076 C 
ATOM     12  C   UNL     1     -35.604  25.498   5.030  0.00  0.00    +0.319 C 
ATOM     13  C   UNL     1     -35.763  21.198   2.243  0.00  0.00    +0.209 C 
ATOM     14  C   UNL     1     -34.651  21.265   1.281  0.00  0.00    +0.105 C 
ATOM     15  C   UNL     1     -34.161  22.507   0.880  0.00  0.00    +0.147 C 
ATOM     16  C   UNL     1     -34.099  20.086   0.768  0.00  0.00    +0.142 C 
ATOM     17  C   UNL     1     -33.127  22.566  -0.058  0.00  0.00    +0.074 C 
ATOM     18  C   UNL     1     -33.060  20.153  -0.160  0.00  0.00    +0.073 C 
ATOM     19  C   UNL     1     -32.577  21.393  -0.575  0.00  0.00    +0.140 C 
ENDROOT
BRANCH  16  20
ATOM     20  O   UNL     1     -34.543  18.848   1.126  0.00  0.00    -0.505 OA
ATOM     21  H   UNL     1     -34.189  18.085   0.714  0.00  0.00    +0.292 HD
ENDBRANCH  16  20
BRANCH  19  22
ATOM     22  O   UNL     1     -31.565  21.459  -1.484  0.00  0.00    -0.505 OA
ATOM     23  H   UNL     1     -30.772  20.982  -1.338  0.00  0.00    +0.292 HD
ENDBRANCH  19  22
TORSDOF 2
ENDMDL
MODEL 2
REMARK VINA RESULT:      -6.4      1.849      3.119
REMARK  Name = 53350155
REMARK  2 active torsions:
REMARK  status: ('A' for Active; 'I' for Inactive)
REMARK    1  A    between atoms: C_16  and  O_20
REMARK    2  A    between atoms: C_19  and  O_22
REMARK                            x       y       z     vdW  Elec       q    Type
REMARK                         _______ _______ _______ _____ _____    ______ ____
ROOT
ATOM      1  O   UNL     1     -35.945  25.801   4.718  0.00  0.00    -0.316 OA
ATOM      2  O   UNL     1     -34.882  27.832   4.083  0.00  0.00    -0.430 OA
ATOM      3  O   UNL     1     -35.245  24.377   1.443  0.00  0.00    -0.476 OA
ATOM      4  O   UNL     1     -34.079  29.293   2.511  0.00  0.00    -0.250 OA
ATOM      5  O   UNL     1     -36.150  23.140   5.272  0.00  0.00    -0.288 OA
ATOM      6  C   UNL     1     -34.164  25.814   3.131  0.00  0.00    +0.118 C 
ATOM      7  C   UNL     1     -34.696  26.443   4.404  0.00  0.00    +0.236 C 
ATOM      8  C   UNL     1     -35.450  25.336   2.466  0.00  0.00    +0.207 C 
ATOM      9  C   UNL     1     -36.289  24.911   3.651  0.00  0.00    +0.220 C 
ATOM     10  C   UNL     1     -33.474  26.951   2.414  0.00  0.00    +0.119 C 
ATOM     11  C   UNL     1     -33.757  26.329   5.594  0.00  0.00    +0.076 C 
ATOM     12  C   UNL     1     -34.162  28.164   2.968  0.00  0.00    +0.319 C 
ATOM     13  C   UNL     1     -35.979  23.509   4.116  0.00  0.00    +0.209 C 
ATOM     14  C   UNL     1     -35.477  22.584   3.088  0.00  0.00    +0.105 C 
ATOM     15  C   UNL     1     -35.154  23.069   1.821  0.00  0.00    +0.147 C 
ATOM     16  C   UNL     1     -35.334  21.223   3.382  0.00  0.00    +0.142 C 
ATOM     17  C   UNL     1     -34.708  22.182   0.839  0.00  0.00    +0.074 C 
ATOM     18  C   UNL     1     -34.879  20.345   2.400  0.00  0.00    +0.073 C 
ATOM     19  C   UNL     1     -34.569  20.824   1.128  0.00  0.00    +0.140 C 
ENDROOT
BRANCH  16  20
ATOM     20  O   UNL     1     -35.637  20.698   4.603  0.00  0.00    -0.505 OA
ATOM     21  H   UNL     1     -35.682  19.769   4.716  0.00  0.00    +0.292 HD
ENDBRANCH  16  20
BRANCH  19  22
ATOM     22  O   UNL     1     -34.128  19.966   0.167  0.00  0.00    -0.505 OA
ATOM     23  H   UNL     1     -33.814  20.299  -0.650  0.00  0.00    +0.292 HD
ENDBRANCH  19  22
TORSDOF 2
ENDMDL
MODEL 3
REMARK VINA RESULT:      -6.3      1.981      5.961
REMARK  Name = 53350155
REMARK  2 active torsions:
REMARK  status: ('A' for Active; 'I' for Inactive)
REMARK    1  A    between atoms: C_16  and  O_20
REMARK    2  A    between atoms: C_19  and  O_22
REMARK                            x       y       z     vdW  Elec       q    Type
REMARK                         _______ _______ _______ _____ _____    ______ ____
ROOT
ATOM      1  O   UNL     1     -37.747  21.667   1.433  0.00  0.00    -0.316 OA
ATOM      2  O   UNL     1     -36.349  20.080   0.344  0.00  0.00    -0.430 OA
ATOM      3  O   UNL     1     -35.201  22.206   3.977  0.00  0.00    -0.476 OA
ATOM      4  O   UNL     1     -34.583  18.622   0.311  0.00  0.00    -0.250 OA
ATOM      5  O   UNL     1     -38.507  24.100   2.398  0.00  0.00    -0.288 OA
ATOM      6  C   UNL     1     -35.371  21.839   1.544  0.00  0.00    +0.118 C 
ATOM      7  C   UNL     1     -36.548  21.468   0.663  0.00  0.00    +0.236 C 
ATOM      8  C   UNL     1     -35.940  21.590   2.936  0.00  0.00    +0.207 C 
ATOM      9  C   UNL     1     -37.384  22.007   2.775  0.00  0.00    +0.220 C 
ATOM     10  C   UNL     1     -34.279  20.879   1.132  0.00  0.00    +0.119 C 
ATOM     11  C   UNL     1     -36.638  22.267  -0.626  0.00  0.00    +0.076 C 
ATOM     12  C   UNL     1     -35.048  19.722   0.564  0.00  0.00    +0.319 C 
ATOM     13  C   UNL     1     -37.586  23.494   2.933  0.00  0.00    +0.209 C 
ATOM     14  C   UNL     1     -36.619  24.189   3.798  0.00  0.00    +0.105 C 
ATOM     15  C   UNL     1     -35.501  23.503   4.272  0.00  0.00    +0.147 C 
ATOM     16  C   UNL     1     -36.830  25.527   4.147  0.00  0.00    +0.142 C 
ATOM     17  C   UNL     1     -34.603  24.158   5.118  0.00  0.00    +0.074 C 
ATOM     18  C   UNL     1     -35.924  26.177   4.984  0.00  0.00    +0.073 C 
ATOM     19  C   UNL     1     -34.812  25.492   5.472  0.00  0.00    +0.140 C 
ENDROOT
BRANCH  16  20
ATOM     20  O   UNL     1     -37.907  26.241   3.712  0.00  0.00    -0.505 OA
ATOM     21  H   UNL     1     -38.123  27.057   4.118  0.00  0.00    +0.292 HD
ENDBRANCH  16  20
BRANCH  19  22
ATOM     22  O   UNL     1     -33.929  26.124   6.293  0.00  0.00    -0.505 OA
ATOM     23  H   UNL     1     -33.858  25.869   7.191  0.00  0.00    +0.292 HD
ENDBRANCH  19  22
TORSDOF 2
ENDMDL
MODEL 4
REMARK VINA RESULT:      -6.1      3.226      6.252
REMARK  Name = 53350155
REMARK  2 active torsions:
REMARK  status: ('A' for Active; 'I' for Inactive)
REMARK    1  A    between atoms: C_16  and  O_20
REMARK    2  A    between atoms: C_19  and  O_22
REMARK                            x       y       z     vdW  Elec       q    Type
REMARK                         _______ _______ _______ _____ _____    ______ ____
ROOT
ATOM      1  O   UNL     1     -36.433  25.194   3.551  0.00  0.00    -0.316 OA
ATOM      2  O   UNL     1     -36.472  23.144   4.757  0.00  0.00    -0.430 OA
ATOM      3  O   UNL     1     -33.946  26.530   5.848  0.00  0.00    -0.476 OA
ATOM      4  O   UNL     1     -36.065  21.885   6.627  0.00  0.00    -0.250 OA
ATOM      5  O   UNL     1     -35.374  27.197   2.036  0.00  0.00    -0.288 OA
ATOM      6  C   UNL     1     -34.503  24.412   4.712  0.00  0.00    +0.118 C 
ATOM      7  C   UNL     1     -35.707  23.999   3.890  0.00  0.00    +0.236 C 
ATOM      8  C   UNL     1     -34.987  25.719   5.330  0.00  0.00    +0.207 C 
ATOM      9  C   UNL     1     -35.833  26.307   4.222  0.00  0.00    +0.220 C 
ATOM     10  C   UNL     1     -34.320  23.283   5.700  0.00  0.00    +0.119 C 
ATOM     11  C   UNL     1     -35.364  23.240   2.619  0.00  0.00    +0.076 C 
ATOM     12  C   UNL     1     -35.693  22.685   5.783  0.00  0.00    +0.319 C 
ATOM     13  C   UNL     1     -35.019  27.063   3.201  0.00  0.00    +0.209 C 
ATOM     14  C   UNL     1     -33.768  27.664   3.689  0.00  0.00    +0.105 C 
ATOM     15  C   UNL     1     -33.319  27.371   4.977  0.00  0.00    +0.147 C 
ATOM     16  C   UNL     1     -33.041  28.531   2.866  0.00  0.00    +0.142 C 
ATOM     17  C   UNL     1     -32.147  27.969   5.447  0.00  0.00    +0.074 C 
ATOM     18  C   UNL     1     -31.867  29.116   3.339  0.00  0.00    +0.073 C 
ATOM     19  C   UNL     1     -31.422  28.838   4.630  0.00  0.00    +0.140 C 
ENDROOT
BRANCH  16  20
ATOM     20  O   UNL     1     -33.438  28.851   1.602  0.00  0.00    -0.505 OA
ATOM     21  H   UNL     1     -33.993  28.267   1.122  0.00  0.00    +0.292 HD
ENDBRANCH  16  20
BRANCH  19  22
ATOM     22  O   UNL     1     -30.278  29.412   5.094  0.00  0.00    -0.505 OA
ATOM     23  H   UNL     1     -29.842  29.052   5.841  0.00  0.00    +0.292 HD
ENDBRANCH  19  22
TORSDOF 2
ENDMDL
MODEL 5
REMARK VINA RESULT:      -5.8      3.219      5.003
REMARK  Name = 53350155
REMARK  2 active torsions:
REMARK  status: ('A' for Active; 'I' for Inactive)
REMARK    1  A    between atoms: C_16  and  O_20
REMARK    2  A    between atoms: C_19  and  O_22
REMARK                            x       y       z     vdW  Elec       q    Type
REMARK                         _______ _______ _______ _____ _____    ______ ____
ROOT
ATOM      1  O   UNL     1     -34.652  24.516   4.130  0.00  0.00    -0.316 OA
ATOM      2  O   UNL     1     -33.731  26.688   3.824  0.00  0.00    -0.430 OA
ATOM      3  O   UNL     1     -37.979  25.790   3.387  0.00  0.00    -0.476 OA
ATOM      4  O   UNL     1     -33.919  28.968   3.690  0.00  0.00    -0.250 OA
ATOM      5  O   UNL     1     -35.931  22.210   3.439  0.00  0.00    -0.288 OA
ATOM      6  C   UNL     1     -35.650  26.075   2.626  0.00  0.00    +0.118 C 
ATOM      7  C   UNL     1     -34.340  25.554   3.183  0.00  0.00    +0.236 C 
ATOM      8  C   UNL     1     -36.613  25.762   3.765  0.00  0.00    +0.207 C 
ATOM      9  C   UNL     1     -36.072  24.453   4.296  0.00  0.00    +0.220 C 
ATOM     10  C   UNL     1     -35.401  27.549   2.404  0.00  0.00    +0.119 C 
ATOM     11  C   UNL     1     -33.389  25.008   2.131  0.00  0.00    +0.076 C 
ATOM     12  C   UNL     1     -34.291  27.850   3.369  0.00  0.00    +0.319 C 
ATOM     13  C   UNL     1     -36.564  23.257   3.519  0.00  0.00    +0.209 C 
ATOM     14  C   UNL     1     -37.877  23.403   2.871  0.00  0.00    +0.105 C 
ATOM     15  C   UNL     1     -38.503  24.649   2.855  0.00  0.00    +0.147 C 
ATOM     16  C   UNL     1     -38.493  22.293   2.283  0.00  0.00    +0.142 C 
ATOM     17  C   UNL     1     -39.764  24.775   2.266  0.00  0.00    +0.074 C 
ATOM     18  C   UNL     1     -39.747  22.430   1.689  0.00  0.00    +0.073 C 
ATOM     19  C   UNL     1     -40.383  23.669   1.683  0.00  0.00    +0.140 C 
ENDROOT
BRANCH  16  20
ATOM     20  O   UNL     1     -37.925  21.054   2.273  0.00  0.00    -0.505 OA
ATOM     21  H   UNL     1     -38.261  20.388   1.707  0.00  0.00    +0.292 HD
ENDBRANCH  16  20
BRANCH  19  22
ATOM     22  O   UNL     1     -41.610  23.802   1.106  0.00  0.00    -0.505 OA
ATOM     23  H   UNL     1     -42.009  24.647   1.045  0.00  0.00    +0.292 HD
ENDBRANCH  19  22
TORSDOF 2
ENDMDL
MODEL 6
REMARK VINA RESULT:      -5.8      4.109      6.365
REMARK  Name = 53350155
REMARK  2 active torsions:
REMARK  status: ('A' for Active; 'I' for Inactive)
REMARK    1  A    between atoms: C_16  and  O_20
REMARK    2  A    between atoms: C_19  and  O_22
REMARK                            x       y       z     vdW  Elec       q    Type
REMARK                         _______ _______ _______ _____ _____    ______ ____
ROOT
ATOM      1  O   UNL     1     -39.125  25.304   1.171  0.00  0.00    -0.316 OA
ATOM      2  O   UNL     1     -39.918  23.064   1.061  0.00  0.00    -0.430 OA
ATOM      3  O   UNL     1     -37.410  24.574   4.297  0.00  0.00    -0.476 OA
ATOM      4  O   UNL     1     -40.401  21.037   2.014  0.00  0.00    -0.250 OA
ATOM      5  O   UNL     1     -37.290  27.319   1.220  0.00  0.00    -0.288 OA
ATOM      6  C   UNL     1     -37.876  23.508   2.121  0.00  0.00    +0.118 C 
ATOM      7  C   UNL     1     -38.770  23.924   0.970  0.00  0.00    +0.236 C 
ATOM      8  C   UNL     1     -38.323  24.468   3.218  0.00  0.00    +0.207 C 
ATOM      9  C   UNL     1     -38.622  25.731   2.441  0.00  0.00    +0.220 C 
ATOM     10  C   UNL     1     -38.237  22.062   2.371  0.00  0.00    +0.119 C 
ATOM     11  C   UNL     1     -38.135  23.761  -0.402  0.00  0.00    +0.076 C 
ATOM     12  C   UNL     1     -39.632  21.967   1.826  0.00  0.00    +0.319 C 
ATOM     13  C   UNL     1     -37.391  26.564   2.180  0.00  0.00    +0.209 C 
ATOM     14  C   UNL     1     -36.307  26.441   3.168  0.00  0.00    +0.105 C 
ATOM     15  C   UNL     1     -36.389  25.469   4.164  0.00  0.00    +0.147 C 
ATOM     16  C   UNL     1     -35.207  27.304   3.110  0.00  0.00    +0.142 C 
ATOM     17  C   UNL     1     -35.372  25.377   5.119  0.00  0.00    +0.074 C 
ATOM     18  C   UNL     1     -34.192  27.200   4.060  0.00  0.00    +0.073 C 
ATOM     19  C   UNL     1     -34.276  26.239   5.066  0.00  0.00    +0.140 C 
ENDROOT
BRANCH  16  20
ATOM     20  O   UNL     1     -35.080  28.272   2.158  0.00  0.00    -0.505 OA
ATOM     21  H   UNL     1     -34.241  28.650   1.983  0.00  0.00    +0.292 HD
ENDBRANCH  16  20
BRANCH  19  22
ATOM     22  O   UNL     1     -33.287  26.139   5.997  0.00  0.00    -0.505 OA
ATOM     23  H   UNL     1     -33.147  26.835   6.607  0.00  0.00    +0.292 HD
ENDBRANCH  19  22
TORSDOF 2
ENDMDL
MODEL 7
REMARK VINA RESULT:      -5.8      2.037      6.059
REMARK  Name = 53350155
REMARK  2 active torsions:
REMARK  status: ('A' for Active; 'I' for Inactive)
REMARK    1  A    between atoms: C_16  and  O_20
REMARK    2  A    between atoms: C_19  and  O_22
REMARK                            x       y       z     vdW  Elec       q    Type
REMARK                         _______ _______ _______ _____ _____    ______ ____
ROOT
ATOM      1  O   UNL     1     -37.031  20.152   0.495  0.00  0.00    -0.316 OA
ATOM      2  O   UNL     1     -35.266  18.654  -0.053  0.00  0.00    -0.430 OA
ATOM      3  O   UNL     1     -35.379  20.995   3.627  0.00  0.00    -0.476 OA
ATOM      4  O   UNL     1     -33.466  17.352   0.506  0.00  0.00    -0.250 OA
ATOM      5  O   UNL     1     -38.211  22.543   1.059  0.00  0.00    -0.288 OA
ATOM      6  C   UNL     1     -34.808  20.531   1.272  0.00  0.00    +0.118 C 
ATOM      7  C   UNL     1     -35.649  20.029   0.115  0.00  0.00    +0.236 C 
ATOM      8  C   UNL     1     -35.737  20.282   2.455  0.00  0.00    +0.207 C 
ATOM      9  C   UNL     1     -37.099  20.568   1.863  0.00  0.00    +0.220 C 
ATOM     10  C   UNL     1     -33.578  19.654   1.248  0.00  0.00    +0.119 C 
ATOM     11  C   UNL     1     -35.418  20.773  -1.191  0.00  0.00    +0.076 C 
ATOM     12  C   UNL     1     -34.063  18.416   0.552  0.00  0.00    +0.319 C 
ATOM     13  C   UNL     1     -37.445  22.037   1.870  0.00  0.00    +0.209 C 
ATOM     14  C   UNL     1     -36.823  22.842   2.933  0.00  0.00    +0.105 C 
ATOM     15  C   UNL     1     -35.845  22.272   3.747  0.00  0.00    +0.147 C 
ATOM     16  C   UNL     1     -37.222  24.168   3.130  0.00  0.00    +0.142 C 
ATOM     17  C   UNL     1     -35.280  23.030   4.776  0.00  0.00    +0.074 C 
ATOM     18  C   UNL     1     -36.647  24.922   4.152  0.00  0.00    +0.073 C 
ATOM     19  C   UNL     1     -35.679  24.352   4.977  0.00  0.00    +0.140 C 
ENDROOT
BRANCH  16  20
ATOM     20  O   UNL     1     -38.175  24.772   2.364  0.00  0.00    -0.505 OA
ATOM     21  H   UNL     1     -39.082  24.610   2.530  0.00  0.00    +0.292 HD
ENDBRANCH  16  20
BRANCH  19  22
ATOM     22  O   UNL     1     -35.120  25.086   5.978  0.00  0.00    -0.505 OA
ATOM     23  H   UNL     1     -34.969  26.003   5.859  0.00  0.00    +0.292 HD
ENDBRANCH  19  22
TORSDOF 2
ENDMDL
MODEL 8
REMARK VINA RESULT:      -5.7      1.739      6.467
REMARK  Name = 53350155
REMARK  2 active torsions:
REMARK  status: ('A' for Active; 'I' for Inactive)
REMARK    1  A    between atoms: C_16  and  O_20
REMARK    2  A    between atoms: C_19  and  O_22
REMARK                            x       y       z     vdW  Elec       q    Type
REMARK                         _______ _______ _______ _____ _____    ______ ____
ROOT
ATOM      1  O   UNL     1     -33.687  20.352  -0.983  0.00  0.00    -0.316 OA
ATOM      2  O   UNL     1     -32.666  18.211  -0.818  0.00  0.00    -0.430 OA
ATOM      3  O   UNL     1     -35.200  19.915   2.299  0.00  0.00    -0.476 OA
ATOM      4  O   UNL     1     -32.489  16.114   0.090  0.00  0.00    -0.250 OA
ATOM      5  O   UNL     1     -34.209  22.944  -0.319  0.00  0.00    -0.288 OA
ATOM      6  C   UNL     1     -33.078  19.440   1.134  0.00  0.00    +0.118 C 
ATOM      7  C   UNL     1     -32.682  19.561  -0.324  0.00  0.00    +0.236 C 
ATOM      8  C   UNL     1     -34.591  19.606   1.056  0.00  0.00    +0.207 C 
ATOM      9  C   UNL     1     -34.749  20.615  -0.059  0.00  0.00    +0.220 C 
ATOM     10  C   UNL     1     -32.620  18.055   1.531  0.00  0.00    +0.119 C 
ATOM     11  C   UNL     1     -31.317  20.190  -0.549  0.00  0.00    +0.076 C 
ATOM     12  C   UNL     1     -32.590  17.325   0.221  0.00  0.00    +0.319 C 
ATOM     13  C   UNL     1     -34.592  22.040   0.413  0.00  0.00    +0.209 C 
ATOM     14  C   UNL     1     -34.954  22.299   1.816  0.00  0.00    +0.105 C 
ATOM     15  C   UNL     1     -35.244  21.229   2.662  0.00  0.00    +0.147 C 
ATOM     16  C   UNL     1     -35.014  23.613   2.291  0.00  0.00    +0.142 C 
ATOM     17  C   UNL     1     -35.618  21.482   3.984  0.00  0.00    +0.074 C 
ATOM     18  C   UNL     1     -35.378  23.857   3.615  0.00  0.00    +0.073 C 
ATOM     19  C   UNL     1     -35.682  22.792   4.460  0.00  0.00    +0.140 C 
ENDROOT
BRANCH  16  20
ATOM     20  O   UNL     1     -34.741  24.693   1.505  0.00  0.00    -0.505 OA
ATOM     21  H   UNL     1     -34.938  25.557   1.810  0.00  0.00    +0.292 HD
ENDBRANCH  16  20
BRANCH  19  22
ATOM     22  O   UNL     1     -36.042  23.029   5.752  0.00  0.00    -0.505 OA
ATOM     23  H   UNL     1     -36.924  22.876   6.028  0.00  0.00    +0.292 HD
ENDBRANCH  19  22
TORSDOF 2
ENDMDL
MODEL 9
REMARK VINA RESULT:      -5.7      1.664      6.277
REMARK  Name = 53350155
REMARK  2 active torsions:
REMARK  status: ('A' for Active; 'I' for Inactive)
REMARK    1  A    between atoms: C_16  and  O_20
REMARK    2  A    between atoms: C_19  and  O_22
REMARK                            x       y       z     vdW  Elec       q    Type
REMARK                         _______ _______ _______ _____ _____    ______ ____
ROOT
ATOM      1  O   UNL     1     -34.935  21.418  -0.450  0.00  0.00    -0.316 OA
ATOM      2  O   UNL     1     -34.062  19.286  -1.042  0.00  0.00    -0.430 OA
ATOM      3  O   UNL     1     -35.553  20.255   2.943  0.00  0.00    -0.476 OA
ATOM      4  O   UNL     1     -33.802  17.036  -0.697  0.00  0.00    -0.250 OA
ATOM      5  O   UNL     1     -35.076  23.794   0.879  0.00  0.00    -0.288 OA
ATOM      6  C   UNL     1     -33.854  20.039   1.167  0.00  0.00    +0.118 C 
ATOM      7  C   UNL     1     -33.851  20.487  -0.281  0.00  0.00    +0.236 C 
ATOM      8  C   UNL     1     -35.318  20.233   1.545  0.00  0.00    +0.207 C 
ATOM      9  C   UNL     1     -35.693  21.472   0.763  0.00  0.00    +0.220 C 
ATOM     10  C   UNL     1     -33.408  18.596   1.112  0.00  0.00    +0.119 C 
ATOM     11  C   UNL     1     -32.553  21.139  -0.729  0.00  0.00    +0.076 C 
ATOM     12  C   UNL     1     -33.778  18.185  -0.283  0.00  0.00    +0.319 C 
ATOM     13  C   UNL     1     -35.316  22.749   1.473  0.00  0.00    +0.209 C 
ATOM     14  C   UNL     1     -35.274  22.683   2.942  0.00  0.00    +0.105 C 
ATOM     15  C   UNL     1     -35.406  21.451   3.581  0.00  0.00    +0.147 C 
ATOM     16  C   UNL     1     -35.112  23.855   3.690  0.00  0.00    +0.142 C 
ATOM     17  C   UNL     1     -35.397  21.398   4.978  0.00  0.00    +0.074 C 
ATOM     18  C   UNL     1     -35.094  23.792   5.083  0.00  0.00    +0.073 C 
ATOM     19  C   UNL     1     -35.240  22.565   5.726  0.00  0.00    +0.140 C 
ENDROOT
BRANCH  16  20
ATOM     20  O   UNL     1     -34.981  25.084   3.114  0.00  0.00    -0.505 OA
ATOM     21  H   UNL     1     -34.161  25.342   2.742  0.00  0.00    +0.292 HD
ENDBRANCH  16  20
BRANCH  19  22
ATOM     22  O   UNL     1     -35.227  22.504   7.087  0.00  0.00    -0.505 OA
ATOM     23  H   UNL     1     -34.917  21.732   7.518  0.00  0.00    +0.292 HD
ENDBRANCH  19  22
TORSDOF 2
ENDMDL
