MODEL 1
REMARK VINA RESULT:      -6.0      0.000      0.000
REMARK  Name = 5283138
REMARK  14 active torsions:
REMARK  status: ('A' for Active; 'I' for Inactive)
REMARK    1  A    between atoms: C_2  and  C_21
REMARK    2  A    between atoms: C_3  and  O_7
REMARK    3  A    between atoms: C_4  and  C_11
REMARK    4  A    between atoms: C_6  and  O_9
REMARK    5  A    between atoms: C_12  and  C_13
REMARK    6  A    between atoms: C_13  and  O_14
REMARK    7  A    between atoms: C_13  and  C_16
REMARK    8  A    between atoms: C_16  and  C_17
REMARK    9  A    between atoms: C_17  and  C_18
REMARK   10  A    between atoms: C_18  and  C_19
REMARK   11  A    between atoms: C_21  and  C_22
REMARK   12  A    between atoms: C_23  and  C_24
REMARK   13  A    between atoms: C_24  and  C_26
REMARK   14  A    between atoms: C_26  and  O_27
REMARK                            x       y       z     vdW  Elec       q    Type
REMARK                         _______ _______ _______ _____ _____    ______ ____
ROOT
ATOM      1  O   UNL     1     -39.702  23.332   2.235  0.00  0.00    -0.329 OA
ATOM      2  C   UNL     1     -38.083  24.761   3.375  0.00  0.00    +0.063 C 
ATOM      3  C   UNL     1     -38.932  26.002   3.023  0.00  0.00    +0.118 C 
ATOM      4  C   UNL     1     -38.305  23.637   2.337  0.00  0.00    +0.142 C 
ATOM      5  C   UNL     1     -40.386  25.618   2.749  0.00  0.00    +0.090 C 
ATOM      6  C   UNL     1     -40.511  24.425   1.802  0.00  0.00    +0.234 C 
ENDROOT
BRANCH   3   7
ATOM      7  O   UNL     1     -38.407  26.715   1.905  0.00  0.00    -0.384 OA
ATOM      8  H   UNL     1     -38.648  26.255   1.086  0.00  0.00    +0.210 HD
ENDBRANCH   3   7
BRANCH   6   9
ATOM      9  O   UNL     1     -40.278  24.781   0.443  0.00  0.00    -0.360 OA
ATOM     10  H   UNL     1     -39.530  24.268   0.098  0.00  0.00    +0.213 HD
ENDBRANCH   6   9
BRANCH   4  11
ATOM     11  C   UNL     1     -37.618  22.356   2.698  0.00  0.00    +0.001 C 
ATOM     12  C   UNL     1     -37.049  21.537   1.802  0.00  0.00    +0.000 C 
BRANCH  12  13
ATOM     13  C   UNL     1     -36.361  20.251   2.169  0.00  0.00    +0.132 C 
BRANCH  13  14
ATOM     14  O   UNL     1     -36.803  19.233   1.270  0.00  0.00    -0.380 OA
ATOM     15  H   UNL     1     -37.762  19.306   1.144  0.00  0.00    +0.211 HD
ENDBRANCH  13  14
BRANCH  13  16
ATOM     16  C   UNL     1     -34.833  20.337   2.051  0.00  0.00    +0.034 C 
BRANCH  16  17
ATOM     17  C   UNL     1     -34.284  19.638   0.804  0.00  0.00    +0.003 C 
BRANCH  17  18
ATOM     18  C   UNL     1     -33.372  18.450   1.124  0.00  0.00    +0.000 C 
BRANCH  18  19
ATOM     19  C   UNL     1     -31.884  18.762   0.959  0.00  0.00    +0.000 C 
ATOM     20  C   UNL     1     -31.657  19.840  -0.090  0.00  0.00    +0.000 C 
ENDBRANCH  18  19
ENDBRANCH  17  18
ENDBRANCH  16  17
ENDBRANCH  13  16
ENDBRANCH  12  13
ENDBRANCH   4  11
BRANCH   2  21
ATOM     21  C   UNL     1     -36.607  25.142   3.535  0.00  0.00    +0.031 C 
BRANCH  21  22
ATOM     22  C   UNL     1     -36.102  25.297   4.939  0.00  0.00    -0.030 C 
ATOM     23  C   UNL     1     -35.342  24.435   5.633  0.00  0.00    -0.019 C 
BRANCH  23  24
ATOM     24  C   UNL     1     -34.859  23.127   5.086  0.00  0.00    +0.135 C 
BRANCH  24  26
ATOM     25  O   UNL     1     -36.215  22.065   6.817  0.00  0.00    -0.250 OA
ATOM     26  C   UNL     1     -35.408  21.977   5.902  0.00  0.00    +0.318 C 
BRANCH  26  27
ATOM     27  O   UNL     1     -34.880  20.791   5.496  0.00  0.00    -0.480 OA
ATOM     28  H   UNL     1     -35.438  20.048   5.371  0.00  0.00    +0.295 HD
ENDBRANCH  26  27
ENDBRANCH  24  26
ENDBRANCH  23  24
ENDBRANCH  21  22
ENDBRANCH   2  21
TORSDOF 14
ENDMDL
MODEL 2
REMARK VINA RESULT:      -5.8      2.277      5.821
REMARK  Name = 5283138
REMARK  14 active torsions:
REMARK  status: ('A' for Active; 'I' for Inactive)
REMARK    1  A    between atoms: C_2  and  C_21
REMARK    2  A    between atoms: C_3  and  O_7
REMARK    3  A    between atoms: C_4  and  C_11
REMARK    4  A    between atoms: C_6  and  O_9
REMARK    5  A    between atoms: C_12  and  C_13
REMARK    6  A    between atoms: C_13  and  O_14
REMARK    7  A    between atoms: C_13  and  C_16
REMARK    8  A    between atoms: C_16  and  C_17
REMARK    9  A    between atoms: C_17  and  C_18
REMARK   10  A    between atoms: C_18  and  C_19
REMARK   11  A    between atoms: C_21  and  C_22
REMARK   12  A    between atoms: C_23  and  C_24
REMARK   13  A    between atoms: C_24  and  C_26
REMARK   14  A    between atoms: C_26  and  O_27
REMARK                            x       y       z     vdW  Elec       q    Type
REMARK                         _______ _______ _______ _____ _____    ______ ____
ROOT
ATOM      1  O   UNL     1     -38.933  22.860   1.733  0.00  0.00    -0.329 OA
ATOM      2  C   UNL     1     -36.766  21.858   1.219  0.00  0.00    +0.063 C 
ATOM      3  C   UNL     1     -37.466  20.794   0.346  0.00  0.00    +0.118 C 
ATOM      4  C   UNL     1     -37.721  22.372   2.321  0.00  0.00    +0.142 C 
ATOM      5  C   UNL     1     -38.838  21.279  -0.125  0.00  0.00    +0.090 C 
ATOM      6  C   UNL     1     -39.671  21.876   1.009  0.00  0.00    +0.234 C 
ENDROOT
BRANCH   3   7
ATOM      7  O   UNL     1     -37.608  19.547   1.025  0.00  0.00    -0.384 OA
ATOM      8  H   UNL     1     -37.195  19.607   1.901  0.00  0.00    +0.210 HD
ENDBRANCH   3   7
BRANCH   6   9
ATOM      9  O   UNL     1     -40.239  20.879   1.852  0.00  0.00    -0.360 OA
ATOM     10  H   UNL     1     -40.379  21.248   2.739  0.00  0.00    +0.213 HD
ENDBRANCH   6   9
BRANCH   4  11
ATOM     11  C   UNL     1     -37.149  23.507   3.115  0.00  0.00    +0.001 C 
ATOM     12  C   UNL     1     -36.723  24.657   2.572  0.00  0.00    +0.000 C 
BRANCH  12  13
ATOM     13  C   UNL     1     -36.148  25.792   3.373  0.00  0.00    +0.132 C 
BRANCH  13  14
ATOM     14  O   UNL     1     -36.836  26.991   3.010  0.00  0.00    -0.380 OA
ATOM     15  H   UNL     1     -36.959  27.015   2.048  0.00  0.00    +0.211 HD
ENDBRANCH  13  14
BRANCH  13  16
ATOM     16  C   UNL     1     -36.321  25.603   4.886  0.00  0.00    +0.034 C 
BRANCH  16  17
ATOM     17  C   UNL     1     -35.003  25.323   5.614  0.00  0.00    +0.003 C 
BRANCH  17  18
ATOM     18  C   UNL     1     -34.491  23.893   5.416  0.00  0.00    +0.000 C 
BRANCH  18  19
ATOM     19  C   UNL     1     -35.310  22.843   6.168  0.00  0.00    +0.000 C 
ATOM     20  C   UNL     1     -35.119  21.457   5.570  0.00  0.00    +0.000 C 
ENDBRANCH  18  19
ENDBRANCH  17  18
ENDBRANCH  16  17
ENDBRANCH  13  16
ENDBRANCH  12  13
ENDBRANCH   4  11
BRANCH   2  21
ATOM     21  C   UNL     1     -35.445  21.316   1.778  0.00  0.00    +0.031 C 
BRANCH  21  22
ATOM     22  C   UNL     1     -34.261  21.358   0.859  0.00  0.00    -0.030 C 
ATOM     23  C   UNL     1     -33.360  20.387   0.642  0.00  0.00    -0.019 C 
BRANCH  23  24
ATOM     24  C   UNL     1     -33.403  19.049   1.317  0.00  0.00    +0.135 C 
BRANCH  24  26
ATOM     25  O   UNL     1     -33.260  17.309  -0.390  0.00  0.00    -0.250 OA
ATOM     26  C   UNL     1     -33.931  17.995   0.369  0.00  0.00    +0.318 C 
BRANCH  26  27
ATOM     27  O   UNL     1     -35.285  17.896   0.450  0.00  0.00    -0.480 OA
ATOM     28  H   UNL     1     -35.774  18.543   0.920  0.00  0.00    +0.295 HD
ENDBRANCH  26  27
ENDBRANCH  24  26
ENDBRANCH  23  24
ENDBRANCH  21  22
ENDBRANCH   2  21
TORSDOF 14
ENDMDL
MODEL 3
REMARK VINA RESULT:      -5.8      2.194      4.292
REMARK  Name = 5283138
REMARK  14 active torsions:
REMARK  status: ('A' for Active; 'I' for Inactive)
REMARK    1  A    between atoms: C_2  and  C_21
REMARK    2  A    between atoms: C_3  and  O_7
REMARK    3  A    between atoms: C_4  and  C_11
REMARK    4  A    between atoms: C_6  and  O_9
REMARK    5  A    between atoms: C_12  and  C_13
REMARK    6  A    between atoms: C_13  and  O_14
REMARK    7  A    between atoms: C_13  and  C_16
REMARK    8  A    between atoms: C_16  and  C_17
REMARK    9  A    between atoms: C_17  and  C_18
REMARK   10  A    between atoms: C_18  and  C_19
REMARK   11  A    between atoms: C_21  and  C_22
REMARK   12  A    between atoms: C_23  and  C_24
REMARK   13  A    between atoms: C_24  and  C_26
REMARK   14  A    between atoms: C_26  and  O_27
REMARK                            x       y       z     vdW  Elec       q    Type
REMARK                         _______ _______ _______ _____ _____    ______ ____
ROOT
ATOM      1  O   UNL     1     -34.096  24.724   3.083  0.00  0.00    -0.329 OA
ATOM      2  C   UNL     1     -36.523  24.992   3.042  0.00  0.00    +0.063 C 
ATOM      3  C   UNL     1     -36.385  26.350   3.762  0.00  0.00    +0.118 C 
ATOM      4  C   UNL     1     -35.333  24.068   3.389  0.00  0.00    +0.142 C 
ATOM      5  C   UNL     1     -34.991  26.945   3.560  0.00  0.00    +0.090 C 
ATOM      6  C   UNL     1     -33.876  25.930   3.814  0.00  0.00    +0.234 C 
ENDROOT
BRANCH   3   7
ATOM      7  O   UNL     1     -36.664  26.252   5.158  0.00  0.00    -0.384 OA
ATOM      8  H   UNL     1     -35.832  26.169   5.649  0.00  0.00    +0.210 HD
ENDBRANCH   3   7
BRANCH   6   9
ATOM      9  O   UNL     1     -33.651  25.703   5.201  0.00  0.00    -0.360 OA
ATOM     10  H   UNL     1     -33.048  26.381   5.546  0.00  0.00    +0.213 HD
ENDBRANCH   6   9
BRANCH   4  11
ATOM     11  C   UNL     1     -35.335  22.786   2.613  0.00  0.00    +0.001 C 
ATOM     12  C   UNL     1     -35.464  21.575   3.173  0.00  0.00    +0.000 C 
BRANCH  12  13
ATOM     13  C   UNL     1     -35.465  20.292   2.390  0.00  0.00    +0.132 C 
BRANCH  13  14
ATOM     14  O   UNL     1     -36.758  19.694   2.508  0.00  0.00    -0.380 OA
ATOM     15  H   UNL     1     -36.661  18.742   2.665  0.00  0.00    +0.211 HD
ENDBRANCH  13  14
BRANCH  13  16
ATOM     16  C   UNL     1     -35.191  20.504   0.896  0.00  0.00    +0.034 C 
BRANCH  16  17
ATOM     17  C   UNL     1     -34.038  19.646   0.365  0.00  0.00    +0.003 C 
BRANCH  17  18
ATOM     18  C   UNL     1     -33.279  18.899   1.468  0.00  0.00    +0.000 C 
BRANCH  18  19
ATOM     19  C   UNL     1     -31.987  18.241   0.979  0.00  0.00    +0.000 C 
ATOM     20  C   UNL     1     -31.110  19.232   0.229  0.00  0.00    +0.000 C 
ENDBRANCH  18  19
ENDBRANCH  17  18
ENDBRANCH  16  17
ENDBRANCH  13  16
ENDBRANCH  12  13
ENDBRANCH   4  11
BRANCH   2  21
ATOM     21  C   UNL     1     -37.883  24.353   3.347  0.00  0.00    +0.031 C 
BRANCH  21  22
ATOM     22  C   UNL     1     -39.016  24.720   2.435  0.00  0.00    -0.030 C 
ATOM     23  C   UNL     1     -39.440  24.056   1.349  0.00  0.00    -0.019 C 
BRANCH  23  24
ATOM     24  C   UNL     1     -38.815  22.784   0.858  0.00  0.00    +0.135 C 
BRANCH  24  26
ATOM     25  O   UNL     1     -40.627  21.149   0.766  0.00  0.00    -0.250 OA
ATOM     26  C   UNL     1     -39.624  21.588   1.312  0.00  0.00    +0.318 C 
BRANCH  26  27
ATOM     27  O   UNL     1     -39.099  21.041   2.441  0.00  0.00    -0.480 OA
ATOM     28  H   UNL     1     -38.209  20.747   2.448  0.00  0.00    +0.295 HD
ENDBRANCH  26  27
ENDBRANCH  24  26
ENDBRANCH  23  24
ENDBRANCH  21  22
ENDBRANCH   2  21
TORSDOF 14
ENDMDL
MODEL 4
REMARK VINA RESULT:      -5.6      2.055      4.183
REMARK  Name = 5283138
REMARK  14 active torsions:
REMARK  status: ('A' for Active; 'I' for Inactive)
REMARK    1  A    between atoms: C_2  and  C_21
REMARK    2  A    between atoms: C_3  and  O_7
REMARK    3  A    between atoms: C_4  and  C_11
REMARK    4  A    between atoms: C_6  and  O_9
REMARK    5  A    between atoms: C_12  and  C_13
REMARK    6  A    between atoms: C_13  and  O_14
REMARK    7  A    between atoms: C_13  and  C_16
REMARK    8  A    between atoms: C_16  and  C_17
REMARK    9  A    between atoms: C_17  and  C_18
REMARK   10  A    between atoms: C_18  and  C_19
REMARK   11  A    between atoms: C_21  and  C_22
REMARK   12  A    between atoms: C_23  and  C_24
REMARK   13  A    between atoms: C_24  and  C_26
REMARK   14  A    between atoms: C_26  and  O_27
REMARK                            x       y       z     vdW  Elec       q    Type
REMARK                         _______ _______ _______ _____ _____    ______ ____
ROOT
ATOM      1  O   UNL     1     -35.560  24.764   3.853  0.00  0.00    -0.329 OA
ATOM      2  C   UNL     1     -37.467  24.571   2.339  0.00  0.00    +0.063 C 
ATOM      3  C   UNL     1     -37.650  26.104   2.377  0.00  0.00    +0.118 C 
ATOM      4  C   UNL     1     -36.796  24.071   3.640  0.00  0.00    +0.142 C 
ATOM      5  C   UNL     1     -36.354  26.807   2.779  0.00  0.00    +0.090 C 
ATOM      6  C   UNL     1     -35.699  26.176   4.007  0.00  0.00    +0.234 C 
ENDROOT
BRANCH   3   7
ATOM      7  O   UNL     1     -38.701  26.500   3.257  0.00  0.00    -0.384 OA
ATOM      8  H   UNL     1     -39.397  26.945   2.750  0.00  0.00    +0.210 HD
ENDBRANCH   3   7
BRANCH   6   9
ATOM      9  O   UNL     1     -36.350  26.539   5.220  0.00  0.00    -0.360 OA
ATOM     10  H   UNL     1     -37.289  26.301   5.167  0.00  0.00    +0.213 HD
ENDBRANCH   6   9
BRANCH   4  11
ATOM     11  C   UNL     1     -36.463  22.611   3.608  0.00  0.00    +0.001 C 
ATOM     12  C   UNL     1     -35.806  22.018   2.601  0.00  0.00    +0.000 C 
BRANCH  12  13
ATOM     13  C   UNL     1     -35.475  20.551   2.573  0.00  0.00    +0.132 C 
BRANCH  13  14
ATOM     14  O   UNL     1     -36.698  19.814   2.620  0.00  0.00    -0.380 OA
ATOM     15  H   UNL     1     -37.069  19.746   1.727  0.00  0.00    +0.211 HD
ENDBRANCH  13  14
BRANCH  13  16
ATOM     16  C   UNL     1     -34.733  20.131   1.297  0.00  0.00    +0.034 C 
BRANCH  16  17
ATOM     17  C   UNL     1     -33.608  19.125   1.557  0.00  0.00    +0.003 C 
BRANCH  17  18
ATOM     18  C   UNL     1     -32.788  18.794   0.305  0.00  0.00    +0.000 C 
BRANCH  18  19
ATOM     19  C   UNL     1     -31.427  19.491   0.266  0.00  0.00    +0.000 C 
ATOM     20  C   UNL     1     -31.500  20.804  -0.499  0.00  0.00    +0.000 C 
ENDBRANCH  18  19
ENDBRANCH  17  18
ENDBRANCH  16  17
ENDBRANCH  13  16
ENDBRANCH  12  13
ENDBRANCH   4  11
BRANCH   2  21
ATOM     21  C   UNL     1     -38.800  23.873   2.048  0.00  0.00    +0.031 C 
BRANCH  21  22
ATOM     22  C   UNL     1     -39.276  23.903   0.627  0.00  0.00    -0.030 C 
ATOM     23  C   UNL     1     -39.039  22.996  -0.335  0.00  0.00    -0.019 C 
BRANCH  23  24
ATOM     24  C   UNL     1     -38.222  21.757  -0.123  0.00  0.00    +0.135 C 
BRANCH  24  26
ATOM     25  O   UNL     1     -40.341  20.597   0.239  0.00  0.00    -0.250 OA
ATOM     26  C   UNL     1     -39.123  20.565   0.118  0.00  0.00    +0.318 C 
BRANCH  26  27
ATOM     27  O   UNL     1     -38.403  19.414   0.198  0.00  0.00    -0.480 OA
ATOM     28  H   UNL     1     -38.771  18.660   0.615  0.00  0.00    +0.295 HD
ENDBRANCH  26  27
ENDBRANCH  24  26
ENDBRANCH  23  24
ENDBRANCH  21  22
ENDBRANCH   2  21
TORSDOF 14
ENDMDL
MODEL 5
REMARK VINA RESULT:      -5.6      2.582      5.367
REMARK  Name = 5283138
REMARK  14 active torsions:
REMARK  status: ('A' for Active; 'I' for Inactive)
REMARK    1  A    between atoms: C_2  and  C_21
REMARK    2  A    between atoms: C_3  and  O_7
REMARK    3  A    between atoms: C_4  and  C_11
REMARK    4  A    between atoms: C_6  and  O_9
REMARK    5  A    between atoms: C_12  and  C_13
REMARK    6  A    between atoms: C_13  and  O_14
REMARK    7  A    between atoms: C_13  and  C_16
REMARK    8  A    between atoms: C_16  and  C_17
REMARK    9  A    between atoms: C_17  and  C_18
REMARK   10  A    between atoms: C_18  and  C_19
REMARK   11  A    between atoms: C_21  and  C_22
REMARK   12  A    between atoms: C_23  and  C_24
REMARK   13  A    between atoms: C_24  and  C_26
REMARK   14  A    between atoms: C_26  and  O_27
REMARK                            x       y       z     vdW  Elec       q    Type
REMARK                         _______ _______ _______ _____ _____    ______ ____
ROOT
ATOM      1  O   UNL     1     -38.177  22.198   0.307  0.00  0.00    -0.329 OA
ATOM      2  C   UNL     1     -36.539  21.986   2.105  0.00  0.00    +0.063 C 
ATOM      3  C   UNL     1     -36.249  20.533   1.669  0.00  0.00    +0.118 C 
ATOM      4  C   UNL     1     -37.976  22.396   1.711  0.00  0.00    +0.142 C 
ATOM      5  C   UNL     1     -36.637  20.307   0.207  0.00  0.00    +0.090 C 
ATOM      6  C   UNL     1     -38.029  20.845  -0.122  0.00  0.00    +0.234 C 
ENDROOT
BRANCH   3   7
ATOM      7  O   UNL     1     -36.916  19.579   2.493  0.00  0.00    -0.384 OA
ATOM      8  H   UNL     1     -36.953  18.725   2.035  0.00  0.00    +0.210 HD
ENDBRANCH   3   7
BRANCH   6   9
ATOM      9  O   UNL     1     -39.069  19.997   0.355  0.00  0.00    -0.360 OA
ATOM     10  H   UNL     1     -39.923  20.446   0.256  0.00  0.00    +0.213 HD
ENDBRANCH   6   9
BRANCH   4  11
ATOM     11  C   UNL     1     -38.273  23.839   1.982  0.00  0.00    +0.001 C 
ATOM     12  C   UNL     1     -37.415  24.838   1.729  0.00  0.00    +0.000 C 
BRANCH  12  13
ATOM     13  C   UNL     1     -37.717  26.284   2.004  0.00  0.00    +0.132 C 
BRANCH  13  14
ATOM     14  O   UNL     1     -38.327  26.379   3.293  0.00  0.00    -0.380 OA
ATOM     15  H   UNL     1     -38.346  25.502   3.707  0.00  0.00    +0.211 HD
ENDBRANCH  13  14
BRANCH  13  16
ATOM     16  C   UNL     1     -36.459  27.163   2.025  0.00  0.00    +0.034 C 
BRANCH  16  17
ATOM     17  C   UNL     1     -35.176  26.389   1.710  0.00  0.00    +0.003 C 
BRANCH  17  18
ATOM     18  C   UNL     1     -33.920  27.020   2.320  0.00  0.00    +0.000 C 
BRANCH  18  19
ATOM     19  C   UNL     1     -32.826  26.003   2.650  0.00  0.00    +0.000 C 
ATOM     20  C   UNL     1     -31.613  26.183   1.751  0.00  0.00    +0.000 C 
ENDBRANCH  18  19
ENDBRANCH  17  18
ENDBRANCH  16  17
ENDBRANCH  13  16
ENDBRANCH  12  13
ENDBRANCH   4  11
BRANCH   2  21
ATOM     21  C   UNL     1     -36.254  22.169   3.601  0.00  0.00    +0.031 C 
BRANCH  21  22
ATOM     22  C   UNL     1     -34.926  22.763   3.963  0.00  0.00    -0.030 C 
ATOM     23  C   UNL     1     -34.687  23.778   4.807  0.00  0.00    -0.019 C 
BRANCH  23  24
ATOM     24  C   UNL     1     -35.763  24.508   5.553  0.00  0.00    +0.135 C 
BRANCH  24  26
ATOM     25  O   UNL     1     -34.352  26.485   5.809  0.00  0.00    -0.250 OA
ATOM     26  C   UNL     1     -35.454  25.988   5.614  0.00  0.00    +0.318 C 
BRANCH  26  27
ATOM     27  O   UNL     1     -36.577  26.732   5.431  0.00  0.00    -0.480 OA
ATOM     28  H   UNL     1     -37.157  26.538   4.721  0.00  0.00    +0.295 HD
ENDBRANCH  26  27
ENDBRANCH  24  26
ENDBRANCH  23  24
ENDBRANCH  21  22
ENDBRANCH   2  21
TORSDOF 14
ENDMDL
MODEL 6
REMARK VINA RESULT:      -5.5      1.476      4.549
REMARK  Name = 5283138
REMARK  14 active torsions:
REMARK  status: ('A' for Active; 'I' for Inactive)
REMARK    1  A    between atoms: C_2  and  C_21
REMARK    2  A    between atoms: C_3  and  O_7
REMARK    3  A    between atoms: C_4  and  C_11
REMARK    4  A    between atoms: C_6  and  O_9
REMARK    5  A    between atoms: C_12  and  C_13
REMARK    6  A    between atoms: C_13  and  O_14
REMARK    7  A    between atoms: C_13  and  C_16
REMARK    8  A    between atoms: C_16  and  C_17
REMARK    9  A    between atoms: C_17  and  C_18
REMARK   10  A    between atoms: C_18  and  C_19
REMARK   11  A    between atoms: C_21  and  C_22
REMARK   12  A    between atoms: C_23  and  C_24
REMARK   13  A    between atoms: C_24  and  C_26
REMARK   14  A    between atoms: C_26  and  O_27
REMARK                            x       y       z     vdW  Elec       q    Type
REMARK                         _______ _______ _______ _____ _____    ______ ____
ROOT
ATOM      1  O   UNL     1     -35.022  21.027   4.584  0.00  0.00    -0.329 OA
ATOM      2  C   UNL     1     -35.500  22.913   3.108  0.00  0.00    +0.063 C 
ATOM      3  C   UNL     1     -35.453  23.870   4.318  0.00  0.00    +0.118 C 
ATOM      4  C   UNL     1     -35.905  21.489   3.556  0.00  0.00    +0.142 C 
ATOM      5  C   UNL     1     -34.644  23.271   5.468  0.00  0.00    +0.090 C 
ATOM      6  C   UNL     1     -35.033  21.823   5.769  0.00  0.00    +0.234 C 
ENDROOT
BRANCH   3   7
ATOM      7  O   UNL     1     -36.757  24.218   4.781  0.00  0.00    -0.384 OA
ATOM      8  H   UNL     1     -37.364  23.479   4.622  0.00  0.00    +0.210 HD
ENDBRANCH   3   7
BRANCH   6   9
ATOM      9  O   UNL     1     -36.256  21.725   6.490  0.00  0.00    -0.360 OA
ATOM     10  H   UNL     1     -36.973  21.486   5.881  0.00  0.00    +0.213 HD
ENDBRANCH   6   9
BRANCH   4  11
ATOM     11  C   UNL     1     -35.834  20.480   2.451  0.00  0.00    +0.001 C 
ATOM     12  C   UNL     1     -34.698  20.137   1.827  0.00  0.00    +0.000 C 
BRANCH  12  13
ATOM     13  C   UNL     1     -34.631  19.125   0.717  0.00  0.00    +0.132 C 
BRANCH  13  14
ATOM     14  O   UNL     1     -35.915  18.511   0.592  0.00  0.00    -0.380 OA
ATOM     15  H   UNL     1     -36.505  18.851   1.282  0.00  0.00    +0.211 HD
ENDBRANCH  13  14
BRANCH  13  16
ATOM     16  C   UNL     1     -34.285  19.749  -0.641  0.00  0.00    +0.034 C 
BRANCH  16  17
ATOM     17  C   UNL     1     -32.932  20.468  -0.648  0.00  0.00    +0.003 C 
BRANCH  17  18
ATOM     18  C   UNL     1     -31.757  19.548  -0.998  0.00  0.00    +0.000 C 
BRANCH  18  19
ATOM     19  C   UNL     1     -30.813  19.292   0.177  0.00  0.00    +0.000 C 
ATOM     20  C   UNL     1     -31.163  17.998   0.897  0.00  0.00    +0.000 C 
ENDBRANCH  18  19
ENDBRANCH  17  18
ENDBRANCH  16  17
ENDBRANCH  13  16
ENDBRANCH  12  13
ENDBRANCH   4  11
BRANCH   2  21
ATOM     21  C   UNL     1     -36.407  23.474   2.007  0.00  0.00    +0.031 C 
BRANCH  21  22
ATOM     22  C   UNL     1     -36.304  24.945   1.739  0.00  0.00    -0.030 C 
ATOM     23  C   UNL     1     -37.309  25.810   1.528  0.00  0.00    -0.019 C 
BRANCH  23  24
ATOM     24  C   UNL     1     -38.756  25.417   1.528  0.00  0.00    +0.135 C 
BRANCH  24  26
ATOM     25  O   UNL     1     -39.437  24.471   3.674  0.00  0.00    -0.250 OA
ATOM     26  C   UNL     1     -39.309  25.439   2.936  0.00  0.00    +0.318 C 
BRANCH  26  27
ATOM     27  O   UNL     1     -39.670  26.698   3.302  0.00  0.00    -0.480 OA
ATOM     28  H   UNL     1     -39.238  27.120   4.019  0.00  0.00    +0.295 HD
ENDBRANCH  26  27
ENDBRANCH  24  26
ENDBRANCH  23  24
ENDBRANCH  21  22
ENDBRANCH   2  21
TORSDOF 14
ENDMDL
MODEL 7
REMARK VINA RESULT:      -5.4      2.239      7.305
REMARK  Name = 5283138
REMARK  14 active torsions:
REMARK  status: ('A' for Active; 'I' for Inactive)
REMARK    1  A    between atoms: C_2  and  C_21
REMARK    2  A    between atoms: C_3  and  O_7
REMARK    3  A    between atoms: C_4  and  C_11
REMARK    4  A    between atoms: C_6  and  O_9
REMARK    5  A    between atoms: C_12  and  C_13
REMARK    6  A    between atoms: C_13  and  O_14
REMARK    7  A    between atoms: C_13  and  C_16
REMARK    8  A    between atoms: C_16  and  C_17
REMARK    9  A    between atoms: C_17  and  C_18
REMARK   10  A    between atoms: C_18  and  C_19
REMARK   11  A    between atoms: C_21  and  C_22
REMARK   12  A    between atoms: C_23  and  C_24
REMARK   13  A    between atoms: C_24  and  C_26
REMARK   14  A    between atoms: C_26  and  O_27
REMARK                            x       y       z     vdW  Elec       q    Type
REMARK                         _______ _______ _______ _____ _____    ______ ____
ROOT
ATOM      1  O   UNL     1     -37.643  22.629   1.248  0.00  0.00    -0.329 OA
ATOM      2  C   UNL     1     -36.127  22.682   3.162  0.00  0.00    +0.063 C 
ATOM      3  C   UNL     1     -35.435  21.401   2.648  0.00  0.00    +0.118 C 
ATOM      4  C   UNL     1     -37.593  22.742   2.675  0.00  0.00    +0.142 C 
ATOM      5  C   UNL     1     -35.654  21.217   1.146  0.00  0.00    +0.090 C 
ATOM      6  C   UNL     1     -37.115  21.405   0.737  0.00  0.00    +0.234 C 
ENDROOT
BRANCH   3   7
ATOM      7  O   UNL     1     -35.878  20.235   3.342  0.00  0.00    -0.384 OA
ATOM      8  H   UNL     1     -35.938  19.493   2.720  0.00  0.00    +0.210 HD
ENDBRANCH   3   7
BRANCH   6   9
ATOM      9  O   UNL     1     -37.921  20.277   1.060  0.00  0.00    -0.360 OA
ATOM     10  H   UNL     1     -37.527  19.477   0.678  0.00  0.00    +0.213 HD
ENDBRANCH   6   9
BRANCH   4  11
ATOM     11  C   UNL     1     -38.278  24.028   3.022  0.00  0.00    +0.001 C 
ATOM     12  C   UNL     1     -39.549  24.308   2.699  0.00  0.00    +0.000 C 
BRANCH  12  13
ATOM     13  C   UNL     1     -40.232  25.601   3.048  0.00  0.00    +0.132 C 
BRANCH  13  14
ATOM     14  O   UNL     1     -39.234  26.539   3.457  0.00  0.00    -0.380 OA
ATOM     15  H   UNL     1     -39.251  27.307   2.866  0.00  0.00    +0.211 HD
ENDBRANCH  13  14
BRANCH  13  16
ATOM     16  C   UNL     1     -40.984  26.218   1.861  0.00  0.00    +0.034 C 
BRANCH  16  17
ATOM     17  C   UNL     1     -42.297  26.896   2.265  0.00  0.00    +0.003 C 
BRANCH  17  18
ATOM     18  C   UNL     1     -42.616  26.760   3.758  0.00  0.00    +0.000 C 
BRANCH  18  19
ATOM     19  C   UNL     1     -43.828  27.583   4.198  0.00  0.00    +0.000 C 
ATOM     20  C   UNL     1     -44.941  26.691   4.727  0.00  0.00    +0.000 C 
ENDBRANCH  18  19
ENDBRANCH  17  18
ENDBRANCH  16  17
ENDBRANCH  13  16
ENDBRANCH  12  13
ENDBRANCH   4  11
BRANCH   2  21
ATOM     21  C   UNL     1     -35.998  22.795   4.685  0.00  0.00    +0.031 C 
BRANCH  21  22
ATOM     22  C   UNL     1     -34.793  23.520   5.204  0.00  0.00    -0.030 C 
ATOM     23  C   UNL     1     -34.670  24.836   5.442  0.00  0.00    -0.019 C 
BRANCH  23  24
ATOM     24  C   UNL     1     -35.771  25.827   5.214  0.00  0.00    +0.135 C 
BRANCH  24  26
ATOM     25  O   UNL     1     -34.354  27.452   4.069  0.00  0.00    -0.250 OA
ATOM     26  C   UNL     1     -35.388  26.801   4.122  0.00  0.00    +0.318 C 
BRANCH  26  27
ATOM     27  O   UNL     1     -36.361  26.883   3.174  0.00  0.00    -0.480 OA
ATOM     28  H   UNL     1     -36.187  26.597   2.299  0.00  0.00    +0.295 HD
ENDBRANCH  26  27
ENDBRANCH  24  26
ENDBRANCH  23  24
ENDBRANCH  21  22
ENDBRANCH   2  21
TORSDOF 14
ENDMDL
MODEL 8
REMARK VINA RESULT:      -5.4      1.819      5.123
REMARK  Name = 5283138
REMARK  14 active torsions:
REMARK  status: ('A' for Active; 'I' for Inactive)
REMARK    1  A    between atoms: C_2  and  C_21
REMARK    2  A    between atoms: C_3  and  O_7
REMARK    3  A    between atoms: C_4  and  C_11
REMARK    4  A    between atoms: C_6  and  O_9
REMARK    5  A    between atoms: C_12  and  C_13
REMARK    6  A    between atoms: C_13  and  O_14
REMARK    7  A    between atoms: C_13  and  C_16
REMARK    8  A    between atoms: C_16  and  C_17
REMARK    9  A    between atoms: C_17  and  C_18
REMARK   10  A    between atoms: C_18  and  C_19
REMARK   11  A    between atoms: C_21  and  C_22
REMARK   12  A    between atoms: C_23  and  C_24
REMARK   13  A    between atoms: C_24  and  C_26
REMARK   14  A    between atoms: C_26  and  O_27
REMARK                            x       y       z     vdW  Elec       q    Type
REMARK                         _______ _______ _______ _____ _____    ______ ____
ROOT
ATOM      1  O   UNL     1     -35.038  21.084   4.443  0.00  0.00    -0.329 OA
ATOM      2  C   UNL     1     -35.694  22.944   3.003  0.00  0.00    +0.063 C 
ATOM      3  C   UNL     1     -35.662  23.895   4.220  0.00  0.00    +0.118 C 
ATOM      4  C   UNL     1     -35.989  21.495   3.453  0.00  0.00    +0.142 C 
ATOM      5  C   UNL     1     -34.772  23.341   5.332  0.00  0.00    +0.090 C 
ATOM      6  C   UNL     1     -35.054  21.870   5.634  0.00  0.00    +0.234 C 
ENDROOT
BRANCH   3   7
ATOM      7  O   UNL     1     -36.967  24.153   4.736  0.00  0.00    -0.384 OA
ATOM      8  H   UNL     1     -36.893  24.618   5.584  0.00  0.00    +0.210 HD
ENDBRANCH   3   7
BRANCH   6   9
ATOM      9  O   UNL     1     -36.240  21.687   6.401  0.00  0.00    -0.360 OA
ATOM     10  H   UNL     1     -36.805  22.472   6.314  0.00  0.00    +0.213 HD
ENDBRANCH   6   9
BRANCH   4  11
ATOM     11  C   UNL     1     -35.894  20.500   2.337  0.00  0.00    +0.001 C 
ATOM     12  C   UNL     1     -34.739  20.119   1.773  0.00  0.00    +0.000 C 
BRANCH  12  13
ATOM     13  C   UNL     1     -34.650  19.121   0.652  0.00  0.00    +0.132 C 
BRANCH  13  14
ATOM     14  O   UNL     1     -35.810  18.288   0.699  0.00  0.00    -0.380 OA
ATOM     15  H   UNL     1     -36.354  18.446  -0.088  0.00  0.00    +0.211 HD
ENDBRANCH  13  14
BRANCH  13  16
ATOM     16  C   UNL     1     -34.613  19.781  -0.733  0.00  0.00    +0.034 C 
BRANCH  16  17
ATOM     17  C   UNL     1     -35.994  19.890  -1.387  0.00  0.00    +0.003 C 
BRANCH  17  18
ATOM     18  C   UNL     1     -36.610  21.289  -1.278  0.00  0.00    +0.000 C 
BRANCH  18  19
ATOM     19  C   UNL     1     -38.134  21.275  -1.151  0.00  0.00    +0.000 C 
ATOM     20  C   UNL     1     -38.608  20.114  -0.291  0.00  0.00    +0.000 C 
ENDBRANCH  18  19
ENDBRANCH  17  18
ENDBRANCH  16  17
ENDBRANCH  13  16
ENDBRANCH  12  13
ENDBRANCH   4  11
BRANCH   2  21
ATOM     21  C   UNL     1     -36.678  23.452   1.943  0.00  0.00    +0.031 C 
BRANCH  21  22
ATOM     22  C   UNL     1     -38.085  22.942   2.036  0.00  0.00    -0.030 C 
ATOM     23  C   UNL     1     -39.220  23.644   1.888  0.00  0.00    -0.019 C 
BRANCH  23  24
ATOM     24  C   UNL     1     -39.255  25.113   1.593  0.00  0.00    +0.135 C 
BRANCH  24  26
ATOM     25  O   UNL     1     -40.711  26.099   3.288  0.00  0.00    -0.250 OA
ATOM     26  C   UNL     1     -39.589  25.895   2.845  0.00  0.00    +0.318 C 
BRANCH  26  27
ATOM     27  O   UNL     1     -38.463  26.372   3.440  0.00  0.00    -0.480 OA
ATOM     28  H   UNL     1     -37.631  26.266   3.021  0.00  0.00    +0.295 HD
ENDBRANCH  26  27
ENDBRANCH  24  26
ENDBRANCH  23  24
ENDBRANCH  21  22
ENDBRANCH   2  21
TORSDOF 14
ENDMDL
MODEL 9
REMARK VINA RESULT:      -5.4      2.257      6.158
REMARK  Name = 5283138
REMARK  14 active torsions:
REMARK  status: ('A' for Active; 'I' for Inactive)
REMARK    1  A    between atoms: C_2  and  C_21
REMARK    2  A    between atoms: C_3  and  O_7
REMARK    3  A    between atoms: C_4  and  C_11
REMARK    4  A    between atoms: C_6  and  O_9
REMARK    5  A    between atoms: C_12  and  C_13
REMARK    6  A    between atoms: C_13  and  O_14
REMARK    7  A    between atoms: C_13  and  C_16
REMARK    8  A    between atoms: C_16  and  C_17
REMARK    9  A    between atoms: C_17  and  C_18
REMARK   10  A    between atoms: C_18  and  C_19
REMARK   11  A    between atoms: C_21  and  C_22
REMARK   12  A    between atoms: C_23  and  C_24
REMARK   13  A    between atoms: C_24  and  C_26
REMARK   14  A    between atoms: C_26  and  O_27
REMARK                            x       y       z     vdW  Elec       q    Type
REMARK                         _______ _______ _______ _____ _____    ______ ____
ROOT
ATOM      1  O   UNL     1     -37.691  22.586   1.178  0.00  0.00    -0.329 OA
ATOM      2  C   UNL     1     -36.160  22.563   3.081  0.00  0.00    +0.063 C 
ATOM      3  C   UNL     1     -35.493  21.285   2.528  0.00  0.00    +0.118 C 
ATOM      4  C   UNL     1     -37.629  22.658   2.607  0.00  0.00    +0.142 C 
ATOM      5  C   UNL     1     -35.725  21.146   1.023  0.00  0.00    +0.090 C 
ATOM      6  C   UNL     1     -37.185  21.368   0.630  0.00  0.00    +0.234 C 
ENDROOT
BRANCH   3   7
ATOM      7  O   UNL     1     -35.949  20.108   3.192  0.00  0.00    -0.384 OA
ATOM      8  H   UNL     1     -36.868  20.231   3.475  0.00  0.00    +0.210 HD
ENDBRANCH   3   7
BRANCH   6   9
ATOM      9  O   UNL     1     -38.007  20.244   0.928  0.00  0.00    -0.360 OA
ATOM     10  H   UNL     1     -37.585  19.437   0.594  0.00  0.00    +0.213 HD
ENDBRANCH   6   9
BRANCH   4  11
ATOM     11  C   UNL     1     -38.291  23.945   2.995  0.00  0.00    +0.001 C 
ATOM     12  C   UNL     1     -39.583  24.219   2.760  0.00  0.00    +0.000 C 
BRANCH  12  13
ATOM     13  C   UNL     1     -40.243  25.513   3.149  0.00  0.00    +0.132 C 
BRANCH  13  14
ATOM     14  O   UNL     1     -39.221  26.456   3.481  0.00  0.00    -0.380 OA
ATOM     15  H   UNL     1     -38.408  25.983   3.715  0.00  0.00    +0.211 HD
ENDBRANCH  13  14
BRANCH  13  16
ATOM     16  C   UNL     1     -41.079  26.121   2.015  0.00  0.00    +0.034 C 
BRANCH  16  17
ATOM     17  C   UNL     1     -40.496  25.854   0.625  0.00  0.00    +0.003 C 
BRANCH  17  18
ATOM     18  C   UNL     1     -39.991  27.119  -0.077  0.00  0.00    +0.000 C 
BRANCH  18  19
ATOM     19  C   UNL     1     -38.496  27.372   0.123  0.00  0.00    +0.000 C 
ATOM     20  C   UNL     1     -37.701  26.077   0.047  0.00  0.00    +0.000 C 
ENDBRANCH  18  19
ENDBRANCH  17  18
ENDBRANCH  16  17
ENDBRANCH  13  16
ENDBRANCH  12  13
ENDBRANCH   4  11
BRANCH   2  21
ATOM     21  C   UNL     1     -36.019  22.631   4.606  0.00  0.00    +0.031 C 
BRANCH  21  22
ATOM     22  C   UNL     1     -34.811  23.343   5.136  0.00  0.00    -0.030 C 
ATOM     23  C   UNL     1     -34.693  24.648   5.427  0.00  0.00    -0.019 C 
BRANCH  23  24
ATOM     24  C   UNL     1     -35.805  25.639   5.259  0.00  0.00    +0.135 C 
BRANCH  24  26
ATOM     25  O   UNL     1     -34.395  27.358   4.248  0.00  0.00    -0.250 OA
ATOM     26  C   UNL     1     -35.424  26.695   4.245  0.00  0.00    +0.318 C 
BRANCH  26  27
ATOM     27  O   UNL     1     -36.390  26.838   3.298  0.00  0.00    -0.480 OA
ATOM     28  H   UNL     1     -37.231  27.177   3.535  0.00  0.00    +0.295 HD
ENDBRANCH  26  27
ENDBRANCH  24  26
ENDBRANCH  23  24
ENDBRANCH  21  22
ENDBRANCH   2  21
TORSDOF 14
ENDMDL
