MODEL 1
REMARK VINA RESULT:      -6.3      0.000      0.000
REMARK  Name = 192214
REMARK  8 active torsions:
REMARK  status: ('A' for Active; 'I' for Inactive)
REMARK    1  A    between atoms: C_2  and  O_6
REMARK    2  A    between atoms: C_3  and  O_8
REMARK    3  A    between atoms: C_4  and  C_10
REMARK    4  A    between atoms: C_5  and  C_22
REMARK    5  A    between atoms: C_10  and  O_11
REMARK    6  A    between atoms: O_11  and  S_12
REMARK    7  A    between atoms: S_12  and  C_15
REMARK    8  A    between atoms: C_22  and  O_23
REMARK                            x       y       z     vdW  Elec       q    Type
REMARK                         _______ _______ _______ _____ _____    ______ ____
ROOT
ATOM      1  O   UNL     1     -36.417  22.569   4.083  0.00  0.00    -0.348 OA
ATOM      2  C   UNL     1     -36.406  24.938   4.033  0.00  0.00    +0.169 C 
ATOM      3  C   UNL     1     -35.820  24.480   5.349  0.00  0.00    +0.169 C 
ATOM      4  C   UNL     1     -37.166  23.695   3.597  0.00  0.00    +0.176 C 
ATOM      5  C   UNL     1     -35.439  23.045   5.025  0.00  0.00    +0.174 C 
ENDROOT
BRANCH   2   6
ATOM      6  O   UNL     1     -37.281  26.037   4.192  0.00  0.00    -0.379 OA
ATOM      7  H   UNL     1     -37.752  25.955   5.037  0.00  0.00    +0.211 HD
ENDBRANCH   2   6
BRANCH   3   8
ATOM      8  O   UNL     1     -34.681  25.237   5.716  0.00  0.00    -0.379 OA
ATOM      9  H   UNL     1     -34.212  25.522   4.916  0.00  0.00    +0.211 HD
ENDBRANCH   3   8
BRANCH   4  10
ATOM     10  C   UNL     1     -37.327  23.590   2.091  0.00  0.00    +0.205 C 
BRANCH  10  11
ATOM     11  O   UNL     1     -36.512  22.530   1.617  0.00  0.00    -0.236 OA
BRANCH  11  12
ATOM     12  S   UNL     1     -35.249  22.880   0.638  0.00  0.00    +0.013 S 
ATOM     13  O   UNL     1     -34.486  23.965   1.222  0.00  0.00    -0.067 OA
ATOM     14  O   UNL     1     -35.746  22.950  -0.722  0.00  0.00    -0.067 OA
BRANCH  12  15
ATOM     15  C   UNL     1     -34.216  21.452   0.737  0.00  0.00    +0.110 C 
ATOM     16  C   UNL     1     -34.613  20.382   1.523  0.00  0.00    +0.018 C 
ATOM     17  C   UNL     1     -33.027  21.423   0.028  0.00  0.00    +0.018 C 
ATOM     18  C   UNL     1     -32.597  19.209   0.893  0.00  0.00    -0.022 C 
ATOM     19  C   UNL     1     -33.797  19.253   1.602  0.00  0.00    -0.003 C 
ATOM     20  C   UNL     1     -32.211  20.295   0.107  0.00  0.00    -0.003 C 
ATOM     21  C   UNL     1     -31.724  18.003   0.977  0.00  0.00    +0.031 C 
ENDBRANCH  12  15
ENDBRANCH  11  12
ENDBRANCH  10  11
ENDBRANCH   4  10
BRANCH   5  22
ATOM     22  C   UNL     1     -35.422  22.141   6.245  0.00  0.00    +0.169 C 
BRANCH  22  23
ATOM     23  O   UNL     1     -35.392  20.790   5.812  0.00  0.00    -0.379 OA
ATOM     24  H   UNL     1     -36.218  20.350   6.069  0.00  0.00    +0.211 HD
ENDBRANCH  22  23
ENDBRANCH   5  22
TORSDOF 8
ENDMDL
MODEL 2
REMARK VINA RESULT:      -6.1      2.082      2.771
REMARK  Name = 192214
REMARK  8 active torsions:
REMARK  status: ('A' for Active; 'I' for Inactive)
REMARK    1  A    between atoms: C_2  and  O_6
REMARK    2  A    between atoms: C_3  and  O_8
REMARK    3  A    between atoms: C_4  and  C_10
REMARK    4  A    between atoms: C_5  and  C_22
REMARK    5  A    between atoms: C_10  and  O_11
REMARK    6  A    between atoms: O_11  and  S_12
REMARK    7  A    between atoms: S_12  and  C_15
REMARK    8  A    between atoms: C_22  and  O_23
REMARK                            x       y       z     vdW  Elec       q    Type
REMARK                         _______ _______ _______ _____ _____    ______ ____
ROOT
ATOM      1  O   UNL     1     -36.684  23.671   4.740  0.00  0.00    -0.348 OA
ATOM      2  C   UNL     1     -35.603  25.711   4.206  0.00  0.00    +0.169 C 
ATOM      3  C   UNL     1     -34.664  24.872   5.042  0.00  0.00    +0.169 C 
ATOM      4  C   UNL     1     -36.944  25.069   4.528  0.00  0.00    +0.176 C 
ATOM      5  C   UNL     1     -35.263  23.486   4.865  0.00  0.00    +0.174 C 
ENDROOT
BRANCH   2   6
ATOM      6  O   UNL     1     -35.588  27.072   4.592  0.00  0.00    -0.379 OA
ATOM      7  H   UNL     1     -36.063  27.601   3.931  0.00  0.00    +0.211 HD
ENDBRANCH   2   6
BRANCH   3   8
ATOM      8  O   UNL     1     -33.336  24.916   4.555  0.00  0.00    -0.379 OA
ATOM      9  H   UNL     1     -33.290  24.462   3.699  0.00  0.00    +0.211 HD
ENDBRANCH   3   8
BRANCH   4  10
ATOM     10  C   UNL     1     -37.968  25.236   3.420  0.00  0.00    +0.205 C 
BRANCH  10  11
ATOM     11  O   UNL     1     -38.694  24.025   3.281  0.00  0.00    -0.236 OA
BRANCH  11  12
ATOM     12  S   UNL     1     -38.828  23.350   1.797  0.00  0.00    +0.013 S 
ATOM     13  O   UNL     1     -38.667  24.382   0.792  0.00  0.00    -0.067 OA
ATOM     14  O   UNL     1     -39.988  22.479   1.809  0.00  0.00    -0.067 OA
BRANCH  12  15
ATOM     15  C   UNL     1     -37.405  22.314   1.663  0.00  0.00    +0.110 C 
ATOM     16  C   UNL     1     -37.532  20.955   1.899  0.00  0.00    +0.018 C 
ATOM     17  C   UNL     1     -36.186  22.876   1.322  0.00  0.00    +0.018 C 
ATOM     18  C   UNL     1     -35.173  20.686   1.452  0.00  0.00    -0.022 C 
ATOM     19  C   UNL     1     -36.408  20.136   1.794  0.00  0.00    -0.003 C 
ATOM     20  C   UNL     1     -35.062  22.057   1.217  0.00  0.00    -0.003 C 
ATOM     21  C   UNL     1     -33.971  19.811   1.338  0.00  0.00    +0.031 C 
ENDBRANCH  12  15
ENDBRANCH  11  12
ENDBRANCH  10  11
ENDBRANCH   4  10
BRANCH   5  22
ATOM     22  C   UNL     1     -34.969  22.555   6.028  0.00  0.00    +0.169 C 
BRANCH  22  23
ATOM     23  O   UNL     1     -36.169  21.894   6.398  0.00  0.00    -0.379 OA
ATOM     24  H   UNL     1     -36.261  21.908   7.364  0.00  0.00    +0.211 HD
ENDBRANCH  22  23
ENDBRANCH   5  22
TORSDOF 8
ENDMDL
MODEL 3
REMARK VINA RESULT:      -6.1      1.764      3.389
REMARK  Name = 192214
REMARK  8 active torsions:
REMARK  status: ('A' for Active; 'I' for Inactive)
REMARK    1  A    between atoms: C_2  and  O_6
REMARK    2  A    between atoms: C_3  and  O_8
REMARK    3  A    between atoms: C_4  and  C_10
REMARK    4  A    between atoms: C_5  and  C_22
REMARK    5  A    between atoms: C_10  and  O_11
REMARK    6  A    between atoms: O_11  and  S_12
REMARK    7  A    between atoms: S_12  and  C_15
REMARK    8  A    between atoms: C_22  and  O_23
REMARK                            x       y       z     vdW  Elec       q    Type
REMARK                         _______ _______ _______ _____ _____    ______ ____
ROOT
ATOM      1  O   UNL     1     -35.740  24.713   1.744  0.00  0.00    -0.348 OA
ATOM      2  C   UNL     1     -36.811  23.371   3.376  0.00  0.00    +0.169 C 
ATOM      3  C   UNL     1     -36.566  24.742   3.964  0.00  0.00    +0.169 C 
ATOM      4  C   UNL     1     -35.821  23.360   2.222  0.00  0.00    +0.176 C 
ATOM      5  C   UNL     1     -36.369  25.576   2.707  0.00  0.00    +0.174 C 
ENDROOT
BRANCH   2   6
ATOM      6  O   UNL     1     -36.525  22.338   4.299  0.00  0.00    -0.379 OA
ATOM      7  H   UNL     1     -35.565  22.271   4.422  0.00  0.00    +0.211 HD
ENDBRANCH   2   6
BRANCH   3   8
ATOM      8  O   UNL     1     -37.676  25.206   4.710  0.00  0.00    -0.379 OA
ATOM      9  H   UNL     1     -38.225  25.778   4.151  0.00  0.00    +0.211 HD
ENDBRANCH   3   8
BRANCH   4  10
ATOM     10  C   UNL     1     -36.235  22.440   1.087  0.00  0.00    +0.205 C 
BRANCH  10  11
ATOM     11  O   UNL     1     -35.130  21.625   0.732  0.00  0.00    -0.236 OA
BRANCH  11  12
ATOM     12  S   UNL     1     -35.034  20.112   1.347  0.00  0.00    +0.013 S 
ATOM     13  O   UNL     1     -35.913  19.240   0.594  0.00  0.00    -0.067 OA
ATOM     14  O   UNL     1     -35.122  20.212   2.791  0.00  0.00    -0.067 OA
BRANCH  12  15
ATOM     15  C   UNL     1     -33.391  19.593   0.964  0.00  0.00    +0.110 C 
ATOM     16  C   UNL     1     -32.588  20.408   0.183  0.00  0.00    +0.018 C 
ATOM     17  C   UNL     1     -32.931  18.381   1.452  0.00  0.00    +0.018 C 
ATOM     18  C   UNL     1     -30.811  18.780   0.364  0.00  0.00    -0.022 C 
ATOM     19  C   UNL     1     -31.289  19.998  -0.120  0.00  0.00    -0.003 C 
ATOM     20  C   UNL     1     -31.632  17.971   1.149  0.00  0.00    -0.003 C 
ATOM     21  C   UNL     1     -29.423  18.342   0.041  0.00  0.00    +0.031 C 
ENDBRANCH  12  15
ENDBRANCH  11  12
ENDBRANCH  10  11
ENDBRANCH   4  10
BRANCH   5  22
ATOM     22  C   UNL     1     -35.506  26.804   2.934  0.00  0.00    +0.169 C 
BRANCH  22  23
ATOM     23  O   UNL     1     -35.621  27.199   4.291  0.00  0.00    -0.379 OA
ATOM     24  H   UNL     1     -36.557  27.211   4.547  0.00  0.00    +0.211 HD
ENDBRANCH  22  23
ENDBRANCH   5  22
TORSDOF 8
ENDMDL
MODEL 4
REMARK VINA RESULT:      -6.0      1.798      3.018
REMARK  Name = 192214
REMARK  8 active torsions:
REMARK  status: ('A' for Active; 'I' for Inactive)
REMARK    1  A    between atoms: C_2  and  O_6
REMARK    2  A    between atoms: C_3  and  O_8
REMARK    3  A    between atoms: C_4  and  C_10
REMARK    4  A    between atoms: C_5  and  C_22
REMARK    5  A    between atoms: C_10  and  O_11
REMARK    6  A    between atoms: O_11  and  S_12
REMARK    7  A    between atoms: S_12  and  C_15
REMARK    8  A    between atoms: C_22  and  O_23
REMARK                            x       y       z     vdW  Elec       q    Type
REMARK                         _______ _______ _______ _____ _____    ______ ____
ROOT
ATOM      1  O   UNL     1     -34.040  25.280   3.191  0.00  0.00    -0.348 OA
ATOM      2  C   UNL     1     -35.956  24.464   4.321  0.00  0.00    +0.169 C 
ATOM      3  C   UNL     1     -35.422  25.659   5.077  0.00  0.00    +0.169 C 
ATOM      4  C   UNL     1     -34.740  24.063   3.500  0.00  0.00    +0.176 C 
ATOM      5  C   UNL     1     -34.574  26.334   4.011  0.00  0.00    +0.174 C 
ENDROOT
BRANCH   2   6
ATOM      6  O   UNL     1     -36.349  23.418   5.188  0.00  0.00    -0.379 OA
ATOM      7  H   UNL     1     -35.735  22.672   5.094  0.00  0.00    +0.211 HD
ENDBRANCH   2   6
BRANCH   3   8
ATOM      8  O   UNL     1     -36.459  26.516   5.518  0.00  0.00    -0.379 OA
ATOM      9  H   UNL     1     -37.259  25.994   5.689  0.00  0.00    +0.211 HD
ENDBRANCH   3   8
BRANCH   4  10
ATOM     10  C   UNL     1     -35.099  23.340   2.214  0.00  0.00    +0.205 C 
BRANCH  10  11
ATOM     11  O   UNL     1     -35.358  21.977   2.513  0.00  0.00    -0.236 OA
BRANCH  11  12
ATOM     12  S   UNL     1     -35.609  20.931   1.281  0.00  0.00    +0.013 S 
ATOM     13  O   UNL     1     -35.962  21.679   0.091  0.00  0.00    -0.067 OA
ATOM     14  O   UNL     1     -36.446  19.855   1.775  0.00  0.00    -0.067 OA
BRANCH  12  15
ATOM     15  C   UNL     1     -34.014  20.242   0.967  0.00  0.00    +0.110 C 
ATOM     16  C   UNL     1     -33.117  20.942   0.176  0.00  0.00    +0.018 C 
ATOM     17  C   UNL     1     -33.686  19.014   1.515  0.00  0.00    +0.018 C 
ATOM     18  C   UNL     1     -31.512  19.162   0.472  0.00  0.00    -0.022 C 
ATOM     19  C   UNL     1     -31.858  20.398  -0.073  0.00  0.00    -0.003 C 
ATOM     20  C   UNL     1     -32.426  18.469   1.266  0.00  0.00    -0.003 C 
ATOM     21  C   UNL     1     -30.165  18.580   0.207  0.00  0.00    +0.031 C 
ENDBRANCH  12  15
ENDBRANCH  11  12
ENDBRANCH  10  11
ENDBRANCH   4  10
BRANCH   5  22
ATOM     22  C   UNL     1     -33.437  27.161   4.586  0.00  0.00    +0.169 C 
BRANCH  22  23
ATOM     23  O   UNL     1     -33.450  27.036   5.998  0.00  0.00    -0.379 OA
ATOM     24  H   UNL     1     -32.622  26.627   6.294  0.00  0.00    +0.211 HD
ENDBRANCH  22  23
ENDBRANCH   5  22
TORSDOF 8
ENDMDL
MODEL 5
REMARK VINA RESULT:      -5.9      5.402      8.271
REMARK  Name = 192214
REMARK  8 active torsions:
REMARK  status: ('A' for Active; 'I' for Inactive)
REMARK    1  A    between atoms: C_2  and  O_6
REMARK    2  A    between atoms: C_3  and  O_8
REMARK    3  A    between atoms: C_4  and  C_10
REMARK    4  A    between atoms: C_5  and  C_22
REMARK    5  A    between atoms: C_10  and  O_11
REMARK    6  A    between atoms: O_11  and  S_12
REMARK    7  A    between atoms: S_12  and  C_15
REMARK    8  A    between atoms: C_22  and  O_23
REMARK                            x       y       z     vdW  Elec       q    Type
REMARK                         _______ _______ _______ _____ _____    ______ ____
ROOT
ATOM      1  O   UNL     1     -34.390  24.384   5.293  0.00  0.00    -0.348 OA
ATOM      2  C   UNL     1     -35.693  26.281   4.731  0.00  0.00    +0.169 C 
ATOM      3  C   UNL     1     -36.428  25.040   4.278  0.00  0.00    +0.169 C 
ATOM      4  C   UNL     1     -34.274  25.753   4.872  0.00  0.00    +0.176 C 
ATOM      5  C   UNL     1     -35.758  23.970   5.124  0.00  0.00    +0.174 C 
ENDROOT
BRANCH   2   6
ATOM      6  O   UNL     1     -35.755  27.317   3.770  0.00  0.00    -0.379 OA
ATOM      7  H   UNL     1     -36.460  27.939   4.010  0.00  0.00    +0.211 HD
ENDBRANCH   2   6
BRANCH   3   8
ATOM      8  O   UNL     1     -37.814  25.112   4.557  0.00  0.00    -0.379 OA
ATOM      9  H   UNL     1     -38.273  24.388   4.102  0.00  0.00    +0.211 HD
ENDBRANCH   3   8
BRANCH   4  10
ATOM     10  C   UNL     1     -33.444  26.529   5.879  0.00  0.00    +0.205 C 
BRANCH  10  11
ATOM     11  O   UNL     1     -33.254  27.849   5.396  0.00  0.00    -0.236 OA
BRANCH  11  12
ATOM     12  S   UNL     1     -31.841  28.610   5.709  0.00  0.00    +0.013 S 
ATOM     13  O   UNL     1     -30.749  27.814   5.185  0.00  0.00    -0.067 OA
ATOM     14  O   UNL     1     -31.866  29.043   7.093  0.00  0.00    -0.067 OA
BRANCH  12  15
ATOM     15  C   UNL     1     -31.903  30.065   4.712  0.00  0.00    +0.110 C 
ATOM     16  C   UNL     1     -30.937  31.044   4.880  0.00  0.00    +0.018 C 
ATOM     17  C   UNL     1     -32.917  30.206   3.779  0.00  0.00    +0.018 C 
ATOM     18  C   UNL     1     -32.000  32.350   3.149  0.00  0.00    -0.022 C 
ATOM     19  C   UNL     1     -30.986  32.195   4.093  0.00  0.00    -0.003 C 
ATOM     20  C   UNL     1     -32.966  31.356   2.992  0.00  0.00    -0.003 C 
ATOM     21  C   UNL     1     -32.053  33.580   2.306  0.00  0.00    +0.031 C 
ENDBRANCH  12  15
ENDBRANCH  11  12
ENDBRANCH  10  11
ENDBRANCH   4  10
BRANCH   5  22
ATOM     22  C   UNL     1     -35.800  22.592   4.488  0.00  0.00    +0.169 C 
BRANCH  22  23
ATOM     23  O   UNL     1     -37.009  22.462   3.758  0.00  0.00    -0.379 OA
ATOM     24  H   UNL     1     -36.822  22.531   2.808  0.00  0.00    +0.211 HD
ENDBRANCH  22  23
ENDBRANCH   5  22
TORSDOF 8
ENDMDL
MODEL 6
REMARK VINA RESULT:      -5.9      1.599      2.571
REMARK  Name = 192214
REMARK  8 active torsions:
REMARK  status: ('A' for Active; 'I' for Inactive)
REMARK    1  A    between atoms: C_2  and  O_6
REMARK    2  A    between atoms: C_3  and  O_8
REMARK    3  A    between atoms: C_4  and  C_10
REMARK    4  A    between atoms: C_5  and  C_22
REMARK    5  A    between atoms: C_10  and  O_11
REMARK    6  A    between atoms: O_11  and  S_12
REMARK    7  A    between atoms: S_12  and  C_15
REMARK    8  A    between atoms: C_22  and  O_23
REMARK                            x       y       z     vdW  Elec       q    Type
REMARK                         _______ _______ _______ _____ _____    ______ ____
ROOT
ATOM      1  O   UNL     1     -36.413  23.741   4.697  0.00  0.00    -0.348 OA
ATOM      2  C   UNL     1     -34.838  23.829   2.930  0.00  0.00    +0.169 C 
ATOM      3  C   UNL     1     -34.634  25.035   3.817  0.00  0.00    +0.169 C 
ATOM      4  C   UNL     1     -36.252  23.416   3.306  0.00  0.00    +0.176 C 
ATOM      5  C   UNL     1     -35.318  24.584   5.098  0.00  0.00    +0.174 C 
ENDROOT
BRANCH   2   6
ATOM      6  O   UNL     1     -34.754  24.158   1.557  0.00  0.00    -0.379 OA
ATOM      7  H   UNL     1     -35.381  24.872   1.357  0.00  0.00    +0.211 HD
ENDBRANCH   2   6
BRANCH   3   8
ATOM      8  O   UNL     1     -33.263  25.304   4.043  0.00  0.00    -0.379 OA
ATOM      9  H   UNL     1     -33.173  25.934   4.775  0.00  0.00    +0.211 HD
ENDBRANCH   3   8
BRANCH   4  10
ATOM     10  C   UNL     1     -36.521  21.937   3.093  0.00  0.00    +0.205 C 
BRANCH  10  11
ATOM     11  O   UNL     1     -35.347  21.329   2.579  0.00  0.00    -0.236 OA
BRANCH  11  12
ATOM     12  S   UNL     1     -35.397  20.643   1.095  0.00  0.00    +0.013 S 
ATOM     13  O   UNL     1     -35.521  21.686   0.096  0.00  0.00    -0.067 OA
ATOM     14  O   UNL     1     -36.328  19.532   1.149  0.00  0.00    -0.067 OA
BRANCH  12  15
ATOM     15  C   UNL     1     -33.786  19.955   0.881  0.00  0.00    +0.110 C 
ATOM     16  C   UNL     1     -33.496  18.722   1.443  0.00  0.00    +0.018 C 
ATOM     17  C   UNL     1     -32.838  20.658   0.157  0.00  0.00    +0.018 C 
ATOM     18  C   UNL     1     -31.257  18.873   0.548  0.00  0.00    -0.022 C 
ATOM     19  C   UNL     1     -32.222  18.178   1.275  0.00  0.00    -0.003 C 
ATOM     20  C   UNL     1     -31.564  20.114  -0.011  0.00  0.00    -0.003 C 
ATOM     21  C   UNL     1     -29.895  18.292   0.367  0.00  0.00    +0.031 C 
ENDBRANCH  12  15
ENDBRANCH  11  12
ENDBRANCH  10  11
ENDBRANCH   4  10
BRANCH   5  22
ATOM     22  C   UNL     1     -35.841  25.737   5.936  0.00  0.00    +0.169 C 
BRANCH  22  23
ATOM     23  O   UNL     1     -36.477  26.672   5.080  0.00  0.00    -0.379 OA
ATOM     24  H   UNL     1     -37.074  26.203   4.476  0.00  0.00    +0.211 HD
ENDBRANCH  22  23
ENDBRANCH   5  22
TORSDOF 8
ENDMDL
MODEL 7
REMARK VINA RESULT:      -5.9      4.343      6.784
REMARK  Name = 192214
REMARK  8 active torsions:
REMARK  status: ('A' for Active; 'I' for Inactive)
REMARK    1  A    between atoms: C_2  and  O_6
REMARK    2  A    between atoms: C_3  and  O_8
REMARK    3  A    between atoms: C_4  and  C_10
REMARK    4  A    between atoms: C_5  and  C_22
REMARK    5  A    between atoms: C_10  and  O_11
REMARK    6  A    between atoms: O_11  and  S_12
REMARK    7  A    between atoms: S_12  and  C_15
REMARK    8  A    between atoms: C_22  and  O_23
REMARK                            x       y       z     vdW  Elec       q    Type
REMARK                         _______ _______ _______ _____ _____    ______ ____
ROOT
ATOM      1  O   UNL     1     -35.187  23.065   2.171  0.00  0.00    -0.348 OA
ATOM      2  C   UNL     1     -34.936  23.226   4.521  0.00  0.00    +0.169 C 
ATOM      3  C   UNL     1     -35.731  21.979   4.205  0.00  0.00    +0.169 C 
ATOM      4  C   UNL     1     -35.110  24.024   3.239  0.00  0.00    +0.176 C 
ATOM      5  C   UNL     1     -35.374  21.759   2.744  0.00  0.00    +0.174 C 
ENDROOT
BRANCH   2   6
ATOM      6  O   UNL     1     -35.464  23.927   5.631  0.00  0.00    -0.379 OA
ATOM      7  H   UNL     1     -35.884  24.747   5.325  0.00  0.00    +0.211 HD
ENDBRANCH   2   6
BRANCH   3   8
ATOM      8  O   UNL     1     -35.329  20.877   4.997  0.00  0.00    -0.379 OA
ATOM      9  H   UNL     1     -35.640  21.003   5.907  0.00  0.00    +0.211 HD
ENDBRANCH   3   8
BRANCH   4  10
ATOM     10  C   UNL     1     -33.970  24.991   2.977  0.00  0.00    +0.205 C 
BRANCH  10  11
ATOM     11  O   UNL     1     -33.383  25.354   4.216  0.00  0.00    -0.236 OA
BRANCH  11  12
ATOM     12  S   UNL     1     -33.870  26.734   4.947  0.00  0.00    +0.013 S 
ATOM     13  O   UNL     1     -34.218  26.443   6.324  0.00  0.00    -0.067 OA
ATOM     14  O   UNL     1     -34.798  27.405   4.057  0.00  0.00    -0.067 OA
BRANCH  12  15
ATOM     15  C   UNL     1     -32.411  27.726   5.015  0.00  0.00    +0.110 C 
ATOM     16  C   UNL     1     -31.960  28.185   6.242  0.00  0.00    +0.018 C 
ATOM     17  C   UNL     1     -31.741  28.028   3.841  0.00  0.00    +0.018 C 
ATOM     18  C   UNL     1     -30.122  29.282   5.123  0.00  0.00    -0.022 C 
ATOM     19  C   UNL     1     -30.808  28.969   6.295  0.00  0.00    -0.003 C 
ATOM     20  C   UNL     1     -30.588  28.812   3.895  0.00  0.00    -0.003 C 
ATOM     21  C   UNL     1     -28.889  30.120   5.179  0.00  0.00    +0.031 C 
ENDBRANCH  12  15
ENDBRANCH  11  12
ENDBRANCH  10  11
ENDBRANCH   4  10
BRANCH   5  22
ATOM     22  C   UNL     1     -36.446  21.011   1.972  0.00  0.00    +0.169 C 
BRANCH  22  23
ATOM     23  O   UNL     1     -36.713  19.784   2.633  0.00  0.00    -0.379 OA
ATOM     24  H   UNL     1     -35.903  19.250   2.661  0.00  0.00    +0.211 HD
ENDBRANCH  22  23
ENDBRANCH   5  22
TORSDOF 8
ENDMDL
MODEL 8
REMARK VINA RESULT:      -5.8      1.667      2.917
REMARK  Name = 192214
REMARK  8 active torsions:
REMARK  status: ('A' for Active; 'I' for Inactive)
REMARK    1  A    between atoms: C_2  and  O_6
REMARK    2  A    between atoms: C_3  and  O_8
REMARK    3  A    between atoms: C_4  and  C_10
REMARK    4  A    between atoms: C_5  and  C_22
REMARK    5  A    between atoms: C_10  and  O_11
REMARK    6  A    between atoms: O_11  and  S_12
REMARK    7  A    between atoms: S_12  and  C_15
REMARK    8  A    between atoms: C_22  and  O_23
REMARK                            x       y       z     vdW  Elec       q    Type
REMARK                         _______ _______ _______ _____ _____    ______ ____
ROOT
ATOM      1  O   UNL     1     -35.833  24.100   3.296  0.00  0.00    -0.348 OA
ATOM      2  C   UNL     1     -35.802  21.830   3.973  0.00  0.00    +0.169 C 
ATOM      3  C   UNL     1     -35.521  22.697   5.179  0.00  0.00    +0.169 C 
ATOM      4  C   UNL     1     -35.477  22.786   2.835  0.00  0.00    +0.176 C 
ATOM      5  C   UNL     1     -36.061  24.040   4.715  0.00  0.00    +0.174 C 
ENDROOT
BRANCH   2   6
ATOM      6  O   UNL     1     -34.967  20.689   3.930  0.00  0.00    -0.379 OA
ATOM      7  H   UNL     1     -34.038  20.966   3.979  0.00  0.00    +0.211 HD
ENDBRANCH   2   6
BRANCH   3   8
ATOM      8  O   UNL     1     -36.208  22.244   6.330  0.00  0.00    -0.379 OA
ATOM      9  H   UNL     1     -36.116  22.899   7.040  0.00  0.00    +0.211 HD
ENDBRANCH   3   8
BRANCH   4  10
ATOM     10  C   UNL     1     -36.230  22.471   1.555  0.00  0.00    +0.205 C 
BRANCH  10  11
ATOM     11  O   UNL     1     -35.334  21.873   0.633  0.00  0.00    -0.236 OA
BRANCH  11  12
ATOM     12  S   UNL     1     -35.487  20.278   0.302  0.00  0.00    +0.013 S 
ATOM     13  O   UNL     1     -35.845  20.117  -1.092  0.00  0.00    -0.067 OA
ATOM     14  O   UNL     1     -36.274  19.678   1.362  0.00  0.00    -0.067 OA
BRANCH  12  15
ATOM     15  C   UNL     1     -33.846  19.646   0.458  0.00  0.00    +0.110 C 
ATOM     16  C   UNL     1     -33.645  18.433   1.097  0.00  0.00    +0.018 C 
ATOM     17  C   UNL     1     -32.787  20.371  -0.061  0.00  0.00    +0.018 C 
ATOM     18  C   UNL     1     -31.272  18.651   0.704  0.00  0.00    -0.022 C 
ATOM     19  C   UNL     1     -32.349  17.933   1.221  0.00  0.00    -0.003 C 
ATOM     20  C   UNL     1     -31.490  19.871   0.063  0.00  0.00    -0.003 C 
ATOM     21  C   UNL     1     -29.886  18.117   0.835  0.00  0.00    +0.031 C 
ENDBRANCH  12  15
ENDBRANCH  11  12
ENDBRANCH  10  11
ENDBRANCH   4  10
BRANCH   5  22
ATOM     22  C   UNL     1     -35.388  25.221   5.391  0.00  0.00    +0.169 C 
BRANCH  22  23
ATOM     23  O   UNL     1     -36.343  26.256   5.560  0.00  0.00    -0.379 OA
ATOM     24  H   UNL     1     -36.919  26.045   6.312  0.00  0.00    +0.211 HD
ENDBRANCH  22  23
ENDBRANCH   5  22
TORSDOF 8
ENDMDL
MODEL 9
REMARK VINA RESULT:      -5.8      3.790      6.106
REMARK  Name = 192214
REMARK  8 active torsions:
REMARK  status: ('A' for Active; 'I' for Inactive)
REMARK    1  A    between atoms: C_2  and  O_6
REMARK    2  A    between atoms: C_3  and  O_8
REMARK    3  A    between atoms: C_4  and  C_10
REMARK    4  A    between atoms: C_5  and  C_22
REMARK    5  A    between atoms: C_10  and  O_11
REMARK    6  A    between atoms: O_11  and  S_12
REMARK    7  A    between atoms: S_12  and  C_15
REMARK    8  A    between atoms: C_22  and  O_23
REMARK                            x       y       z     vdW  Elec       q    Type
REMARK                         _______ _______ _______ _____ _____    ______ ____
ROOT
ATOM      1  O   UNL     1     -39.568  24.208   1.439  0.00  0.00    -0.348 OA
ATOM      2  C   UNL     1     -38.753  25.384   3.327  0.00  0.00    +0.169 C 
ATOM      3  C   UNL     1     -39.902  26.165   2.731  0.00  0.00    +0.169 C 
ATOM      4  C   UNL     1     -38.357  24.497   2.157  0.00  0.00    +0.176 C 
ATOM      5  C   UNL     1     -40.600  25.092   1.910  0.00  0.00    +0.174 C 
ENDROOT
BRANCH   2   6
ATOM      6  O   UNL     1     -37.681  26.223   3.711  0.00  0.00    -0.379 OA
ATOM      7  H   UNL     1     -36.954  25.682   4.057  0.00  0.00    +0.211 HD
ENDBRANCH   2   6
BRANCH   3   8
ATOM      8  O   UNL     1     -40.765  26.683   3.727  0.00  0.00    -0.379 OA
ATOM      9  H   UNL     1     -40.240  27.130   4.409  0.00  0.00    +0.211 HD
ENDBRANCH   3   8
BRANCH   4  10
ATOM     10  C   UNL     1     -37.696  23.199   2.586  0.00  0.00    +0.205 C 
BRANCH  10  11
ATOM     11  O   UNL     1     -37.361  23.290   3.962  0.00  0.00    -0.236 OA
BRANCH  11  12
ATOM     12  S   UNL     1     -35.868  22.826   4.444  0.00  0.00    +0.013 S 
ATOM     13  O   UNL     1     -35.282  21.982   3.422  0.00  0.00    -0.067 OA
ATOM     14  O   UNL     1     -35.963  22.390   5.824  0.00  0.00    -0.067 OA
BRANCH  12  15
ATOM     15  C   UNL     1     -34.928  24.320   4.438  0.00  0.00    +0.110 C 
ATOM     16  C   UNL     1     -34.362  24.760   3.253  0.00  0.00    +0.018 C 
ATOM     17  C   UNL     1     -34.771  25.027   5.618  0.00  0.00    +0.018 C 
ATOM     18  C   UNL     1     -33.451  26.664   4.428  0.00  0.00    -0.022 C 
ATOM     19  C   UNL     1     -33.618  25.940   3.248  0.00  0.00    -0.003 C 
ATOM     20  C   UNL     1     -34.027  26.208   5.614  0.00  0.00    -0.003 C 
ATOM     21  C   UNL     1     -32.657  27.926   4.423  0.00  0.00    +0.031 C 
ENDBRANCH  12  15
ENDBRANCH  11  12
ENDBRANCH  10  11
ENDBRANCH   4  10
BRANCH   5  22
ATOM     22  C   UNL     1     -41.374  25.651   0.730  0.00  0.00    +0.169 C 
BRANCH  22  23
ATOM     23  O   UNL     1     -41.702  27.005   0.998  0.00  0.00    -0.379 OA
ATOM     24  H   UNL     1     -41.804  27.485   0.161  0.00  0.00    +0.211 HD
ENDBRANCH  22  23
ENDBRANCH   5  22
TORSDOF 8
ENDMDL
