MODEL 1
REMARK VINA RESULT:      -6.1      0.000      0.000
REMARK  Name = 193088
REMARK  10 active torsions:
REMARK  status: ('A' for Active; 'I' for Inactive)
REMARK    1  A    between atoms: C_2  and  O_7
REMARK    2  A    between atoms: C_3  and  O_9
REMARK    3  A    between atoms: C_4  and  O_11
REMARK    4  A    between atoms: C_5  and  C_14
REMARK    5  A    between atoms: C_6  and  O_17
REMARK    6  A    between atoms: C_14  and  O_15
REMARK    7  A    between atoms: O_17  and  C_18
REMARK    8  A    between atoms: C_21  and  C_24
REMARK    9  A    between atoms: C_24  and  C_25
REMARK   10  A    between atoms: C_25  and  N_26
REMARK                            x       y       z     vdW  Elec       q    Type
REMARK                         _______ _______ _______ _____ _____    ______ ____
ROOT
ATOM      1  O   UNL     1     -35.281  20.921   3.395  0.00  0.00    -0.307 OA
ATOM      2  C   UNL     1     -36.937  22.840   2.042  0.00  0.00    +0.173 C 
ATOM      3  C   UNL     1     -36.865  22.756   3.568  0.00  0.00    +0.178 C 
ATOM      4  C   UNL     1     -36.506  21.526   1.391  0.00  0.00    +0.210 C 
ATOM      5  C   UNL     1     -35.529  22.178   4.015  0.00  0.00    +0.246 C 
ATOM      6  C   UNL     1     -35.186  21.024   1.977  0.00  0.00    +0.318 C 
ENDROOT
BRANCH   2   7
ATOM      7  O   UNL     1     -38.287  23.133   1.679  0.00  0.00    -0.379 OA
ATOM      8  H   UNL     1     -38.296  23.658   0.863  0.00  0.00    +0.211 HD
ENDBRANCH   2   7
BRANCH   3   9
ATOM      9  O   UNL     1     -37.004  24.067   4.114  0.00  0.00    -0.379 OA
ATOM     10  H   UNL     1     -37.014  24.717   3.395  0.00  0.00    +0.211 HD
ENDBRANCH   3   9
BRANCH   4  11
ATOM     11  O   UNL     1     -36.323  21.730  -0.010  0.00  0.00    -0.377 OA
ATOM     12  H   UNL     1     -35.390  21.925  -0.190  0.00  0.00    +0.211 HD
ENDBRANCH   4  11
BRANCH   5  14
ATOM     13  O   UNL     1     -35.877  22.616   6.362  0.00  0.00    -0.247 OA
ATOM     14  C   UNL     1     -35.550  21.846   5.471  0.00  0.00    +0.344 C 
BRANCH  14  15
ATOM     15  O   UNL     1     -35.151  20.567   5.678  0.00  0.00    -0.478 OA
ATOM     16  H   UNL     1     -34.458  20.384   6.281  0.00  0.00    +0.295 HD
ENDBRANCH  14  15
ENDBRANCH   5  14
BRANCH   6  17
ATOM     17  O   UNL     1     -34.917  19.739   1.417  0.00  0.00    -0.451 OA
BRANCH  17  18
ATOM     18  C   UNL     1     -33.618  19.480   1.075  0.00  0.00    +0.141 C 
ATOM     19  C   UNL     1     -32.906  20.406   0.319  0.00  0.00    +0.037 C 
ATOM     20  C   UNL     1     -33.019  18.293   1.485  0.00  0.00    +0.037 C 
ATOM     21  C   UNL     1     -30.975  18.955   0.379  0.00  0.00    -0.024 C 
ATOM     22  C   UNL     1     -31.581  20.143  -0.029  0.00  0.00    -0.001 C 
ATOM     23  C   UNL     1     -31.694  18.030   1.136  0.00  0.00    -0.001 C 
BRANCH  21  24
ATOM     24  C   UNL     1     -29.559  18.673   0.006  0.00  0.00    +0.002 C 
BRANCH  24  25
ATOM     25  C   UNL     1     -29.030  17.393   0.669  0.00  0.00    -0.081 C 
BRANCH  25  26
ATOM     26  N   UNL     1     -28.067  17.693   1.722  0.00  0.00    +0.381 N 
ATOM     27  H   UNL     1     -27.206  17.175   1.552  0.00  0.00    -0.089 HD
ATOM     28  H   UNL     1     -28.454  17.423   2.625  0.00  0.00    -0.089 HD
ATOM     29  H   UNL     1     -27.867  18.694   1.724  0.00  0.00    -0.089 HD
ENDBRANCH  25  26
ENDBRANCH  24  25
ENDBRANCH  21  24
ENDBRANCH  17  18
ENDBRANCH   6  17
TORSDOF 10
ENDMDL
MODEL 2
REMARK VINA RESULT:      -5.9      4.898      7.083
REMARK  Name = 193088
REMARK  10 active torsions:
REMARK  status: ('A' for Active; 'I' for Inactive)
REMARK    1  A    between atoms: C_2  and  O_7
REMARK    2  A    between atoms: C_3  and  O_9
REMARK    3  A    between atoms: C_4  and  O_11
REMARK    4  A    between atoms: C_5  and  C_14
REMARK    5  A    between atoms: C_6  and  O_17
REMARK    6  A    between atoms: C_14  and  O_15
REMARK    7  A    between atoms: O_17  and  C_18
REMARK    8  A    between atoms: C_21  and  C_24
REMARK    9  A    between atoms: C_24  and  C_25
REMARK   10  A    between atoms: C_25  and  N_26
REMARK                            x       y       z     vdW  Elec       q    Type
REMARK                         _______ _______ _______ _____ _____    ______ ____
ROOT
ATOM      1  O   UNL     1     -36.800  23.272   2.393  0.00  0.00    -0.307 OA
ATOM      2  C   UNL     1     -39.673  23.334   2.355  0.00  0.00    +0.173 C 
ATOM      3  C   UNL     1     -38.877  22.104   1.915  0.00  0.00    +0.178 C 
ATOM      4  C   UNL     1     -38.824  24.603   2.275  0.00  0.00    +0.210 C 
ATOM      5  C   UNL     1     -37.521  22.063   2.606  0.00  0.00    +0.246 C 
ATOM      6  C   UNL     1     -37.466  24.404   2.946  0.00  0.00    +0.318 C 
ENDROOT
BRANCH   2   7
ATOM      7  O   UNL     1     -40.804  23.460   1.491  0.00  0.00    -0.379 OA
ATOM      8  H   UNL     1     -40.766  24.314   1.031  0.00  0.00    +0.211 HD
ENDBRANCH   2   7
BRANCH   3   9
ATOM      9  O   UNL     1     -39.607  20.928   2.266  0.00  0.00    -0.379 OA
ATOM     10  H   UNL     1     -40.237  20.716   1.561  0.00  0.00    +0.211 HD
ENDBRANCH   3   9
BRANCH   4  11
ATOM     11  O   UNL     1     -39.502  25.667   2.944  0.00  0.00    -0.377 OA
ATOM     12  H   UNL     1     -40.406  25.740   2.602  0.00  0.00    +0.211 HD
ENDBRANCH   4  11
BRANCH   5  14
ATOM     13  O   UNL     1     -35.883  21.212   1.050  0.00  0.00    -0.247 OA
ATOM     14  C   UNL     1     -36.639  21.024   1.992  0.00  0.00    +0.344 C 
BRANCH  14  15
ATOM     15  O   UNL     1     -36.792  19.833   2.621  0.00  0.00    -0.478 OA
ATOM     16  H   UNL     1     -37.650  19.484   2.759  0.00  0.00    +0.295 HD
ENDBRANCH  14  15
ENDBRANCH   5  14
BRANCH   6  17
ATOM     17  O   UNL     1     -36.687  25.579   2.719  0.00  0.00    -0.451 OA
BRANCH  17  18
ATOM     18  C   UNL     1     -35.762  25.895   3.678  0.00  0.00    +0.141 C 
ATOM     19  C   UNL     1     -34.613  26.595   3.323  0.00  0.00    +0.037 C 
ATOM     20  C   UNL     1     -35.977  25.513   4.998  0.00  0.00    +0.037 C 
ATOM     21  C   UNL     1     -33.882  26.539   5.624  0.00  0.00    -0.024 C 
ATOM     22  C   UNL     1     -33.671  26.918   4.299  0.00  0.00    -0.001 C 
ATOM     23  C   UNL     1     -35.035  25.837   5.974  0.00  0.00    -0.001 C 
BRANCH  21  24
ATOM     24  C   UNL     1     -32.873  26.884   6.669  0.00  0.00    +0.002 C 
BRANCH  24  25
ATOM     25  C   UNL     1     -32.015  28.092   6.266  0.00  0.00    -0.081 C 
BRANCH  25  26
ATOM     26  N   UNL     1     -31.741  28.958   7.407  0.00  0.00    +0.381 N 
ATOM     27  H   UNL     1     -32.621  29.222   7.851  0.00  0.00    -0.089 HD
ATOM     28  H   UNL     1     -31.255  29.796   7.091  0.00  0.00    -0.089 HD
ATOM     29  H   UNL     1     -31.157  28.460   8.080  0.00  0.00    -0.089 HD
ENDBRANCH  25  26
ENDBRANCH  24  25
ENDBRANCH  21  24
ENDBRANCH  17  18
ENDBRANCH   6  17
TORSDOF 10
ENDMDL
MODEL 3
REMARK VINA RESULT:      -5.9      5.332      6.857
REMARK  Name = 193088
REMARK  10 active torsions:
REMARK  status: ('A' for Active; 'I' for Inactive)
REMARK    1  A    between atoms: C_2  and  O_7
REMARK    2  A    between atoms: C_3  and  O_9
REMARK    3  A    between atoms: C_4  and  O_11
REMARK    4  A    between atoms: C_5  and  C_14
REMARK    5  A    between atoms: C_6  and  O_17
REMARK    6  A    between atoms: C_14  and  O_15
REMARK    7  A    between atoms: O_17  and  C_18
REMARK    8  A    between atoms: C_21  and  C_24
REMARK    9  A    between atoms: C_24  and  C_25
REMARK   10  A    between atoms: C_25  and  N_26
REMARK                            x       y       z     vdW  Elec       q    Type
REMARK                         _______ _______ _______ _____ _____    ______ ____
ROOT
ATOM      1  O   UNL     1     -38.183  24.153   3.287  0.00  0.00    -0.307 OA
ATOM      2  C   UNL     1     -39.345  22.030   1.737  0.00  0.00    +0.173 C 
ATOM      3  C   UNL     1     -40.124  23.295   2.103  0.00  0.00    +0.178 C 
ATOM      4  C   UNL     1     -38.175  21.800   2.695  0.00  0.00    +0.210 C 
ATOM      5  C   UNL     1     -39.178  24.468   2.321  0.00  0.00    +0.246 C 
ATOM      6  C   UNL     1     -37.349  23.074   2.875  0.00  0.00    +0.318 C 
ENDROOT
BRANCH   2   7
ATOM      7  O   UNL     1     -40.244  20.922   1.807  0.00  0.00    -0.379 OA
ATOM      8  H   UNL     1     -39.748  20.117   2.024  0.00  0.00    +0.211 HD
ENDBRANCH   2   7
BRANCH   3   9
ATOM      9  O   UNL     1     -41.017  23.616   1.038  0.00  0.00    -0.379 OA
ATOM     10  H   UNL     1     -40.507  23.847   0.247  0.00  0.00    +0.211 HD
ENDBRANCH   3   9
BRANCH   4  11
ATOM     11  O   UNL     1     -37.323  20.785   2.165  0.00  0.00    -0.377 OA
ATOM     12  H   UNL     1     -37.288  20.038   2.782  0.00  0.00    +0.211 HD
ENDBRANCH   4  11
BRANCH   5  14
ATOM     13  O   UNL     1     -41.104  25.810   2.883  0.00  0.00    -0.247 OA
ATOM     14  C   UNL     1     -39.896  25.628   2.931  0.00  0.00    +0.344 C 
BRANCH  14  15
ATOM     15  O   UNL     1     -39.023  26.462   3.546  0.00  0.00    -0.478 OA
ATOM     16  H   UNL     1     -38.106  26.397   3.365  0.00  0.00    +0.295 HD
ENDBRANCH  14  15
ENDBRANCH   5  14
BRANCH   6  17
ATOM     17  O   UNL     1     -36.361  22.819   3.874  0.00  0.00    -0.451 OA
BRANCH  17  18
ATOM     18  C   UNL     1     -35.542  23.864   4.206  0.00  0.00    +0.141 C 
ATOM     19  C   UNL     1     -35.550  24.361   5.506  0.00  0.00    +0.037 C 
ATOM     20  C   UNL     1     -34.709  24.422   3.242  0.00  0.00    +0.037 C 
ATOM     21  C   UNL     1     -33.877  25.988   4.883  0.00  0.00    -0.024 C 
ATOM     22  C   UNL     1     -34.715  25.425   5.845  0.00  0.00    -0.001 C 
ATOM     23  C   UNL     1     -33.874  25.487   3.582  0.00  0.00    -0.001 C 
BRANCH  21  24
ATOM     24  C   UNL     1     -32.985  27.127   5.246  0.00  0.00    +0.002 C 
BRANCH  24  25
ATOM     25  C   UNL     1     -32.663  27.154   6.747  0.00  0.00    -0.081 C 
BRANCH  25  26
ATOM     26  N   UNL     1     -32.006  28.398   7.131  0.00  0.00    +0.381 N 
ATOM     27  H   UNL     1     -32.711  29.097   7.363  0.00  0.00    -0.089 HD
ATOM     28  H   UNL     1     -31.435  28.735   6.357  0.00  0.00    -0.089 HD
ATOM     29  H   UNL     1     -31.412  28.232   7.945  0.00  0.00    -0.089 HD
ENDBRANCH  25  26
ENDBRANCH  24  25
ENDBRANCH  21  24
ENDBRANCH  17  18
ENDBRANCH   6  17
TORSDOF 10
ENDMDL
MODEL 4
REMARK VINA RESULT:      -5.7      1.816      2.818
REMARK  Name = 193088
REMARK  10 active torsions:
REMARK  status: ('A' for Active; 'I' for Inactive)
REMARK    1  A    between atoms: C_2  and  O_7
REMARK    2  A    between atoms: C_3  and  O_9
REMARK    3  A    between atoms: C_4  and  O_11
REMARK    4  A    between atoms: C_5  and  C_14
REMARK    5  A    between atoms: C_6  and  O_17
REMARK    6  A    between atoms: C_14  and  O_15
REMARK    7  A    between atoms: O_17  and  C_18
REMARK    8  A    between atoms: C_21  and  C_24
REMARK    9  A    between atoms: C_24  and  C_25
REMARK   10  A    between atoms: C_25  and  N_26
REMARK                            x       y       z     vdW  Elec       q    Type
REMARK                         _______ _______ _______ _____ _____    ______ ____
ROOT
ATOM      1  O   UNL     1     -35.649  23.169   3.177  0.00  0.00    -0.307 OA
ATOM      2  C   UNL     1     -38.070  24.714   3.267  0.00  0.00    +0.173 C 
ATOM      3  C   UNL     1     -36.940  24.908   4.280  0.00  0.00    +0.178 C 
ATOM      4  C   UNL     1     -38.003  23.333   2.615  0.00  0.00    +0.210 C 
ATOM      5  C   UNL     1     -35.601  24.500   3.680  0.00  0.00    +0.246 C 
ATOM      6  C   UNL     1     -36.591  23.024   2.118  0.00  0.00    +0.318 C 
ENDROOT
BRANCH   2   7
ATOM      7  O   UNL     1     -39.312  24.856   3.958  0.00  0.00    -0.379 OA
ATOM      8  H   UNL     1     -40.021  24.449   3.436  0.00  0.00    +0.211 HD
ENDBRANCH   2   7
BRANCH   3   9
ATOM      9  O   UNL     1     -36.877  26.285   4.650  0.00  0.00    -0.379 OA
ATOM     10  H   UNL     1     -37.540  26.784   4.150  0.00  0.00    +0.211 HD
ENDBRANCH   3   9
BRANCH   4  11
ATOM     11  O   UNL     1     -38.889  23.294   1.496  0.00  0.00    -0.377 OA
ATOM     12  H   UNL     1     -38.456  22.840   0.757  0.00  0.00    +0.211 HD
ENDBRANCH   4  11
BRANCH   5  14
ATOM     13  O   UNL     1     -33.393  24.826   4.597  0.00  0.00    -0.247 OA
ATOM     14  C   UNL     1     -34.542  24.433   4.732  0.00  0.00    +0.344 C 
BRANCH  14  15
ATOM     15  O   UNL     1     -35.027  23.870   5.865  0.00  0.00    -0.478 OA
ATOM     16  H   UNL     1     -35.946  23.896   6.045  0.00  0.00    +0.295 HD
ENDBRANCH  14  15
ENDBRANCH   5  14
BRANCH   6  17
ATOM     17  O   UNL     1     -36.577  21.677   1.643  0.00  0.00    -0.451 OA
BRANCH  17  18
ATOM     18  C   UNL     1     -35.357  21.162   1.297  0.00  0.00    +0.141 C 
ATOM     19  C   UNL     1     -34.943  19.948   1.837  0.00  0.00    +0.037 C 
ATOM     20  C   UNL     1     -34.540  21.856   0.411  0.00  0.00    +0.037 C 
ATOM     21  C   UNL     1     -32.877  20.112   0.596  0.00  0.00    -0.024 C 
ATOM     22  C   UNL     1     -33.701  19.422   1.485  0.00  0.00    -0.001 C 
ATOM     23  C   UNL     1     -33.297  21.329   0.058  0.00  0.00    -0.001 C 
BRANCH  21  24
ATOM     24  C   UNL     1     -31.548  19.551   0.220  0.00  0.00    +0.002 C 
BRANCH  24  25
ATOM     25  C   UNL     1     -31.527  18.017   0.293  0.00  0.00    -0.081 C 
BRANCH  25  26
ATOM     26  N   UNL     1     -30.620  17.543   1.333  0.00  0.00    +0.381 N 
ATOM     27  H   UNL     1     -31.003  16.699   1.758  0.00  0.00    -0.089 HD
ATOM     28  H   UNL     1     -30.513  18.263   2.045  0.00  0.00    -0.089 HD
ATOM     29  H   UNL     1     -29.710  17.334   0.921  0.00  0.00    -0.089 HD
ENDBRANCH  25  26
ENDBRANCH  24  25
ENDBRANCH  21  24
ENDBRANCH  17  18
ENDBRANCH   6  17
TORSDOF 10
ENDMDL
MODEL 5
REMARK VINA RESULT:      -5.7      5.651      7.528
REMARK  Name = 193088
REMARK  10 active torsions:
REMARK  status: ('A' for Active; 'I' for Inactive)
REMARK    1  A    between atoms: C_2  and  O_7
REMARK    2  A    between atoms: C_3  and  O_9
REMARK    3  A    between atoms: C_4  and  O_11
REMARK    4  A    between atoms: C_5  and  C_14
REMARK    5  A    between atoms: C_6  and  O_17
REMARK    6  A    between atoms: C_14  and  O_15
REMARK    7  A    between atoms: O_17  and  C_18
REMARK    8  A    between atoms: C_21  and  C_24
REMARK    9  A    between atoms: C_24  and  C_25
REMARK   10  A    between atoms: C_25  and  N_26
REMARK                            x       y       z     vdW  Elec       q    Type
REMARK                         _______ _______ _______ _____ _____    ______ ____
ROOT
ATOM      1  O   UNL     1     -37.078  23.214   4.188  0.00  0.00    -0.307 OA
ATOM      2  C   UNL     1     -35.793  25.780   4.044  0.00  0.00    +0.173 C 
ATOM      3  C   UNL     1     -35.199  24.613   4.834  0.00  0.00    +0.178 C 
ATOM      4  C   UNL     1     -37.298  25.604   3.838  0.00  0.00    +0.210 C 
ATOM      5  C   UNL     1     -35.658  23.280   4.257  0.00  0.00    +0.246 C 
ATOM      6  C   UNL     1     -37.626  24.203   3.321  0.00  0.00    +0.318 C 
ENDROOT
BRANCH   2   7
ATOM      7  O   UNL     1     -35.549  26.980   4.779  0.00  0.00    -0.379 OA
ATOM      8  H   UNL     1     -34.642  27.283   4.611  0.00  0.00    +0.211 HD
ENDBRANCH   2   7
BRANCH   3   9
ATOM      9  O   UNL     1     -33.775  24.678   4.762  0.00  0.00    -0.379 OA
ATOM     10  H   UNL     1     -33.455  25.398   5.326  0.00  0.00    +0.211 HD
ENDBRANCH   3   9
BRANCH   4  11
ATOM     11  O   UNL     1     -37.758  26.555   2.877  0.00  0.00    -0.377 OA
ATOM     12  H   UNL     1     -38.063  26.089   2.083  0.00  0.00    +0.211 HD
ENDBRANCH   4  11
BRANCH   5  14
ATOM     13  O   UNL     1     -34.920  22.276   6.324  0.00  0.00    -0.247 OA
ATOM     14  C   UNL     1     -35.305  22.152   5.170  0.00  0.00    +0.344 C 
BRANCH  14  15
ATOM     15  O   UNL     1     -35.464  20.961   4.544  0.00  0.00    -0.478 OA
ATOM     16  H   UNL     1     -35.036  20.800   3.726  0.00  0.00    +0.295 HD
ENDBRANCH  14  15
ENDBRANCH   5  14
BRANCH   6  17
ATOM     17  O   UNL     1     -39.047  24.073   3.278  0.00  0.00    -0.451 OA
BRANCH  17  18
ATOM     18  C   UNL     1     -39.569  23.425   2.192  0.00  0.00    +0.141 C 
ATOM     19  C   UNL     1     -40.360  24.125   1.285  0.00  0.00    +0.037 C 
ATOM     20  C   UNL     1     -39.307  22.072   2.002  0.00  0.00    +0.037 C 
ATOM     21  C   UNL     1     -40.631  22.109  -0.018  0.00  0.00    -0.024 C 
ATOM     22  C   UNL     1     -40.892  23.465   0.178  0.00  0.00    -0.001 C 
ATOM     23  C   UNL     1     -39.839  21.413   0.894  0.00  0.00    -0.001 C 
BRANCH  21  24
ATOM     24  C   UNL     1     -41.201  21.403  -1.202  0.00  0.00    +0.002 C 
BRANCH  24  25
ATOM     25  C   UNL     1     -42.733  21.500  -1.251  0.00  0.00    -0.081 C 
BRANCH  25  26
ATOM     26  N   UNL     1     -43.358  20.548  -0.339  0.00  0.00    +0.381 N 
ATOM     27  H   UNL     1     -44.328  20.398  -0.617  0.00  0.00    -0.089 HD
ATOM     28  H   UNL     1     -43.330  20.917   0.610  0.00  0.00    -0.089 HD
ATOM     29  H   UNL     1     -42.854  19.661  -0.374  0.00  0.00    -0.089 HD
ENDBRANCH  25  26
ENDBRANCH  24  25
ENDBRANCH  21  24
ENDBRANCH  17  18
ENDBRANCH   6  17
TORSDOF 10
ENDMDL
MODEL 6
REMARK VINA RESULT:      -5.5      4.260      6.373
REMARK  Name = 193088
REMARK  10 active torsions:
REMARK  status: ('A' for Active; 'I' for Inactive)
REMARK    1  A    between atoms: C_2  and  O_7
REMARK    2  A    between atoms: C_3  and  O_9
REMARK    3  A    between atoms: C_4  and  O_11
REMARK    4  A    between atoms: C_5  and  C_14
REMARK    5  A    between atoms: C_6  and  O_17
REMARK    6  A    between atoms: C_14  and  O_15
REMARK    7  A    between atoms: O_17  and  C_18
REMARK    8  A    between atoms: C_21  and  C_24
REMARK    9  A    between atoms: C_24  and  C_25
REMARK   10  A    between atoms: C_25  and  N_26
REMARK                            x       y       z     vdW  Elec       q    Type
REMARK                         _______ _______ _______ _____ _____    ______ ____
ROOT
ATOM      1  O   UNL     1     -37.865  20.913   1.851  0.00  0.00    -0.307 OA
ATOM      2  C   UNL     1     -36.950  19.437  -0.439  0.00  0.00    +0.173 C 
ATOM      3  C   UNL     1     -38.412  19.852  -0.267  0.00  0.00    +0.178 C 
ATOM      4  C   UNL     1     -36.219  19.404   0.904  0.00  0.00    +0.210 C 
ATOM      5  C   UNL     1     -38.521  21.099   0.601  0.00  0.00    +0.246 C 
ATOM      6  C   UNL     1     -36.467  20.685   1.700  0.00  0.00    +0.318 C 
ENDROOT
BRANCH   2   7
ATOM      7  O   UNL     1     -36.926  18.136  -1.027  0.00  0.00    -0.379 OA
ATOM      8  H   UNL     1     -37.250  17.484  -0.385  0.00  0.00    +0.211 HD
ENDBRANCH   2   7
BRANCH   3   9
ATOM      9  O   UNL     1     -38.970  20.135  -1.550  0.00  0.00    -0.379 OA
ATOM     10  H   UNL     1     -38.298  19.989  -2.233  0.00  0.00    +0.211 HD
ENDBRANCH   3   9
BRANCH   4  11
ATOM     11  O   UNL     1     -34.815  19.285   0.674  0.00  0.00    -0.377 OA
ATOM     12  H   UNL     1     -34.501  18.436   1.022  0.00  0.00    +0.211 HD
ENDBRANCH   4  11
BRANCH   5  14
ATOM     13  O   UNL     1     -40.788  21.857   0.267  0.00  0.00    -0.247 OA
ATOM     14  C   UNL     1     -39.940  21.356   0.992  0.00  0.00    +0.344 C 
BRANCH  14  15
ATOM     15  O   UNL     1     -40.166  20.961   2.268  0.00  0.00    -0.478 OA
ATOM     16  H   UNL     1     -39.577  21.221   2.950  0.00  0.00    +0.295 HD
ENDBRANCH  14  15
ENDBRANCH   5  14
BRANCH   6  17
ATOM     17  O   UNL     1     -35.864  20.527   2.985  0.00  0.00    -0.451 OA
BRANCH  17  18
ATOM     18  C   UNL     1     -35.507  21.675   3.639  0.00  0.00    +0.141 C 
ATOM     19  C   UNL     1     -35.240  22.830   2.909  0.00  0.00    +0.037 C 
ATOM     20  C   UNL     1     -35.412  21.679   5.026  0.00  0.00    +0.037 C 
ATOM     21  C   UNL     1     -34.781  24.010   4.966  0.00  0.00    -0.024 C 
ATOM     22  C   UNL     1     -34.877  24.000   3.575  0.00  0.00    -0.001 C 
ATOM     23  C   UNL     1     -35.048  22.850   5.692  0.00  0.00    -0.001 C 
BRANCH  21  24
ATOM     24  C   UNL     1     -34.391  25.262   5.679  0.00  0.00    +0.002 C 
BRANCH  24  25
ATOM     25  C   UNL     1     -34.381  26.480   4.743  0.00  0.00    -0.081 C 
BRANCH  25  26
ATOM     26  N   UNL     1     -33.269  27.375   5.042  0.00  0.00    +0.381 N 
ATOM     27  H   UNL     1     -32.402  26.839   5.077  0.00  0.00    -0.089 HD
ATOM     28  H   UNL     1     -33.427  27.825   5.942  0.00  0.00    -0.089 HD
ATOM     29  H   UNL     1     -33.200  28.086   4.313  0.00  0.00    -0.089 HD
ENDBRANCH  25  26
ENDBRANCH  24  25
ENDBRANCH  21  24
ENDBRANCH  17  18
ENDBRANCH   6  17
TORSDOF 10
ENDMDL
MODEL 7
REMARK VINA RESULT:      -5.5      7.309      9.153
REMARK  Name = 193088
REMARK  10 active torsions:
REMARK  status: ('A' for Active; 'I' for Inactive)
REMARK    1  A    between atoms: C_2  and  O_7
REMARK    2  A    between atoms: C_3  and  O_9
REMARK    3  A    between atoms: C_4  and  O_11
REMARK    4  A    between atoms: C_5  and  C_14
REMARK    5  A    between atoms: C_6  and  O_17
REMARK    6  A    between atoms: C_14  and  O_15
REMARK    7  A    between atoms: O_17  and  C_18
REMARK    8  A    between atoms: C_21  and  C_24
REMARK    9  A    between atoms: C_24  and  C_25
REMARK   10  A    between atoms: C_25  and  N_26
REMARK                            x       y       z     vdW  Elec       q    Type
REMARK                         _______ _______ _______ _____ _____    ______ ____
ROOT
ATOM      1  O   UNL     1     -30.749  27.925   6.124  0.00  0.00    -0.307 OA
ATOM      2  C   UNL     1     -30.805  30.470   4.790  0.00  0.00    +0.173 C 
ATOM      3  C   UNL     1     -29.594  29.996   5.595  0.00  0.00    +0.178 C 
ATOM      4  C   UNL     1     -32.079  29.742   5.222  0.00  0.00    +0.210 C 
ATOM      5  C   UNL     1     -29.532  28.475   5.634  0.00  0.00    +0.246 C 
ATOM      6  C   UNL     1     -31.859  28.231   5.284  0.00  0.00    +0.318 C 
ENDROOT
BRANCH   2   7
ATOM      7  O   UNL     1     -30.960  31.873   5.008  0.00  0.00    -0.379 OA
ATOM      8  H   UNL     1     -30.187  32.213   5.486  0.00  0.00    +0.211 HD
ENDBRANCH   2   7
BRANCH   3   9
ATOM      9  O   UNL     1     -28.404  30.489   4.978  0.00  0.00    -0.379 OA
ATOM     10  H   UNL     1     -27.657  29.921   5.219  0.00  0.00    +0.211 HD
ENDBRANCH   3   9
BRANCH   4  11
ATOM     11  O   UNL     1     -33.117  30.005   4.278  0.00  0.00    -0.377 OA
ATOM     12  H   UNL     1     -32.980  29.459   3.487  0.00  0.00    +0.211 HD
ENDBRANCH   4  11
BRANCH   5  14
ATOM     13  O   UNL     1     -27.482  28.594   6.903  0.00  0.00    -0.247 OA
ATOM     14  C   UNL     1     -28.518  28.006   6.626  0.00  0.00    +0.344 C 
BRANCH  14  15
ATOM     15  O   UNL     1     -28.899  26.831   7.182  0.00  0.00    -0.478 OA
ATOM     16  H   UNL     1     -28.888  26.046   6.671  0.00  0.00    +0.295 HD
ENDBRANCH  14  15
ENDBRANCH   5  14
BRANCH   6  17
ATOM     17  O   UNL     1     -33.044  27.636   5.816  0.00  0.00    -0.451 OA
BRANCH  17  18
ATOM     18  C   UNL     1     -33.587  26.606   5.097  0.00  0.00    +0.141 C 
ATOM     19  C   UNL     1     -33.283  26.472   3.745  0.00  0.00    +0.037 C 
ATOM     20  C   UNL     1     -34.438  25.701   5.722  0.00  0.00    +0.037 C 
ATOM     21  C   UNL     1     -34.689  24.511   3.634  0.00  0.00    -0.024 C 
ATOM     22  C   UNL     1     -33.835  25.422   3.012  0.00  0.00    -0.001 C 
ATOM     23  C   UNL     1     -34.991  24.650   4.989  0.00  0.00    -0.001 C 
BRANCH  21  24
ATOM     24  C   UNL     1     -35.281  23.388   2.850  0.00  0.00    +0.002 C 
BRANCH  24  25
ATOM     25  C   UNL     1     -36.250  22.544   3.691  0.00  0.00    -0.081 C 
BRANCH  25  26
ATOM     26  N   UNL     1     -35.679  21.243   4.019  0.00  0.00    +0.381 N 
ATOM     27  H   UNL     1     -35.214  21.295   4.926  0.00  0.00    -0.089 HD
ATOM     28  H   UNL     1     -35.002  20.978   3.306  0.00  0.00    -0.089 HD
ATOM     29  H   UNL     1     -36.423  20.545   4.059  0.00  0.00    -0.089 HD
ENDBRANCH  25  26
ENDBRANCH  24  25
ENDBRANCH  21  24
ENDBRANCH  17  18
ENDBRANCH   6  17
TORSDOF 10
ENDMDL
MODEL 8
REMARK VINA RESULT:      -5.4      2.358      3.457
REMARK  Name = 193088
REMARK  10 active torsions:
REMARK  status: ('A' for Active; 'I' for Inactive)
REMARK    1  A    between atoms: C_2  and  O_7
REMARK    2  A    between atoms: C_3  and  O_9
REMARK    3  A    between atoms: C_4  and  O_11
REMARK    4  A    between atoms: C_5  and  C_14
REMARK    5  A    between atoms: C_6  and  O_17
REMARK    6  A    between atoms: C_14  and  O_15
REMARK    7  A    between atoms: O_17  and  C_18
REMARK    8  A    between atoms: C_21  and  C_24
REMARK    9  A    between atoms: C_24  and  C_25
REMARK   10  A    between atoms: C_25  and  N_26
REMARK                            x       y       z     vdW  Elec       q    Type
REMARK                         _______ _______ _______ _____ _____    ______ ____
ROOT
ATOM      1  O   UNL     1     -37.322  22.724   1.528  0.00  0.00    -0.307 OA
ATOM      2  C   UNL     1     -36.993  25.188   2.971  0.00  0.00    +0.173 C 
ATOM      3  C   UNL     1     -38.361  24.529   2.782  0.00  0.00    +0.178 C 
ATOM      4  C   UNL     1     -35.998  24.722   1.907  0.00  0.00    +0.210 C 
ATOM      5  C   UNL     1     -38.215  23.025   2.595  0.00  0.00    +0.246 C 
ATOM      6  C   UNL     1     -36.002  23.199   1.776  0.00  0.00    +0.318 C 
ENDROOT
BRANCH   2   7
ATOM      7  O   UNL     1     -37.166  26.602   2.875  0.00  0.00    -0.379 OA
ATOM      8  H   UNL     1     -37.625  26.817   2.048  0.00  0.00    +0.211 HD
ENDBRANCH   2   7
BRANCH   3   9
ATOM      9  O   UNL     1     -39.159  24.773   3.939  0.00  0.00    -0.379 OA
ATOM     10  H   UNL     1     -39.495  25.682   3.914  0.00  0.00    +0.211 HD
ENDBRANCH   3   9
BRANCH   4  11
ATOM     11  O   UNL     1     -34.683  25.136   2.276  0.00  0.00    -0.377 OA
ATOM     12  H   UNL     1     -34.032  24.673   1.725  0.00  0.00    +0.211 HD
ENDBRANCH   4  11
BRANCH   5  14
ATOM     13  O   UNL     1     -40.474  23.038   1.746  0.00  0.00    -0.247 OA
ATOM     14  C   UNL     1     -39.503  22.414   2.149  0.00  0.00    +0.344 C 
BRANCH  14  15
ATOM     15  O   UNL     1     -39.455  21.064   2.254  0.00  0.00    -0.478 OA
ATOM     16  H   UNL     1     -38.815  20.579   1.771  0.00  0.00    +0.295 HD
ENDBRANCH  14  15
ENDBRANCH   5  14
BRANCH   6  17
ATOM     17  O   UNL     1     -35.152  22.850   0.683  0.00  0.00    -0.451 OA
BRANCH  17  18
ATOM     18  C   UNL     1     -34.440  21.688   0.808  0.00  0.00    +0.141 C 
ATOM     19  C   UNL     1     -34.881  20.698   1.681  0.00  0.00    +0.037 C 
ATOM     20  C   UNL     1     -33.280  21.505   0.062  0.00  0.00    +0.037 C 
ATOM     21  C   UNL     1     -32.994  19.324   1.062  0.00  0.00    -0.024 C 
ATOM     22  C   UNL     1     -34.157  19.514   1.808  0.00  0.00    -0.001 C 
ATOM     23  C   UNL     1     -32.555  20.319   0.189  0.00  0.00    -0.001 C 
BRANCH  21  24
ATOM     24  C   UNL     1     -32.218  18.057   1.199  0.00  0.00    +0.002 C 
BRANCH  24  25
ATOM     25  C   UNL     1     -30.791  18.192   0.647  0.00  0.00    -0.081 C 
BRANCH  25  26
ATOM     26  N   UNL     1     -30.038  16.952   0.802  0.00  0.00    +0.381 N 
ATOM     27  H   UNL     1     -29.631  16.917   1.737  0.00  0.00    -0.089 HD
ATOM     28  H   UNL     1     -29.295  16.915   0.106  0.00  0.00    -0.089 HD
ATOM     29  H   UNL     1     -30.664  16.156   0.674  0.00  0.00    -0.089 HD
ENDBRANCH  25  26
ENDBRANCH  24  25
ENDBRANCH  21  24
ENDBRANCH  17  18
ENDBRANCH   6  17
TORSDOF 10
ENDMDL
MODEL 9
REMARK VINA RESULT:      -5.4      2.183      3.004
REMARK  Name = 193088
REMARK  10 active torsions:
REMARK  status: ('A' for Active; 'I' for Inactive)
REMARK    1  A    between atoms: C_2  and  O_7
REMARK    2  A    between atoms: C_3  and  O_9
REMARK    3  A    between atoms: C_4  and  O_11
REMARK    4  A    between atoms: C_5  and  C_14
REMARK    5  A    between atoms: C_6  and  O_17
REMARK    6  A    between atoms: C_14  and  O_15
REMARK    7  A    between atoms: O_17  and  C_18
REMARK    8  A    between atoms: C_21  and  C_24
REMARK    9  A    between atoms: C_24  and  C_25
REMARK   10  A    between atoms: C_25  and  N_26
REMARK                            x       y       z     vdW  Elec       q    Type
REMARK                         _______ _______ _______ _____ _____    ______ ____
ROOT
ATOM      1  O   UNL     1     -36.214  23.408   3.716  0.00  0.00    -0.307 OA
ATOM      2  C   UNL     1     -38.662  24.123   2.392  0.00  0.00    +0.173 C 
ATOM      3  C   UNL     1     -38.144  24.882   3.614  0.00  0.00    +0.178 C 
ATOM      4  C   UNL     1     -38.073  22.714   2.321  0.00  0.00    +0.210 C 
ATOM      5  C   UNL     1     -36.629  24.770   3.718  0.00  0.00    +0.246 C 
ATOM      6  C   UNL     1     -36.556  22.739   2.506  0.00  0.00    +0.318 C 
ENDROOT
BRANCH   2   7
ATOM      7  O   UNL     1     -40.085  24.041   2.493  0.00  0.00    -0.379 OA
ATOM      8  H   UNL     1     -40.475  24.071   1.605  0.00  0.00    +0.211 HD
ENDBRANCH   2   7
BRANCH   3   9
ATOM      9  O   UNL     1     -38.495  26.260   3.490  0.00  0.00    -0.379 OA
ATOM     10  H   UNL     1     -37.756  26.747   3.094  0.00  0.00    +0.211 HD
ENDBRANCH   3   9
BRANCH   4  11
ATOM     11  O   UNL     1     -38.358  22.146   1.042  0.00  0.00    -0.377 OA
ATOM     12  H   UNL     1     -39.152  22.563   0.673  0.00  0.00    +0.211 HD
ENDBRANCH   4  11
BRANCH   5  14
ATOM     13  O   UNL     1     -35.586  24.598   5.887  0.00  0.00    -0.247 OA
ATOM     14  C   UNL     1     -36.144  25.276   5.037  0.00  0.00    +0.344 C 
BRANCH  14  15
ATOM     15  O   UNL     1     -36.409  26.598   5.170  0.00  0.00    -0.478 OA
ATOM     16  H   UNL     1     -36.963  27.030   4.549  0.00  0.00    +0.295 HD
ENDBRANCH  14  15
ENDBRANCH   5  14
BRANCH   6  17
ATOM     17  O   UNL     1     -36.097  21.387   2.557  0.00  0.00    -0.451 OA
BRANCH  17  18
ATOM     18  C   UNL     1     -35.000  21.084   1.797  0.00  0.00    +0.141 C 
ATOM     19  C   UNL     1     -34.473  22.040   0.934  0.00  0.00    +0.037 C 
ATOM     20  C   UNL     1     -34.421  19.823   1.893  0.00  0.00    +0.037 C 
ATOM     21  C   UNL     1     -32.769  20.470   0.253  0.00  0.00    -0.024 C 
ATOM     22  C   UNL     1     -33.354  21.732   0.160  0.00  0.00    -0.001 C 
ATOM     23  C   UNL     1     -33.301  19.516   1.119  0.00  0.00    -0.001 C 
BRANCH  21  24
ATOM     24  C   UNL     1     -31.573  20.140  -0.576  0.00  0.00    +0.002 C 
BRANCH  24  25
ATOM     25  C   UNL     1     -30.966  21.386  -1.238  0.00  0.00    -0.081 C 
BRANCH  25  26
ATOM     26  N   UNL     1     -29.587  21.599  -0.815  0.00  0.00    +0.381 N 
ATOM     27  H   UNL     1     -29.176  22.353  -1.364  0.00  0.00    -0.089 HD
ATOM     28  H   UNL     1     -29.051  20.744  -0.958  0.00  0.00    -0.089 HD
ATOM     29  H   UNL     1     -29.569  21.850   0.174  0.00  0.00    -0.089 HD
ENDBRANCH  25  26
ENDBRANCH  24  25
ENDBRANCH  21  24
ENDBRANCH  17  18
ENDBRANCH   6  17
TORSDOF 10
ENDMDL
