MODEL 1
REMARK VINA RESULT:      -5.6      0.000      0.000
REMARK  Name = 191594
REMARK  9 active torsions:
REMARK  status: ('A' for Active; 'I' for Inactive)
REMARK    1  A    between atoms: C_1  and  O_2
REMARK    2  A    between atoms: C_1  and  C_4
REMARK    3  A    between atoms: C_1  and  CA_15
REMARK    4  A    between atoms: C_4  and  C_5
REMARK    5  A    between atoms: C_4  and  O_13
REMARK    6  A    between atoms: C_10  and  O_11
REMARK    7  A    between atoms: CA_15  and  N_16
REMARK    8  A    between atoms: CA_15  and  C_21
REMARK    9  A    between atoms: C_21  and  O_22
REMARK                            x       y       z     vdW  Elec       q    Type
REMARK                         _______ _______ _______ _____ _____    ______ ____
ROOT
ATOM      1  C   UNL     1     -34.389  26.891   4.047  0.00  0.00    +0.132 C 
ENDROOT
BRANCH   1   2
ATOM      2  O   UNL     1     -35.258  27.987   3.731  0.00  0.00    -0.383 OA
ATOM      3  H   UNL     1     -34.912  28.463   2.959  0.00  0.00    +0.210 HD
ENDBRANCH   1   2
BRANCH   1   4
ATOM      4  C   UNL     1     -35.091  26.062   5.142  0.00  0.00    +0.158 C 
BRANCH   4   5
ATOM      5  C   UNL     1     -35.227  24.593   4.821  0.00  0.00    +0.007 C 
ATOM      6  C   UNL     1     -35.298  24.192   3.497  0.00  0.00    +0.001 C 
ATOM      7  C   UNL     1     -35.279  23.674   5.857  0.00  0.00    +0.001 C 
ATOM      8  C   UNL     1     -35.424  22.834   3.200  0.00  0.00    +0.036 C 
ATOM      9  C   UNL     1     -35.405  22.317   5.560  0.00  0.00    +0.036 C 
ATOM     10  C   UNL     1     -35.477  21.897   4.232  0.00  0.00    +0.134 C 
BRANCH  10  11
ATOM     11  O   UNL     1     -35.600  20.573   3.942  0.00  0.00    -0.506 OA
ATOM     12  H   UNL     1     -34.845  20.018   3.955  0.00  0.00    +0.292 HD
ENDBRANCH  10  11
ENDBRANCH   4   5
BRANCH   4  13
ATOM     13  O   UNL     1     -36.415  26.579   5.331  0.00  0.00    -0.378 OA
ATOM     14  H   UNL     1     -36.504  27.420   4.856  0.00  0.00    +0.211 HD
ENDBRANCH   4  13
ENDBRANCH   1   4
BRANCH   1  15
ATOM     15  CA  UNL     1     -33.002  27.437   4.446  0.00  0.00    +0.066 C 
BRANCH  15  16
ATOM     16  N   UNL     1     -32.831  27.542   5.896  0.00  0.00    +0.390 N 
ATOM     17  H1  UNL     1     -32.271  26.758   6.230  0.00  0.00    -0.088 HD
ATOM     18  H2  UNL     1     -33.745  27.525   6.348  0.00  0.00    -0.088 HD
ATOM     19  H3  UNL     1     -32.358  28.418   6.120  0.00  0.00    -0.088 HD
ENDBRANCH  15  16
BRANCH  15  21
ATOM     20  OXT UNL     1     -32.505  29.059   2.685  0.00  0.00    -0.253 OA
ATOM     21  C   UNL     1     -32.767  28.819   3.857  0.00  0.00    +0.295 C 
BRANCH  21  22
ATOM     22  O   UNL     1     -32.891  29.796   4.795  0.00  0.00    -0.482 OA
ATOM     23  H   UNL     1     -33.415  30.553   4.618  0.00  0.00    +0.295 HD
ENDBRANCH  21  22
ENDBRANCH  15  21
ENDBRANCH   1  15
TORSDOF 9
ENDMDL
MODEL 2
REMARK VINA RESULT:      -5.5      2.341      2.852
REMARK  Name = 191594
REMARK  9 active torsions:
REMARK  status: ('A' for Active; 'I' for Inactive)
REMARK    1  A    between atoms: C_1  and  O_2
REMARK    2  A    between atoms: C_1  and  C_4
REMARK    3  A    between atoms: C_1  and  CA_15
REMARK    4  A    between atoms: C_4  and  C_5
REMARK    5  A    between atoms: C_4  and  O_13
REMARK    6  A    between atoms: C_10  and  O_11
REMARK    7  A    between atoms: CA_15  and  N_16
REMARK    8  A    between atoms: CA_15  and  C_21
REMARK    9  A    between atoms: C_21  and  O_22
REMARK                            x       y       z     vdW  Elec       q    Type
REMARK                         _______ _______ _______ _____ _____    ______ ____
ROOT
ATOM      1  C   UNL     1     -36.073  26.502   2.900  0.00  0.00    +0.132 C 
ENDROOT
BRANCH   1   2
ATOM      2  O   UNL     1     -37.489  26.722   2.967  0.00  0.00    -0.383 OA
ATOM      3  H   UNL     1     -37.840  26.848   2.071  0.00  0.00    +0.210 HD
ENDBRANCH   1   2
BRANCH   1   4
ATOM      4  C   UNL     1     -35.606  26.150   4.327  0.00  0.00    +0.158 C 
BRANCH   4   5
ATOM      5  C   UNL     1     -35.507  24.669   4.603  0.00  0.00    +0.007 C 
ATOM      6  C   UNL     1     -35.243  24.236   5.893  0.00  0.00    +0.001 C 
ATOM      7  C   UNL     1     -35.681  23.772   3.563  0.00  0.00    +0.001 C 
ATOM      8  C   UNL     1     -35.151  22.868   6.148  0.00  0.00    +0.036 C 
ATOM      9  C   UNL     1     -35.589  22.403   3.818  0.00  0.00    +0.036 C 
ATOM     10  C   UNL     1     -35.324  21.951   5.111  0.00  0.00    +0.134 C 
BRANCH  10  11
ATOM     11  O   UNL     1     -35.234  20.617   5.361  0.00  0.00    -0.506 OA
ATOM     12  H   UNL     1     -36.008  20.120   5.539  0.00  0.00    +0.292 HD
ENDBRANCH  10  11
ENDBRANCH   4   5
BRANCH   4  13
ATOM     13  O   UNL     1     -36.545  26.694   5.265  0.00  0.00    -0.378 OA
ATOM     14  H   UNL     1     -36.091  26.887   6.100  0.00  0.00    +0.211 HD
ENDBRANCH   4  13
ENDBRANCH   1   4
BRANCH   1  15
ATOM     15  CA  UNL     1     -35.391  27.745   2.290  0.00  0.00    +0.066 C 
BRANCH  15  16
ATOM     16  N   UNL     1     -35.046  28.752   3.296  0.00  0.00    +0.390 N 
ATOM     17  H1  UNL     1     -35.653  29.565   3.184  0.00  0.00    -0.088 HD
ATOM     18  H2  UNL     1     -34.074  29.034   3.175  0.00  0.00    -0.088 HD
ATOM     19  H3  UNL     1     -35.174  28.359   4.228  0.00  0.00    -0.088 HD
ENDBRANCH  15  16
BRANCH  15  21
ATOM     20  OXT UNL     1     -36.586  27.955   0.167  0.00  0.00    -0.253 OA
ATOM     21  C   UNL     1     -36.292  28.415   1.263  0.00  0.00    +0.295 C 
BRANCH  21  22
ATOM     22  O   UNL     1     -36.758  29.613   1.706  0.00  0.00    -0.482 OA
ATOM     23  H   UNL     1     -36.159  30.267   2.010  0.00  0.00    +0.295 HD
ENDBRANCH  21  22
ENDBRANCH  15  21
ENDBRANCH   1  15
TORSDOF 9
ENDMDL
MODEL 3
REMARK VINA RESULT:      -5.4      2.812      6.497
REMARK  Name = 191594
REMARK  9 active torsions:
REMARK  status: ('A' for Active; 'I' for Inactive)
REMARK    1  A    between atoms: C_1  and  O_2
REMARK    2  A    between atoms: C_1  and  C_4
REMARK    3  A    between atoms: C_1  and  CA_15
REMARK    4  A    between atoms: C_4  and  C_5
REMARK    5  A    between atoms: C_4  and  O_13
REMARK    6  A    between atoms: C_10  and  O_11
REMARK    7  A    between atoms: CA_15  and  N_16
REMARK    8  A    between atoms: CA_15  and  C_21
REMARK    9  A    between atoms: C_21  and  O_22
REMARK                            x       y       z     vdW  Elec       q    Type
REMARK                         _______ _______ _______ _____ _____    ______ ____
ROOT
ATOM      1  C   UNL     1     -35.471  21.752   3.460  0.00  0.00    +0.132 C 
ENDROOT
BRANCH   1   2
ATOM      2  O   UNL     1     -35.254  20.618   4.312  0.00  0.00    -0.383 OA
ATOM      3  H   UNL     1     -36.012  20.511   4.908  0.00  0.00    +0.210 HD
ENDBRANCH   1   2
BRANCH   1   4
ATOM      4  C   UNL     1     -36.132  22.844   4.326  0.00  0.00    +0.158 C 
BRANCH   4   5
ATOM      5  C   UNL     1     -35.334  24.121   4.436  0.00  0.00    +0.007 C 
ATOM      6  C   UNL     1     -34.630  24.577   3.333  0.00  0.00    +0.001 C 
ATOM      7  C   UNL     1     -35.320  24.812   5.637  0.00  0.00    +0.001 C 
ATOM      8  C   UNL     1     -33.892  25.757   3.435  0.00  0.00    +0.036 C 
ATOM      9  C   UNL     1     -34.582  25.992   5.738  0.00  0.00    +0.036 C 
ATOM     10  C   UNL     1     -33.868  26.464   4.636  0.00  0.00    +0.134 C 
BRANCH  10  11
ATOM     11  O   UNL     1     -33.148  27.614   4.734  0.00  0.00    -0.506 OA
ATOM     12  H   UNL     1     -32.293  27.600   5.119  0.00  0.00    +0.292 HD
ENDBRANCH  10  11
ENDBRANCH   4   5
BRANCH   4  13
ATOM     13  O   UNL     1     -36.303  22.336   5.656  0.00  0.00    -0.378 OA
ATOM     14  H   UNL     1     -36.444  21.377   5.619  0.00  0.00    +0.211 HD
ENDBRANCH   4  13
ENDBRANCH   1   4
BRANCH   1  15
ATOM     15  CA  UNL     1     -36.299  21.317   2.233  0.00  0.00    +0.066 C 
BRANCH  15  16
ATOM     16  N   UNL     1     -37.722  21.161   2.537  0.00  0.00    +0.390 N 
ATOM     17  H1  UNL     1     -37.932  21.619   3.424  0.00  0.00    -0.088 HD
ATOM     18  H2  UNL     1     -37.948  20.169   2.605  0.00  0.00    -0.088 HD
ATOM     19  H3  UNL     1     -38.278  21.586   1.795  0.00  0.00    -0.088 HD
ENDBRANCH  15  16
BRANCH  15  21
ATOM     20  OXT UNL     1     -34.628  19.685   1.511  0.00  0.00    -0.253 OA
ATOM     21  C   UNL     1     -35.802  19.991   1.678  0.00  0.00    +0.295 C 
BRANCH  21  22
ATOM     22  O   UNL     1     -36.829  19.150   1.385  0.00  0.00    -0.482 OA
ATOM     23  H   UNL     1     -37.660  19.496   1.125  0.00  0.00    +0.295 HD
ENDBRANCH  21  22
ENDBRANCH  15  21
ENDBRANCH   1  15
TORSDOF 9
ENDMDL
MODEL 4
REMARK VINA RESULT:      -5.2      1.188      1.750
REMARK  Name = 191594
REMARK  9 active torsions:
REMARK  status: ('A' for Active; 'I' for Inactive)
REMARK    1  A    between atoms: C_1  and  O_2
REMARK    2  A    between atoms: C_1  and  C_4
REMARK    3  A    between atoms: C_1  and  CA_15
REMARK    4  A    between atoms: C_4  and  C_5
REMARK    5  A    between atoms: C_4  and  O_13
REMARK    6  A    between atoms: C_10  and  O_11
REMARK    7  A    between atoms: CA_15  and  N_16
REMARK    8  A    between atoms: CA_15  and  C_21
REMARK    9  A    between atoms: C_21  and  O_22
REMARK                            x       y       z     vdW  Elec       q    Type
REMARK                         _______ _______ _______ _____ _____    ______ ____
ROOT
ATOM      1  C   UNL     1     -34.798  26.989   3.387  0.00  0.00    +0.132 C 
ENDROOT
BRANCH   1   2
ATOM      2  O   UNL     1     -35.570  28.198   3.403  0.00  0.00    -0.383 OA
ATOM      3  H   UNL     1     -35.078  28.891   3.871  0.00  0.00    +0.210 HD
ENDBRANCH   1   2
BRANCH   1   4
ATOM      4  C   UNL     1     -35.099  26.247   4.705  0.00  0.00    +0.158 C 
BRANCH   4   5
ATOM      5  C   UNL     1     -35.226  24.749   4.564  0.00  0.00    +0.007 C 
ATOM      6  C   UNL     1     -35.150  23.953   5.695  0.00  0.00    +0.001 C 
ATOM      7  C   UNL     1     -35.416  24.201   3.306  0.00  0.00    +0.001 C 
ATOM      8  C   UNL     1     -35.267  22.569   5.564  0.00  0.00    +0.036 C 
ATOM      9  C   UNL     1     -35.533  22.816   3.176  0.00  0.00    +0.036 C 
ATOM     10  C   UNL     1     -35.459  22.000   4.305  0.00  0.00    +0.134 C 
BRANCH  10  11
ATOM     11  O   UNL     1     -35.572  20.651   4.178  0.00  0.00    -0.506 OA
ATOM     12  H   UNL     1     -36.278  20.284   3.681  0.00  0.00    +0.292 HD
ENDBRANCH  10  11
ENDBRANCH   4   5
BRANCH   4  13
ATOM     13  O   UNL     1     -36.342  26.730   5.232  0.00  0.00    -0.378 OA
ATOM     14  H   UNL     1     -36.183  27.172   6.080  0.00  0.00    +0.211 HD
ENDBRANCH   4  13
ENDBRANCH   1   4
BRANCH   1  15
ATOM     15  CA  UNL     1     -33.310  27.336   3.170  0.00  0.00    +0.066 C 
BRANCH  15  16
ATOM     16  N   UNL     1     -32.505  26.169   2.803  0.00  0.00    +0.390 N 
ATOM     17  H1  UNL     1     -32.871  25.342   3.276  0.00  0.00    -0.088 HD
ATOM     18  H2  UNL     1     -31.537  26.322   3.086  0.00  0.00    -0.088 HD
ATOM     19  H3  UNL     1     -32.547  26.030   1.794  0.00  0.00    -0.088 HD
ENDBRANCH  15  16
BRANCH  15  21
ATOM     20  OXT UNL     1     -31.959  27.352   5.207  0.00  0.00    -0.253 OA
ATOM     21  C   UNL     1     -32.699  27.936   4.426  0.00  0.00    +0.295 C 
BRANCH  21  22
ATOM     22  O   UNL     1     -33.066  29.235   4.595  0.00  0.00    -0.482 OA
ATOM     23  H   UNL     1     -33.785  29.587   4.107  0.00  0.00    +0.295 HD
ENDBRANCH  21  22
ENDBRANCH  15  21
ENDBRANCH   1  15
TORSDOF 9
ENDMDL
MODEL 5
REMARK VINA RESULT:      -5.2      3.210      6.728
REMARK  Name = 191594
REMARK  9 active torsions:
REMARK  status: ('A' for Active; 'I' for Inactive)
REMARK    1  A    between atoms: C_1  and  O_2
REMARK    2  A    between atoms: C_1  and  C_4
REMARK    3  A    between atoms: C_1  and  CA_15
REMARK    4  A    between atoms: C_4  and  C_5
REMARK    5  A    between atoms: C_4  and  O_13
REMARK    6  A    between atoms: C_10  and  O_11
REMARK    7  A    between atoms: CA_15  and  N_16
REMARK    8  A    between atoms: CA_15  and  C_21
REMARK    9  A    between atoms: C_21  and  O_22
REMARK                            x       y       z     vdW  Elec       q    Type
REMARK                         _______ _______ _______ _____ _____    ______ ____
ROOT
ATOM      1  C   UNL     1     -35.324  21.505   2.748  0.00  0.00    +0.132 C 
ENDROOT
BRANCH   1   2
ATOM      2  O   UNL     1     -35.339  20.862   4.031  0.00  0.00    -0.383 OA
ATOM      3  H   UNL     1     -34.878  20.010   3.971  0.00  0.00    +0.210 HD
ENDBRANCH   1   2
BRANCH   1   4
ATOM      4  C   UNL     1     -36.157  22.797   2.885  0.00  0.00    +0.158 C 
BRANCH   4   5
ATOM      5  C   UNL     1     -35.478  23.896   3.666  0.00  0.00    +0.007 C 
ATOM      6  C   UNL     1     -35.940  24.211   4.934  0.00  0.00    +0.001 C 
ATOM      7  C   UNL     1     -34.408  24.569   3.101  0.00  0.00    +0.001 C 
ATOM      8  C   UNL     1     -35.313  25.228   5.656  0.00  0.00    +0.036 C 
ATOM      9  C   UNL     1     -33.781  25.586   3.823  0.00  0.00    +0.036 C 
ATOM     10  C   UNL     1     -34.234  25.914   5.101  0.00  0.00    +0.134 C 
BRANCH  10  11
ATOM     11  O   UNL     1     -33.624  26.906   5.805  0.00  0.00    -0.506 OA
ATOM     12  H   UNL     1     -32.838  26.725   6.284  0.00  0.00    +0.292 HD
ENDBRANCH  10  11
ENDBRANCH   4   5
BRANCH   4  13
ATOM     13  O   UNL     1     -37.379  22.486   3.566  0.00  0.00    -0.378 OA
ATOM     14  H   UNL     1     -37.860  23.306   3.757  0.00  0.00    +0.211 HD
ENDBRANCH   4  13
ENDBRANCH   1   4
BRANCH   1  15
ATOM     15  CA  UNL     1     -35.838  20.521   1.677  0.00  0.00    +0.066 C 
BRANCH  15  16
ATOM     16  N   UNL     1     -37.015  19.770   2.116  0.00  0.00    +0.390 N 
ATOM     17  H1  UNL     1     -37.462  19.336   1.308  0.00  0.00    -0.088 HD
ATOM     18  H2  UNL     1     -37.673  20.404   2.568  0.00  0.00    -0.088 HD
ATOM     19  H3  UNL     1     -36.730  19.047   2.776  0.00  0.00    -0.088 HD
ENDBRANCH  15  16
BRANCH  15  21
ATOM     20  OXT UNL     1     -33.589  19.562   1.641  0.00  0.00    -0.253 OA
ATOM     21  C   UNL     1     -34.764  19.510   1.303  0.00  0.00    +0.295 C 
BRANCH  21  22
ATOM     22  O   UNL     1     -35.264  18.504   0.536  0.00  0.00    -0.482 OA
ATOM     23  H   UNL     1     -36.191  18.388   0.459  0.00  0.00    +0.295 HD
ENDBRANCH  21  22
ENDBRANCH  15  21
ENDBRANCH   1  15
TORSDOF 9
ENDMDL
MODEL 6
REMARK VINA RESULT:      -5.2      3.764      6.749
REMARK  Name = 191594
REMARK  9 active torsions:
REMARK  status: ('A' for Active; 'I' for Inactive)
REMARK    1  A    between atoms: C_1  and  O_2
REMARK    2  A    between atoms: C_1  and  C_4
REMARK    3  A    between atoms: C_1  and  CA_15
REMARK    4  A    between atoms: C_4  and  C_5
REMARK    5  A    between atoms: C_4  and  O_13
REMARK    6  A    between atoms: C_10  and  O_11
REMARK    7  A    between atoms: CA_15  and  N_16
REMARK    8  A    between atoms: CA_15  and  C_21
REMARK    9  A    between atoms: C_21  and  O_22
REMARK                            x       y       z     vdW  Elec       q    Type
REMARK                         _______ _______ _______ _____ _____    ______ ____
ROOT
ATOM      1  C   UNL     1     -35.914  21.560   1.462  0.00  0.00    +0.132 C 
ENDROOT
BRANCH   1   2
ATOM      2  O   UNL     1     -34.550  22.004   1.483  0.00  0.00    -0.383 OA
ATOM      3  H   UNL     1     -34.389  22.519   2.290  0.00  0.00    +0.210 HD
ENDBRANCH   1   2
BRANCH   1   4
ATOM      4  C   UNL     1     -36.394  21.518   2.927  0.00  0.00    +0.158 C 
BRANCH   4   5
ATOM      5  C   UNL     1     -36.412  22.862   3.616  0.00  0.00    +0.007 C 
ATOM      6  C   UNL     1     -37.232  23.864   3.124  0.00  0.00    +0.001 C 
ATOM      7  C   UNL     1     -35.609  23.066   4.725  0.00  0.00    +0.001 C 
ATOM      8  C   UNL     1     -37.249  25.106   3.760  0.00  0.00    +0.036 C 
ATOM      9  C   UNL     1     -35.625  24.308   5.361  0.00  0.00    +0.036 C 
ATOM     10  C   UNL     1     -36.446  25.328   4.878  0.00  0.00    +0.134 C 
BRANCH  10  11
ATOM     11  O   UNL     1     -36.462  26.539   5.498  0.00  0.00    -0.506 OA
ATOM     12  H   UNL     1     -35.692  27.073   5.503  0.00  0.00    +0.292 HD
ENDBRANCH  10  11
ENDBRANCH   4   5
BRANCH   4  13
ATOM     13  O   UNL     1     -35.514  20.670   3.676  0.00  0.00    -0.378 OA
ATOM     14  H   UNL     1     -34.695  21.149   3.873  0.00  0.00    +0.211 HD
ENDBRANCH   4  13
ENDBRANCH   1   4
BRANCH   1  15
ATOM     15  CA  UNL     1     -36.000  20.209   0.719  0.00  0.00    +0.066 C 
BRANCH  15  16
ATOM     16  N   UNL     1     -36.789  19.213   1.446  0.00  0.00    +0.390 N 
ATOM     17  H1  UNL     1     -36.446  19.142   2.404  0.00  0.00    -0.088 HD
ATOM     18  H2  UNL     1     -36.702  18.308   0.985  0.00  0.00    -0.088 HD
ATOM     19  H3  UNL     1     -37.769  19.497   1.456  0.00  0.00    -0.088 HD
ENDBRANCH  15  16
BRANCH  15  21
ATOM     20  OXT UNL     1     -33.982  19.670  -0.552  0.00  0.00    -0.253 OA
ATOM     21  C   UNL     1     -34.616  19.620   0.494  0.00  0.00    +0.295 C 
BRANCH  21  22
ATOM     22  O   UNL     1     -34.135  19.018   1.615  0.00  0.00    -0.482 OA
ATOM     23  H   UNL     1     -34.641  18.359   2.048  0.00  0.00    +0.295 HD
ENDBRANCH  21  22
ENDBRANCH  15  21
ENDBRANCH   1  15
TORSDOF 9
ENDMDL
MODEL 7
REMARK VINA RESULT:      -5.2      2.377      6.008
REMARK  Name = 191594
REMARK  9 active torsions:
REMARK  status: ('A' for Active; 'I' for Inactive)
REMARK    1  A    between atoms: C_1  and  O_2
REMARK    2  A    between atoms: C_1  and  C_4
REMARK    3  A    between atoms: C_1  and  CA_15
REMARK    4  A    between atoms: C_4  and  C_5
REMARK    5  A    between atoms: C_4  and  O_13
REMARK    6  A    between atoms: C_10  and  O_11
REMARK    7  A    between atoms: CA_15  and  N_16
REMARK    8  A    between atoms: CA_15  and  C_21
REMARK    9  A    between atoms: C_21  and  O_22
REMARK                            x       y       z     vdW  Elec       q    Type
REMARK                         _______ _______ _______ _____ _____    ______ ____
ROOT
ATOM      1  C   UNL     1     -35.521  24.239   5.139  0.00  0.00    +0.132 C 
ENDROOT
BRANCH   1   2
ATOM      2  O   UNL     1     -36.849  24.691   5.440  0.00  0.00    -0.383 OA
ATOM      3  H   UNL     1     -36.939  24.818   6.398  0.00  0.00    +0.210 HD
ENDBRANCH   1   2
BRANCH   1   4
ATOM      4  C   UNL     1     -34.884  25.301   4.220  0.00  0.00    +0.158 C 
BRANCH   4   5
ATOM      5  C   UNL     1     -33.957  26.262   4.925  0.00  0.00    +0.007 C 
ATOM      6  C   UNL     1     -33.334  27.261   4.196  0.00  0.00    +0.001 C 
ATOM      7  C   UNL     1     -33.748  26.126   6.288  0.00  0.00    +0.001 C 
ATOM      8  C   UNL     1     -32.476  28.149   4.847  0.00  0.00    +0.036 C 
ATOM      9  C   UNL     1     -32.890  27.014   6.939  0.00  0.00    +0.036 C 
ATOM     10  C   UNL     1     -32.255  28.025   6.219  0.00  0.00    +0.134 C 
BRANCH  10  11
ATOM     11  O   UNL     1     -31.419  28.891   6.853  0.00  0.00    -0.506 OA
ATOM     12  H   UNL     1     -31.673  29.786   6.972  0.00  0.00    +0.292 HD
ENDBRANCH  10  11
ENDBRANCH   4   5
BRANCH   4  13
ATOM     13  O   UNL     1     -35.929  26.081   3.625  0.00  0.00    -0.378 OA
ATOM     14  H   UNL     1     -36.758  25.578   3.644  0.00  0.00    +0.211 HD
ENDBRANCH   4  13
ENDBRANCH   1   4
BRANCH   1  15
ATOM     15  CA  UNL     1     -35.589  22.822   4.532  0.00  0.00    +0.066 C 
BRANCH  15  16
ATOM     16  N   UNL     1     -36.792  22.609   3.726  0.00  0.00    +0.390 N 
ATOM     17  H1  UNL     1     -36.542  22.604   2.737  0.00  0.00    -0.088 HD
ATOM     18  H2  UNL     1     -37.458  23.359   3.905  0.00  0.00    -0.088 HD
ATOM     19  H3  UNL     1     -37.213  21.713   3.974  0.00  0.00    -0.088 HD
ENDBRANCH  15  16
BRANCH  15  21
ATOM     20  OXT UNL     1     -35.975  21.909   6.767  0.00  0.00    -0.253 OA
ATOM     21  C   UNL     1     -35.573  21.759   5.620  0.00  0.00    +0.295 C 
BRANCH  21  22
ATOM     22  O   UNL     1     -35.057  20.584   5.170  0.00  0.00    -0.482 OA
ATOM     23  H   UNL     1     -34.865  20.474   4.260  0.00  0.00    +0.295 HD
ENDBRANCH  21  22
ENDBRANCH  15  21
ENDBRANCH   1  15
TORSDOF 9
ENDMDL
MODEL 8
REMARK VINA RESULT:      -5.1      3.580      5.759
REMARK  Name = 191594
REMARK  9 active torsions:
REMARK  status: ('A' for Active; 'I' for Inactive)
REMARK    1  A    between atoms: C_1  and  O_2
REMARK    2  A    between atoms: C_1  and  C_4
REMARK    3  A    between atoms: C_1  and  CA_15
REMARK    4  A    between atoms: C_4  and  C_5
REMARK    5  A    between atoms: C_4  and  O_13
REMARK    6  A    between atoms: C_10  and  O_11
REMARK    7  A    between atoms: CA_15  and  N_16
REMARK    8  A    between atoms: CA_15  and  C_21
REMARK    9  A    between atoms: C_21  and  O_22
REMARK                            x       y       z     vdW  Elec       q    Type
REMARK                         _______ _______ _______ _____ _____    ______ ____
ROOT
ATOM      1  C   UNL     1     -35.964  22.133   3.333  0.00  0.00    +0.132 C 
ENDROOT
BRANCH   1   2
ATOM      2  O   UNL     1     -37.399  22.167   3.327  0.00  0.00    -0.383 OA
ATOM      3  H   UNL     1     -37.738  21.415   2.816  0.00  0.00    +0.210 HD
ENDBRANCH   1   2
BRANCH   1   4
ATOM      4  C   UNL     1     -35.548  20.687   2.994  0.00  0.00    +0.158 C 
BRANCH   4   5
ATOM      5  C   UNL     1     -34.568  20.573   1.851  0.00  0.00    +0.007 C 
ATOM      6  C   UNL     1     -34.391  21.651   0.999  0.00  0.00    +0.001 C 
ATOM      7  C   UNL     1     -33.865  19.392   1.675  0.00  0.00    +0.001 C 
ATOM      8  C   UNL     1     -33.486  21.545  -0.057  0.00  0.00    +0.036 C 
ATOM      9  C   UNL     1     -32.960  19.286   0.619  0.00  0.00    +0.036 C 
ATOM     10  C   UNL     1     -32.770  20.364  -0.247  0.00  0.00    +0.134 C 
BRANCH  10  11
ATOM     11  O   UNL     1     -31.888  20.261  -1.278  0.00  0.00    -0.506 OA
ATOM     12  H   UNL     1     -31.103  19.759  -1.175  0.00  0.00    +0.292 HD
ENDBRANCH  10  11
ENDBRANCH   4   5
BRANCH   4  13
ATOM     13  O   UNL     1     -36.719  19.947   2.624  0.00  0.00    -0.378 OA
ATOM     14  H   UNL     1     -36.634  19.646   1.706  0.00  0.00    +0.211 HD
ENDBRANCH   4  13
ENDBRANCH   1   4
BRANCH   1  15
ATOM     15  CA  UNL     1     -35.447  22.648   4.693  0.00  0.00    +0.066 C 
BRANCH  15  16
ATOM     16  N   UNL     1     -35.924  21.844   5.820  0.00  0.00    +0.390 N 
ATOM     17  H1  UNL     1     -35.367  22.057   6.649  0.00  0.00    -0.088 HD
ATOM     18  H2  UNL     1     -35.832  20.854   5.595  0.00  0.00    -0.088 HD
ATOM     19  H3  UNL     1     -36.903  22.062   6.003  0.00  0.00    -0.088 HD
ENDBRANCH  15  16
BRANCH  15  21
ATOM     20  OXT UNL     1     -36.991  24.544   4.683  0.00  0.00    -0.253 OA
ATOM     21  C   UNL     1     -35.885  24.083   4.938  0.00  0.00    +0.295 C 
BRANCH  21  22
ATOM     22  O   UNL     1     -34.892  24.826   5.496  0.00  0.00    -0.482 OA
ATOM     23  H   UNL     1     -34.949  25.762   5.495  0.00  0.00    +0.295 HD
ENDBRANCH  21  22
ENDBRANCH  15  21
ENDBRANCH   1  15
TORSDOF 9
ENDMDL
MODEL 9
REMARK VINA RESULT:      -5.1      3.814      5.307
REMARK  Name = 191594
REMARK  9 active torsions:
REMARK  status: ('A' for Active; 'I' for Inactive)
REMARK    1  A    between atoms: C_1  and  O_2
REMARK    2  A    between atoms: C_1  and  C_4
REMARK    3  A    between atoms: C_1  and  CA_15
REMARK    4  A    between atoms: C_4  and  C_5
REMARK    5  A    between atoms: C_4  and  O_13
REMARK    6  A    between atoms: C_10  and  O_11
REMARK    7  A    between atoms: CA_15  and  N_16
REMARK    8  A    between atoms: CA_15  and  C_21
REMARK    9  A    between atoms: C_21  and  O_22
REMARK                            x       y       z     vdW  Elec       q    Type
REMARK                         _______ _______ _______ _____ _____    ______ ____
ROOT
ATOM      1  C   UNL     1     -38.751  24.653   2.761  0.00  0.00    +0.132 C 
ENDROOT
BRANCH   1   2
ATOM      2  O   UNL     1     -39.621  24.801   3.892  0.00  0.00    -0.383 OA
ATOM      3  H   UNL     1     -40.485  25.129   3.595  0.00  0.00    +0.210 HD
ENDBRANCH   1   2
BRANCH   1   4
ATOM      4  C   UNL     1     -37.353  25.131   3.206  0.00  0.00    +0.158 C 
BRANCH   4   5
ATOM      5  C   UNL     1     -36.571  24.116   4.004  0.00  0.00    +0.007 C 
ATOM      6  C   UNL     1     -36.420  22.833   3.504  0.00  0.00    +0.001 C 
ATOM      7  C   UNL     1     -36.021  24.486   5.220  0.00  0.00    +0.001 C 
ATOM      8  C   UNL     1     -35.697  21.894   4.242  0.00  0.00    +0.036 C 
ATOM      9  C   UNL     1     -35.299  23.547   5.958  0.00  0.00    +0.036 C 
ATOM     10  C   UNL     1     -35.137  22.251   5.468  0.00  0.00    +0.134 C 
BRANCH  10  11
ATOM     11  O   UNL     1     -34.433  21.335   6.187  0.00  0.00    -0.506 OA
ATOM     12  H   UNL     1     -34.422  21.382   7.123  0.00  0.00    +0.292 HD
ENDBRANCH  10  11
ENDBRANCH   4   5
BRANCH   4  13
ATOM     13  O   UNL     1     -37.506  26.293   4.032  0.00  0.00    -0.378 OA
ATOM     14  H   UNL     1     -37.656  27.070   3.472  0.00  0.00    +0.211 HD
ENDBRANCH   4  13
ENDBRANCH   1   4
BRANCH   1  15
ATOM     15  CA  UNL     1     -39.340  25.421   1.559  0.00  0.00    +0.066 C 
BRANCH  15  16
ATOM     16  N   UNL     1     -38.570  26.619   1.221  0.00  0.00    +0.390 N 
ATOM     17  H1  UNL     1     -39.141  27.448   1.389  0.00  0.00    -0.088 HD
ATOM     18  H2  UNL     1     -38.301  26.584   0.238  0.00  0.00    -0.088 HD
ATOM     19  H3  UNL     1     -37.732  26.660   1.801  0.00  0.00    -0.088 HD
ENDBRANCH  15  16
BRANCH  15  21
ATOM     20  OXT UNL     1     -41.771  25.179   1.653  0.00  0.00    -0.253 OA
ATOM     21  C   UNL     1     -40.769  25.859   1.837  0.00  0.00    +0.295 C 
BRANCH  21  22
ATOM     22  O   UNL     1     -40.822  27.124   2.334  0.00  0.00    -0.482 OA
ATOM     23  H   UNL     1     -40.179  27.756   2.078  0.00  0.00    +0.295 HD
ENDBRANCH  21  22
ENDBRANCH  15  21
ENDBRANCH   1  15
TORSDOF 9
ENDMDL
