MODEL 1
REMARK VINA RESULT:      -7.2      0.000      0.000
REMARK  Name = 197637
REMARK  6 active torsions:
REMARK  status: ('A' for Active; 'I' for Inactive)
REMARK    1  A    between atoms: N_1  and  C_12
REMARK    2  A    between atoms: C_11  and  O_20
REMARK    3  A    between atoms: C_13  and  O_22
REMARK    4  A    between atoms: C_14  and  C_17
REMARK    5  A    between atoms: N_24  and  C_26
REMARK    6  A    between atoms: C_26  and  C_27
REMARK                            x       y       z     vdW  Elec       q    Type
REMARK                         _______ _______ _______ _____ _____    ______ ____
ROOT
ATOM      1  N   UNL     1     -36.300  23.238   4.124  0.00  0.00    -0.247 N 
ATOM      2  N   UNL     1     -35.189  21.322   4.389  0.00  0.00    -0.242 NA
ATOM      3  N   UNL     1     -36.549  23.242   1.707  0.00  0.00    -0.228 NA
ATOM      4  N   UNL     1     -35.532  21.262   0.707  0.00  0.00    -0.228 NA
ATOM      5  C   UNL     1     -36.134  22.719   2.871  0.00  0.00    +0.152 C 
ATOM      6  C   UNL     1     -35.714  22.363   5.001  0.00  0.00    +0.223 C 
ATOM      7  C   UNL     1     -35.444  21.532   3.058  0.00  0.00    +0.140 C 
ATOM      8  C   UNL     1     -35.144  20.793   1.917  0.00  0.00    +0.146 C 
ATOM      9  C   UNL     1     -36.200  22.440   0.677  0.00  0.00    +0.253 C 
ATOM     10  N   UNL     1     -34.447  19.576   2.014  0.00  0.00    -0.313 N 
ATOM     11  H   UNL     1     -34.178  19.258   2.906  0.00  0.00    +0.149 HD
ENDROOT
BRANCH   1  14
ATOM     12  O   UNL     1     -38.269  24.547   3.840  0.00  0.00    -0.326 OA
ATOM     13  C   UNL     1     -36.207  25.742   4.054  0.00  0.00    +0.187 C 
ATOM     14  C   UNL     1     -36.973  24.491   4.475  0.00  0.00    +0.225 C 
ATOM     15  C   UNL     1     -36.917  26.158   2.781  0.00  0.00    +0.178 C 
ATOM     16  C   UNL     1     -38.348  25.751   3.069  0.00  0.00    +0.222 C 
BRANCH  16  19
ATOM     17  O   UNL     1     -39.259  26.205   0.917  0.00  0.00    -0.272 OA
ATOM     18  N   UNL     1     -39.621  24.117   1.880  0.00  0.00    -0.301 N 
ATOM     19  C   UNL     1     -39.110  25.402   1.835  0.00  0.00    +0.252 C 
ATOM     20  C   UNL     1     -40.418  23.545   0.818  0.00  0.00    +0.111 C 
ATOM     21  H   UNL     1     -39.433  23.566   2.674  0.00  0.00    +0.150 HD
ENDBRANCH  16  19
BRANCH  13  22
ATOM     22  O   UNL     1     -36.388  26.725   5.073  0.00  0.00    -0.378 OA
ATOM     23  H   UNL     1     -36.328  27.611   4.682  0.00  0.00    +0.211 HD
ENDBRANCH  13  22
BRANCH  15  24
ATOM     24  O   UNL     1     -36.787  27.543   2.525  0.00  0.00    -0.379 OA
ATOM     25  H   UNL     1     -37.668  27.940   2.444  0.00  0.00    +0.211 HD
ENDBRANCH  15  24
ENDBRANCH   1  14
BRANCH  10  26
ATOM     26  C   UNL     1     -34.112  18.775   0.873  0.00  0.00    +0.115 C 
BRANCH  26  27
ATOM     27  C   UNL     1     -32.633  18.836   0.603  0.00  0.00    -0.003 C 
ATOM     28  C   UNL     1     -32.104  19.926  -0.075  0.00  0.00    -0.003 C 
ATOM     29  C   UNL     1     -31.815  17.801   1.036  0.00  0.00    -0.003 C 
ATOM     30  C   UNL     1     -30.734  19.982  -0.326  0.00  0.00    -0.000 C 
ATOM     31  C   UNL     1     -30.444  17.856   0.786  0.00  0.00    -0.000 C 
ATOM     32  C   UNL     1     -29.903  18.946   0.105  0.00  0.00    -0.000 C 
ENDBRANCH  26  27
ENDBRANCH  10  26
TORSDOF 6
ENDMDL
MODEL 2
REMARK VINA RESULT:      -7.0      4.122      9.282
REMARK  Name = 197637
REMARK  6 active torsions:
REMARK  status: ('A' for Active; 'I' for Inactive)
REMARK    1  A    between atoms: N_1  and  C_12
REMARK    2  A    between atoms: C_11  and  O_20
REMARK    3  A    between atoms: C_13  and  O_22
REMARK    4  A    between atoms: C_14  and  C_17
REMARK    5  A    between atoms: N_24  and  C_26
REMARK    6  A    between atoms: C_26  and  C_27
REMARK                            x       y       z     vdW  Elec       q    Type
REMARK                         _______ _______ _______ _____ _____    ______ ____
ROOT
ATOM      1  N   UNL     1     -38.725  24.814   1.906  0.00  0.00    -0.247 N 
ATOM      2  N   UNL     1     -40.422  23.374   1.751  0.00  0.00    -0.242 NA
ATOM      3  N   UNL     1     -39.881  26.877   1.349  0.00  0.00    -0.228 NA
ATOM      4  N   UNL     1     -42.245  26.477   0.896  0.00  0.00    -0.228 NA
ATOM      5  C   UNL     1     -39.820  25.553   1.558  0.00  0.00    +0.152 C 
ATOM      6  C   UNL     1     -39.138  23.511   2.009  0.00  0.00    +0.223 C 
ATOM      7  C   UNL     1     -40.860  24.642   1.468  0.00  0.00    +0.140 C 
ATOM      8  C   UNL     1     -42.110  25.147   1.123  0.00  0.00    +0.146 C 
ATOM      9  C   UNL     1     -41.138  27.248   1.021  0.00  0.00    +0.253 C 
ATOM     10  N   UNL     1     -43.223  24.295   1.010  0.00  0.00    -0.313 N 
ATOM     11  H   UNL     1     -43.097  23.334   1.182  0.00  0.00    +0.149 HD
ENDROOT
BRANCH   1  14
ATOM     12  O   UNL     1     -36.468  24.199   2.352  0.00  0.00    -0.326 OA
ATOM     13  C   UNL     1     -37.236  26.246   3.325  0.00  0.00    +0.187 C 
ATOM     14  C   UNL     1     -37.364  25.309   2.128  0.00  0.00    +0.225 C 
ATOM     15  C   UNL     1     -36.674  25.339   4.402  0.00  0.00    +0.178 C 
ATOM     16  C   UNL     1     -35.795  24.401   3.600  0.00  0.00    +0.222 C 
BRANCH  16  19
ATOM     17  O   UNL     1     -35.588  22.030   3.545  0.00  0.00    -0.272 OA
ATOM     18  N   UNL     1     -35.677  23.108   5.606  0.00  0.00    -0.301 N 
ATOM     19  C   UNL     1     -35.668  23.051   4.223  0.00  0.00    +0.252 C 
ATOM     20  C   UNL     1     -35.590  21.936   6.446  0.00  0.00    +0.111 C 
ATOM     21  H   UNL     1     -35.746  23.991   6.037  0.00  0.00    +0.150 HD
ENDBRANCH  16  19
BRANCH  13  22
ATOM     22  O   UNL     1     -36.291  27.260   2.983  0.00  0.00    -0.378 OA
ATOM     23  H   UNL     1     -36.635  28.126   3.251  0.00  0.00    +0.211 HD
ENDBRANCH  13  22
BRANCH  15  24
ATOM     24  O   UNL     1     -35.950  26.056   5.382  0.00  0.00    -0.379 OA
ATOM     25  H   UNL     1     -36.343  25.898   6.254  0.00  0.00    +0.211 HD
ENDBRANCH  15  24
ENDBRANCH   1  14
BRANCH  10  26
ATOM     26  C   UNL     1     -44.531  24.761   0.658  0.00  0.00    +0.115 C 
BRANCH  26  27
ATOM     27  C   UNL     1     -45.470  24.627   1.826  0.00  0.00    -0.003 C 
ATOM     28  C   UNL     1     -46.426  23.620   1.825  0.00  0.00    -0.003 C 
ATOM     29  C   UNL     1     -45.369  25.513   2.890  0.00  0.00    -0.003 C 
ATOM     30  C   UNL     1     -47.296  23.497   2.908  0.00  0.00    -0.000 C 
ATOM     31  C   UNL     1     -46.239  25.390   3.973  0.00  0.00    -0.000 C 
ATOM     32  C   UNL     1     -47.203  24.382   3.982  0.00  0.00    -0.000 C 
ENDBRANCH  26  27
ENDBRANCH  10  26
TORSDOF 6
ENDMDL
MODEL 3
REMARK VINA RESULT:      -6.9      1.938      3.467
REMARK  Name = 197637
REMARK  6 active torsions:
REMARK  status: ('A' for Active; 'I' for Inactive)
REMARK    1  A    between atoms: N_1  and  C_12
REMARK    2  A    between atoms: C_11  and  O_20
REMARK    3  A    between atoms: C_13  and  O_22
REMARK    4  A    between atoms: C_14  and  C_17
REMARK    5  A    between atoms: N_24  and  C_26
REMARK    6  A    between atoms: C_26  and  C_27
REMARK                            x       y       z     vdW  Elec       q    Type
REMARK                         _______ _______ _______ _____ _____    ______ ____
ROOT
ATOM      1  N   UNL     1     -36.004  23.392   2.667  0.00  0.00    -0.247 N 
ATOM      2  N   UNL     1     -35.472  21.321   3.304  0.00  0.00    -0.242 NA
ATOM      3  N   UNL     1     -35.854  23.135   0.256  0.00  0.00    -0.228 NA
ATOM      4  N   UNL     1     -35.226  20.858  -0.358  0.00  0.00    -0.228 NA
ATOM      5  C   UNL     1     -35.776  22.688   1.518  0.00  0.00    +0.152 C 
ATOM      6  C   UNL     1     -35.807  22.527   3.712  0.00  0.00    +0.223 C 
ATOM      7  C   UNL     1     -35.450  21.408   1.935  0.00  0.00    +0.140 C 
ATOM      8  C   UNL     1     -35.168  20.475   0.941  0.00  0.00    +0.146 C 
ATOM      9  C   UNL     1     -35.560  22.145  -0.616  0.00  0.00    +0.253 C 
ATOM     10  N   UNL     1     -34.828  19.152   1.273  0.00  0.00    -0.313 N 
ATOM     11  H   UNL     1     -34.795  18.901   2.224  0.00  0.00    +0.149 HD
ENDROOT
BRANCH   1  14
ATOM     12  O   UNL     1     -35.201  25.632   2.771  0.00  0.00    -0.326 OA
ATOM     13  C   UNL     1     -37.171  25.137   4.036  0.00  0.00    +0.187 C 
ATOM     14  C   UNL     1     -36.384  24.803   2.773  0.00  0.00    +0.225 C 
ATOM     15  C   UNL     1     -36.116  25.745   4.938  0.00  0.00    +0.178 C 
ATOM     16  C   UNL     1     -35.220  26.454   3.943  0.00  0.00    +0.222 C 
BRANCH  16  19
ATOM     17  O   UNL     1     -32.867  26.179   3.699  0.00  0.00    -0.272 OA
ATOM     18  N   UNL     1     -33.701  27.063   5.684  0.00  0.00    -0.301 N 
ATOM     19  C   UNL     1     -33.803  26.548   4.404  0.00  0.00    +0.252 C 
ATOM     20  C   UNL     1     -32.439  27.234   6.369  0.00  0.00    +0.111 C 
ATOM     21  H   UNL     1     -34.527  27.326   6.151  0.00  0.00    +0.150 HD
ENDBRANCH  16  19
BRANCH  13  22
ATOM     22  O   UNL     1     -38.155  26.111   3.690  0.00  0.00    -0.378 OA
ATOM     23  H   UNL     1     -37.781  26.999   3.792  0.00  0.00    +0.211 HD
ENDBRANCH  13  22
BRANCH  15  24
ATOM     24  O   UNL     1     -36.672  26.628   5.892  0.00  0.00    -0.379 OA
ATOM     25  H   UNL     1     -37.556  26.317   6.143  0.00  0.00    +0.211 HD
ENDBRANCH  15  24
ENDBRANCH   1  14
BRANCH  10  26
ATOM     26  C   UNL     1     -34.529  18.152   0.291  0.00  0.00    +0.115 C 
BRANCH  26  27
ATOM     27  C   UNL     1     -33.065  17.809   0.317  0.00  0.00    -0.003 C 
ATOM     28  C   UNL     1     -32.143  18.769   0.714  0.00  0.00    -0.003 C 
ATOM     29  C   UNL     1     -32.652  16.537  -0.056  0.00  0.00    -0.003 C 
ATOM     30  C   UNL     1     -30.785  18.451   0.738  0.00  0.00    -0.000 C 
ATOM     31  C   UNL     1     -31.295  16.218  -0.032  0.00  0.00    -0.000 C 
ATOM     32  C   UNL     1     -30.361  17.175   0.365  0.00  0.00    -0.000 C 
ENDBRANCH  26  27
ENDBRANCH  10  26
TORSDOF 6
ENDMDL
MODEL 4
REMARK VINA RESULT:      -6.8      1.747      2.689
REMARK  Name = 197637
REMARK  6 active torsions:
REMARK  status: ('A' for Active; 'I' for Inactive)
REMARK    1  A    between atoms: N_1  and  C_12
REMARK    2  A    between atoms: C_11  and  O_20
REMARK    3  A    between atoms: C_13  and  O_22
REMARK    4  A    between atoms: C_14  and  C_17
REMARK    5  A    between atoms: N_24  and  C_26
REMARK    6  A    between atoms: C_26  and  C_27
REMARK                            x       y       z     vdW  Elec       q    Type
REMARK                         _______ _______ _______ _____ _____    ______ ____
ROOT
ATOM      1  N   UNL     1     -38.161  23.190   2.114  0.00  0.00    -0.247 N 
ATOM      2  N   UNL     1     -37.324  21.798   0.585  0.00  0.00    -0.242 NA
ATOM      3  N   UNL     1     -36.713  22.663   3.992  0.00  0.00    -0.228 NA
ATOM      4  N   UNL     1     -35.082  20.946   3.401  0.00  0.00    -0.228 NA
ATOM      5  C   UNL     1     -37.139  22.522   2.728  0.00  0.00    +0.152 C 
ATOM      6  C   UNL     1     -38.233  22.719   0.828  0.00  0.00    +0.223 C 
ATOM      7  C   UNL     1     -36.634  21.665   1.763  0.00  0.00    +0.140 C 
ATOM      8  C   UNL     1     -35.565  20.857   2.138  0.00  0.00    +0.146 C 
ATOM      9  C   UNL     1     -35.678  21.830   4.238  0.00  0.00    +0.253 C 
ATOM     10  N   UNL     1     -34.989  19.958   1.223  0.00  0.00    -0.313 N 
ATOM     11  H   UNL     1     -35.359  19.916   0.312  0.00  0.00    +0.149 HD
ENDROOT
BRANCH   1  14
ATOM     12  O   UNL     1     -40.391  24.007   2.294  0.00  0.00    -0.326 OA
ATOM     13  C   UNL     1     -38.643  25.641   2.319  0.00  0.00    +0.187 C 
ATOM     14  C   UNL     1     -39.023  24.215   2.707  0.00  0.00    +0.225 C 
ATOM     15  C   UNL     1     -39.644  25.970   1.230  0.00  0.00    +0.178 C 
ATOM     16  C   UNL     1     -40.873  25.212   1.688  0.00  0.00    +0.222 C 
BRANCH  16  19
ATOM     17  O   UNL     1     -42.708  24.039   0.726  0.00  0.00    -0.272 OA
ATOM     18  N   UNL     1     -41.326  25.303  -0.656  0.00  0.00    -0.301 N 
ATOM     19  C   UNL     1     -41.746  24.784   0.556  0.00  0.00    +0.252 C 
ATOM     20  C   UNL     1     -41.988  25.020  -1.909  0.00  0.00    +0.111 C 
ATOM     21  H   UNL     1     -40.537  25.892  -0.665  0.00  0.00    +0.150 HD
ENDBRANCH  16  19
BRANCH  13  22
ATOM     22  O   UNL     1     -38.855  26.472   3.460  0.00  0.00    -0.378 OA
ATOM     23  H   UNL     1     -38.547  26.013   4.257  0.00  0.00    +0.211 HD
ENDBRANCH  13  22
BRANCH  15  24
ATOM     24  O   UNL     1     -39.875  27.361   1.117  0.00  0.00    -0.379 OA
ATOM     25  H   UNL     1     -40.346  27.674   1.905  0.00  0.00    +0.211 HD
ENDBRANCH  15  24
ENDBRANCH   1  14
BRANCH  10  26
ATOM     26  C   UNL     1     -33.888  19.104   1.555  0.00  0.00    +0.115 C 
BRANCH  26  27
ATOM     27  C   UNL     1     -32.660  19.501   0.782  0.00  0.00    -0.003 C 
ATOM     28  C   UNL     1     -32.637  20.715   0.109  0.00  0.00    -0.003 C 
ATOM     29  C   UNL     1     -31.564  18.649   0.751  0.00  0.00    -0.003 C 
ATOM     30  C   UNL     1     -31.499  21.084  -0.608  0.00  0.00    -0.000 C 
ATOM     31  C   UNL     1     -30.426  19.017   0.034  0.00  0.00    -0.000 C 
ATOM     32  C   UNL     1     -30.393  20.234  -0.645  0.00  0.00    -0.000 C 
ENDBRANCH  26  27
ENDBRANCH  10  26
TORSDOF 6
ENDMDL
MODEL 5
REMARK VINA RESULT:      -6.7      2.488      4.297
REMARK  Name = 197637
REMARK  6 active torsions:
REMARK  status: ('A' for Active; 'I' for Inactive)
REMARK    1  A    between atoms: N_1  and  C_12
REMARK    2  A    between atoms: C_11  and  O_20
REMARK    3  A    between atoms: C_13  and  O_22
REMARK    4  A    between atoms: C_14  and  C_17
REMARK    5  A    between atoms: N_24  and  C_26
REMARK    6  A    between atoms: C_26  and  C_27
REMARK                            x       y       z     vdW  Elec       q    Type
REMARK                         _______ _______ _______ _____ _____    ______ ____
ROOT
ATOM      1  N   UNL     1     -35.807  23.374   2.655  0.00  0.00    -0.247 N 
ATOM      2  N   UNL     1     -35.622  21.235   3.259  0.00  0.00    -0.242 NA
ATOM      3  N   UNL     1     -34.631  23.306   0.529  0.00  0.00    -0.228 NA
ATOM      4  N   UNL     1     -33.822  21.058   0.033  0.00  0.00    -0.228 NA
ATOM      5  C   UNL     1     -35.112  22.755   1.654  0.00  0.00    +0.152 C 
ATOM      6  C   UNL     1     -36.090  22.419   3.596  0.00  0.00    +0.223 C 
ATOM      7  C   UNL     1     -35.009  21.430   2.048  0.00  0.00    +0.140 C 
ATOM      8  C   UNL     1     -34.334  20.569   1.188  0.00  0.00    +0.146 C 
ATOM      9  C   UNL     1     -33.999  22.378  -0.221  0.00  0.00    +0.253 C 
ATOM     10  N   UNL     1     -34.184  19.208   1.507  0.00  0.00    -0.313 N 
ATOM     11  H   UNL     1     -34.568  18.880   2.352  0.00  0.00    +0.149 HD
ENDROOT
BRANCH   1  14
ATOM     12  O   UNL     1     -34.996  25.609   2.795  0.00  0.00    -0.326 OA
ATOM     13  C   UNL     1     -37.054  25.141   3.921  0.00  0.00    +0.187 C 
ATOM     14  C   UNL     1     -36.182  24.788   2.720  0.00  0.00    +0.225 C 
ATOM     15  C   UNL     1     -36.061  25.751   4.889  0.00  0.00    +0.178 C 
ATOM     16  C   UNL     1     -35.091  26.443   3.955  0.00  0.00    +0.222 C 
BRANCH  16  19
ATOM     17  O   UNL     1     -32.728  26.159   3.876  0.00  0.00    -0.272 OA
ATOM     18  N   UNL     1     -33.696  27.044   5.799  0.00  0.00    -0.301 N 
ATOM     19  C   UNL     1     -33.710  26.531   4.514  0.00  0.00    +0.252 C 
ATOM     20  C   UNL     1     -32.486  27.209   6.572  0.00  0.00    +0.111 C 
ATOM     21  H   UNL     1     -34.553  27.308   6.207  0.00  0.00    +0.150 HD
ENDBRANCH  16  19
BRANCH  13  22
ATOM     22  O   UNL     1     -38.004  26.118   3.496  0.00  0.00    -0.378 OA
ATOM     23  H   UNL     1     -37.899  26.279   2.545  0.00  0.00    +0.211 HD
ENDBRANCH  13  22
BRANCH  15  24
ATOM     24  O   UNL     1     -36.677  26.647   5.793  0.00  0.00    -0.379 OA
ATOM     25  H   UNL     1     -37.636  26.503   5.787  0.00  0.00    +0.211 HD
ENDBRANCH  15  24
ENDBRANCH   1  14
BRANCH  10  26
ATOM     26  C   UNL     1     -33.499  18.278   0.659  0.00  0.00    +0.115 C 
BRANCH  26  27
ATOM     27  C   UNL     1     -34.474  17.317   0.036  0.00  0.00    -0.003 C 
ATOM     28  C   UNL     1     -34.120  15.984  -0.119  0.00  0.00    -0.003 C 
ATOM     29  C   UNL     1     -35.718  17.776  -0.379  0.00  0.00    -0.003 C 
ATOM     30  C   UNL     1     -35.024  15.093  -0.698  0.00  0.00    -0.000 C 
ATOM     31  C   UNL     1     -36.623  16.886  -0.958  0.00  0.00    -0.000 C 
ATOM     32  C   UNL     1     -36.276  15.545  -1.117  0.00  0.00    -0.000 C 
ENDBRANCH  26  27
ENDBRANCH  10  26
TORSDOF 6
ENDMDL
MODEL 6
REMARK VINA RESULT:      -6.7      5.137      7.278
REMARK  Name = 197637
REMARK  6 active torsions:
REMARK  status: ('A' for Active; 'I' for Inactive)
REMARK    1  A    between atoms: N_1  and  C_12
REMARK    2  A    between atoms: C_11  and  O_20
REMARK    3  A    between atoms: C_13  and  O_22
REMARK    4  A    between atoms: C_14  and  C_17
REMARK    5  A    between atoms: N_24  and  C_26
REMARK    6  A    between atoms: C_26  and  C_27
REMARK                            x       y       z     vdW  Elec       q    Type
REMARK                         _______ _______ _______ _____ _____    ______ ____
ROOT
ATOM      1  N   UNL     1     -34.959  25.716   4.062  0.00  0.00    -0.247 N 
ATOM      2  N   UNL     1     -33.504  26.812   2.775  0.00  0.00    -0.242 NA
ATOM      3  N   UNL     1     -34.072  26.273   6.255  0.00  0.00    -0.228 NA
ATOM      4  N   UNL     1     -32.102  27.702   6.079  0.00  0.00    -0.228 NA
ATOM      5  C   UNL     1     -34.077  26.319   4.914  0.00  0.00    +0.152 C 
ATOM      6  C   UNL     1     -34.572  26.041   2.789  0.00  0.00    +0.223 C 
ATOM      7  C   UNL     1     -33.185  26.994   4.096  0.00  0.00    +0.140 C 
ATOM      8  C   UNL     1     -32.168  27.705   4.726  0.00  0.00    +0.146 C 
ATOM      9  C   UNL     1     -33.044  26.996   6.750  0.00  0.00    +0.253 C 
ATOM     10  N   UNL     1     -31.219  28.419   3.973  0.00  0.00    -0.313 N 
ATOM     11  H   UNL     1     -31.292  28.405   2.992  0.00  0.00    +0.149 HD
ENDROOT
BRANCH   1  14
ATOM     12  O   UNL     1     -35.678  23.505   4.578  0.00  0.00    -0.326 OA
ATOM     13  C   UNL     1     -37.235  24.895   3.408  0.00  0.00    +0.187 C 
ATOM     14  C   UNL     1     -36.102  24.877   4.430  0.00  0.00    +0.225 C 
ATOM     15  C   UNL     1     -37.018  23.604   2.644  0.00  0.00    +0.178 C 
ATOM     16  C   UNL     1     -36.481  22.685   3.723  0.00  0.00    +0.222 C 
BRANCH  16  19
ATOM     17  O   UNL     1     -35.188  20.692   3.879  0.00  0.00    -0.272 OA
ATOM     18  N   UNL     1     -35.216  21.866   1.869  0.00  0.00    -0.301 N 
ATOM     19  C   UNL     1     -35.570  21.632   3.186  0.00  0.00    +0.252 C 
ATOM     20  C   UNL     1     -34.324  21.006   1.125  0.00  0.00    +0.111 C 
ATOM     21  H   UNL     1     -35.589  22.657   1.417  0.00  0.00    +0.150 HD
ENDBRANCH  16  19
BRANCH  13  22
ATOM     22  O   UNL     1     -38.468  24.851   4.125  0.00  0.00    -0.378 OA
ATOM     23  H   UNL     1     -39.208  24.925   3.502  0.00  0.00    +0.211 HD
ENDBRANCH  13  22
BRANCH  15  24
ATOM     24  O   UNL     1     -38.212  23.119   2.062  0.00  0.00    -0.379 OA
ATOM     25  H   UNL     1     -38.973  23.467   2.551  0.00  0.00    +0.211 HD
ENDBRANCH  15  24
ENDBRANCH   1  14
BRANCH  10  26
ATOM     26  C   UNL     1     -30.152  29.167   4.569  0.00  0.00    +0.115 C 
BRANCH  26  27
ATOM     27  C   UNL     1     -29.035  28.251   4.987  0.00  0.00    -0.003 C 
ATOM     28  C   UNL     1     -28.705  28.139   6.331  0.00  0.00    -0.003 C 
ATOM     29  C   UNL     1     -28.346  27.527   4.022  0.00  0.00    -0.003 C 
ATOM     30  C   UNL     1     -27.669  27.290   6.717  0.00  0.00    -0.000 C 
ATOM     31  C   UNL     1     -27.310  26.677   4.408  0.00  0.00    -0.000 C 
ATOM     32  C   UNL     1     -26.971  26.558   5.756  0.00  0.00    -0.000 C 
ENDBRANCH  26  27
ENDBRANCH  10  26
TORSDOF 6
ENDMDL
MODEL 7
REMARK VINA RESULT:      -6.7      5.754      8.312
REMARK  Name = 197637
REMARK  6 active torsions:
REMARK  status: ('A' for Active; 'I' for Inactive)
REMARK    1  A    between atoms: N_1  and  C_12
REMARK    2  A    between atoms: C_11  and  O_20
REMARK    3  A    between atoms: C_13  and  O_22
REMARK    4  A    between atoms: C_14  and  C_17
REMARK    5  A    between atoms: N_24  and  C_26
REMARK    6  A    between atoms: C_26  and  C_27
REMARK                            x       y       z     vdW  Elec       q    Type
REMARK                         _______ _______ _______ _____ _____    ______ ____
ROOT
ATOM      1  N   UNL     1     -34.895  26.620   4.576  0.00  0.00    -0.247 N 
ATOM      2  N   UNL     1     -32.889  26.596   5.553  0.00  0.00    -0.242 NA
ATOM      3  N   UNL     1     -34.641  28.576   3.159  0.00  0.00    -0.228 NA
ATOM      4  N   UNL     1     -32.433  29.583   3.419  0.00  0.00    -0.228 NA
ATOM      5  C   UNL     1     -34.210  27.686   4.065  0.00  0.00    +0.152 C 
ATOM      6  C   UNL     1     -34.059  25.997   5.466  0.00  0.00    +0.223 C 
ATOM      7  C   UNL     1     -32.970  27.652   4.682  0.00  0.00    +0.140 C 
ATOM      8  C   UNL     1     -32.065  28.649   4.329  0.00  0.00    +0.146 C 
ATOM      9  C   UNL     1     -33.681  29.490   2.898  0.00  0.00    +0.253 C 
ATOM     10  N   UNL     1     -30.783  28.691   4.906  0.00  0.00    -0.313 N 
ATOM     11  H   UNL     1     -30.542  27.999   5.563  0.00  0.00    +0.149 HD
ENDROOT
BRANCH   1  14
ATOM     12  O   UNL     1     -36.515  24.883   4.751  0.00  0.00    -0.326 OA
ATOM     13  C   UNL     1     -36.554  26.191   2.748  0.00  0.00    +0.187 C 
ATOM     14  C   UNL     1     -36.262  26.212   4.245  0.00  0.00    +0.225 C 
ATOM     15  C   UNL     1     -36.436  24.720   2.403  0.00  0.00    +0.178 C 
ATOM     16  C   UNL     1     -36.949  24.057   3.665  0.00  0.00    +0.222 C 
BRANCH  16  19
ATOM     17  O   UNL     1     -36.269  21.872   3.008  0.00  0.00    -0.272 OA
ATOM     18  N   UNL     1     -35.922  22.549   5.208  0.00  0.00    -0.301 N 
ATOM     19  C   UNL     1     -36.344  22.713   3.900  0.00  0.00    +0.252 C 
ATOM     20  C   UNL     1     -35.323  21.329   5.698  0.00  0.00    +0.111 C 
ATOM     21  H   UNL     1     -36.036  23.301   5.834  0.00  0.00    +0.150 HD
ENDBRANCH  16  19
BRANCH  13  22
ATOM     22  O   UNL     1     -37.895  26.643   2.561  0.00  0.00    -0.378 OA
ATOM     23  H   UNL     1     -38.459  25.892   2.319  0.00  0.00    +0.211 HD
ENDBRANCH  13  22
BRANCH  15  24
ATOM     24  O   UNL     1     -37.196  24.376   1.261  0.00  0.00    -0.379 OA
ATOM     25  H   UNL     1     -37.328  23.415   1.239  0.00  0.00    +0.211 HD
ENDBRANCH  15  24
ENDBRANCH   1  14
BRANCH  10  26
ATOM     26  C   UNL     1     -29.812  29.693   4.580  0.00  0.00    +0.115 C 
BRANCH  26  27
ATOM     27  C   UNL     1     -28.914  29.959   5.756  0.00  0.00    -0.003 C 
ATOM     28  C   UNL     1     -29.004  29.154   6.884  0.00  0.00    -0.003 C 
ATOM     29  C   UNL     1     -28.004  31.007   5.701  0.00  0.00    -0.003 C 
ATOM     30  C   UNL     1     -28.171  29.400   7.975  0.00  0.00    -0.000 C 
ATOM     31  C   UNL     1     -27.171  31.254   6.791  0.00  0.00    -0.000 C 
ATOM     32  C   UNL     1     -27.254  30.451   7.929  0.00  0.00    -0.000 C 
ENDBRANCH  26  27
ENDBRANCH  10  26
TORSDOF 6
ENDMDL
MODEL 8
REMARK VINA RESULT:      -6.6      4.957      8.128
REMARK  Name = 197637
REMARK  6 active torsions:
REMARK  status: ('A' for Active; 'I' for Inactive)
REMARK    1  A    between atoms: N_1  and  C_12
REMARK    2  A    between atoms: C_11  and  O_20
REMARK    3  A    between atoms: C_13  and  O_22
REMARK    4  A    between atoms: C_14  and  C_17
REMARK    5  A    between atoms: N_24  and  C_26
REMARK    6  A    between atoms: C_26  and  C_27
REMARK                            x       y       z     vdW  Elec       q    Type
REMARK                         _______ _______ _______ _____ _____    ______ ____
ROOT
ATOM      1  N   UNL     1     -35.211  25.723   2.537  0.00  0.00    -0.247 N 
ATOM      2  N   UNL     1     -33.739  27.399   2.523  0.00  0.00    -0.242 NA
ATOM      3  N   UNL     1     -35.221  25.202   4.911  0.00  0.00    -0.228 NA
ATOM      4  N   UNL     1     -33.706  26.662   6.147  0.00  0.00    -0.228 NA
ATOM      5  C   UNL     1     -34.816  25.893   3.835  0.00  0.00    +0.152 C 
ATOM      6  C   UNL     1     -34.536  26.651   1.788  0.00  0.00    +0.223 C 
ATOM      7  C   UNL     1     -33.905  26.937   3.804  0.00  0.00    +0.140 C 
ATOM      8  C   UNL     1     -33.343  27.317   5.019  0.00  0.00    +0.146 C 
ATOM      9  C   UNL     1     -34.609  25.659   6.025  0.00  0.00    +0.253 C 
ATOM     10  N   UNL     1     -32.410  28.368   5.080  0.00  0.00    -0.313 N 
ATOM     11  H   UNL     1     -32.166  28.828   4.245  0.00  0.00    +0.149 HD
ENDROOT
BRANCH   1  14
ATOM     12  O   UNL     1     -36.509  23.801   3.078  0.00  0.00    -0.326 OA
ATOM     13  C   UNL     1     -35.658  23.929   0.845  0.00  0.00    +0.187 C 
ATOM     14  C   UNL     1     -36.171  24.738   2.033  0.00  0.00    +0.225 C 
ATOM     15  C   UNL     1     -35.233  22.624   1.486  0.00  0.00    +0.178 C 
ATOM     16  C   UNL     1     -36.246  22.475   2.604  0.00  0.00    +0.222 C 
BRANCH  16  19
ATOM     17  O   UNL     1     -35.139  20.638   3.638  0.00  0.00    -0.272 OA
ATOM     18  N   UNL     1     -35.961  22.360   4.973  0.00  0.00    -0.301 N 
ATOM     19  C   UNL     1     -35.711  21.717   3.773  0.00  0.00    +0.252 C 
ATOM     20  C   UNL     1     -35.565  21.821   6.255  0.00  0.00    +0.111 C 
ATOM     21  H   UNL     1     -36.430  23.225   4.953  0.00  0.00    +0.150 HD
ENDBRANCH  16  19
BRANCH  13  22
ATOM     22  O   UNL     1     -36.757  23.717  -0.042  0.00  0.00    -0.378 OA
ATOM     23  H   UNL     1     -37.577  23.640   0.471  0.00  0.00    +0.211 HD
ENDBRANCH  13  22
BRANCH  15  24
ATOM     24  O   UNL     1     -35.269  21.543   0.575  0.00  0.00    -0.379 OA
ATOM     25  H   UNL     1     -34.364  21.309   0.317  0.00  0.00    +0.211 HD
ENDBRANCH  15  24
ENDBRANCH   1  14
BRANCH  10  26
ATOM     26  C   UNL     1     -31.801  28.801   6.303  0.00  0.00    +0.115 C 
BRANCH  26  27
ATOM     27  C   UNL     1     -30.604  29.665   6.017  0.00  0.00    -0.003 C 
ATOM     28  C   UNL     1     -29.389  29.376   6.623  0.00  0.00    -0.003 C 
ATOM     29  C   UNL     1     -30.728  30.743   5.150  0.00  0.00    -0.003 C 
ATOM     30  C   UNL     1     -28.279  30.178   6.359  0.00  0.00    -0.000 C 
ATOM     31  C   UNL     1     -29.619  31.546   4.885  0.00  0.00    -0.000 C 
ATOM     32  C   UNL     1     -28.394  31.263   5.489  0.00  0.00    -0.000 C 
ENDBRANCH  26  27
ENDBRANCH  10  26
TORSDOF 6
ENDMDL
MODEL 9
REMARK VINA RESULT:      -6.6      5.739     10.221
REMARK  Name = 197637
REMARK  6 active torsions:
REMARK  status: ('A' for Active; 'I' for Inactive)
REMARK    1  A    between atoms: N_1  and  C_12
REMARK    2  A    between atoms: C_11  and  O_20
REMARK    3  A    between atoms: C_13  and  O_22
REMARK    4  A    between atoms: C_14  and  C_17
REMARK    5  A    between atoms: N_24  and  C_26
REMARK    6  A    between atoms: C_26  and  C_27
REMARK                            x       y       z     vdW  Elec       q    Type
REMARK                         _______ _______ _______ _____ _____    ______ ____
ROOT
ATOM      1  N   UNL     1     -35.197  27.693   2.685  0.00  0.00    -0.247 N 
ATOM      2  N   UNL     1     -36.556  28.912   1.403  0.00  0.00    -0.242 NA
ATOM      3  N   UNL     1     -33.739  29.446   3.524  0.00  0.00    -0.228 NA
ATOM      4  N   UNL     1     -34.377  31.631   2.643  0.00  0.00    -0.228 NA
ATOM      5  C   UNL     1     -34.767  28.986   2.796  0.00  0.00    +0.152 C 
ATOM      6  C   UNL     1     -36.273  27.701   1.836  0.00  0.00    +0.223 C 
ATOM      7  C   UNL     1     -35.623  29.724   1.995  0.00  0.00    +0.140 C 
ATOM      8  C   UNL     1     -35.399  31.096   1.932  0.00  0.00    +0.146 C 
ATOM      9  C   UNL     1     -33.621  30.785   3.383  0.00  0.00    +0.253 C 
ATOM     10  N   UNL     1     -36.221  31.922   1.145  0.00  0.00    -0.313 N 
ATOM     11  H   UNL     1     -36.957  31.507   0.640  0.00  0.00    +0.149 HD
ENDROOT
BRANCH   1  14
ATOM     12  O   UNL     1     -34.783  25.356   2.498  0.00  0.00    -0.326 OA
ATOM     13  C   UNL     1     -35.259  26.191   4.689  0.00  0.00    +0.187 C 
ATOM     14  C   UNL     1     -34.623  26.517   3.341  0.00  0.00    +0.225 C 
ATOM     15  C   UNL     1     -36.212  25.064   4.346  0.00  0.00    +0.178 C 
ATOM     16  C   UNL     1     -35.466  24.341   3.244  0.00  0.00    +0.222 C 
BRANCH  16  19
ATOM     17  O   UNL     1     -36.274  23.826   1.064  0.00  0.00    -0.272 OA
ATOM     18  N   UNL     1     -37.323  22.875   2.911  0.00  0.00    -0.301 N 
ATOM     19  C   UNL     1     -36.377  23.661   2.277  0.00  0.00    +0.252 C 
ATOM     20  C   UNL     1     -38.337  22.129   2.200  0.00  0.00    +0.111 C 
ATOM     21  H   UNL     1     -37.304  22.821   3.894  0.00  0.00    +0.150 HD
ENDBRANCH  16  19
BRANCH  13  22
ATOM     22  O   UNL     1     -34.224  25.724   5.556  0.00  0.00    -0.378 OA
ATOM     23  H   UNL     1     -33.565  26.425   5.680  0.00  0.00    +0.211 HD
ENDBRANCH  13  22
BRANCH  15  24
ATOM     24  O   UNL     1     -36.478  24.231   5.458  0.00  0.00    -0.379 OA
ATOM     25  H   UNL     1     -35.691  23.702   5.660  0.00  0.00    +0.211 HD
ENDBRANCH  15  24
ENDBRANCH   1  14
BRANCH  10  26
ATOM     26  C   UNL     1     -36.036  33.339   1.044  0.00  0.00    +0.115 C 
BRANCH  26  27
ATOM     27  C   UNL     1     -37.323  34.061   1.334  0.00  0.00    -0.003 C 
ATOM     28  C   UNL     1     -37.317  35.441   1.484  0.00  0.00    -0.003 C 
ATOM     29  C   UNL     1     -38.503  33.337   1.448  0.00  0.00    -0.003 C 
ATOM     30  C   UNL     1     -38.511  36.110   1.754  0.00  0.00    -0.000 C 
ATOM     31  C   UNL     1     -39.698  34.005   1.717  0.00  0.00    -0.000 C 
ATOM     32  C   UNL     1     -39.702  35.392   1.870  0.00  0.00    -0.000 C 
ENDBRANCH  26  27
ENDBRANCH  10  26
TORSDOF 6
ENDMDL
