MODEL 1
REMARK VINA RESULT:      -5.5      0.000      0.000
REMARK  Name = 50312
REMARK  4 active torsions:
REMARK  status: ('A' for Active; 'I' for Inactive)
REMARK    1  A    between atoms: N_3  and  C_16
REMARK    2  A    between atoms: C_14  and  O_18
REMARK    3  A    between atoms: C_17  and  C_20
REMARK    4  A    between atoms: C_20  and  O_21
REMARK                            x       y       z     vdW  Elec       q    Type
REMARK                         _______ _______ _______ _____ _____    ______ ____
ROOT
ATOM      1  I   UNL     1     -37.153  21.313  -0.718  0.00  0.00    -0.037 I 
ATOM      2  O   UNL     1     -35.160  21.562   5.025  0.00  0.00    -0.193 OA
ATOM      3  N   UNL     1     -36.296  22.588   3.300  0.00  0.00    -0.177 N 
ATOM      4  N   UNL     1     -35.309  20.399   3.085  0.00  0.00    -0.306 NA
ATOM      5  N   UNL     1     -35.434  19.178   1.130  0.00  0.00    -0.332 N 
ATOM      6  C   UNL     1     -36.734  22.494   1.986  0.00  0.00    +0.089 C 
ATOM      7  C   UNL     1     -35.565  21.512   3.862  0.00  0.00    +0.276 C 
ATOM      8  C   UNL     1     -36.502  21.432   1.209  0.00  0.00    +0.090 C 
ATOM      9  C   UNL     1     -35.725  20.319   1.845  0.00  0.00    +0.198 C 
ATOM     10  H   UNL     1     -34.924  18.449   1.551  0.00  0.00    +0.145 HD
ATOM     11  H   UNL     1     -35.736  19.092   0.197  0.00  0.00    +0.145 HD
ENDROOT
BRANCH   3  16
ATOM     12  F   UNL     1     -35.020  24.845   2.690  0.00  0.00    -0.230 F 
ATOM     13  O   UNL     1     -37.822  24.331   3.645  0.00  0.00    -0.332 OA
ATOM     14  C   UNL     1     -36.318  26.105   4.158  0.00  0.00    +0.177 C 
ATOM     15  C   UNL     1     -35.525  24.838   3.953  0.00  0.00    +0.237 C 
ATOM     16  C   UNL     1     -36.581  23.756   4.078  0.00  0.00    +0.242 C 
ATOM     17  C   UNL     1     -37.682  25.764   3.567  0.00  0.00    +0.176 C 
BRANCH  14  18
ATOM     18  O   UNL     1     -36.437  26.379   5.550  0.00  0.00    -0.379 OA
ATOM     19  H   UNL     1     -35.564  26.313   5.969  0.00  0.00    +0.211 HD
ENDBRANCH  14  18
BRANCH  17  20
ATOM     20  C   UNL     1     -37.816  26.162   2.104  0.00  0.00    +0.169 C 
BRANCH  20  21
ATOM     21  O   UNL     1     -37.332  27.485   1.947  0.00  0.00    -0.379 OA
ATOM     22  H   UNL     1     -36.490  27.466   1.468  0.00  0.00    +0.211 HD
ENDBRANCH  20  21
ENDBRANCH  17  20
ENDBRANCH   3  16
TORSDOF 4
ENDMDL
MODEL 2
REMARK VINA RESULT:      -5.4      3.584      5.491
REMARK  Name = 50312
REMARK  4 active torsions:
REMARK  status: ('A' for Active; 'I' for Inactive)
REMARK    1  A    between atoms: N_3  and  C_16
REMARK    2  A    between atoms: C_14  and  O_18
REMARK    3  A    between atoms: C_17  and  C_20
REMARK    4  A    between atoms: C_20  and  O_21
REMARK                            x       y       z     vdW  Elec       q    Type
REMARK                         _______ _______ _______ _____ _____    ______ ____
ROOT
ATOM      1  I   UNL     1     -36.669  27.699   0.849  0.00  0.00    -0.037 I 
ATOM      2  O   UNL     1     -32.977  26.430   5.515  0.00  0.00    -0.193 OA
ATOM      3  N   UNL     1     -34.485  25.665   3.947  0.00  0.00    -0.177 N 
ATOM      4  N   UNL     1     -33.832  27.982   4.099  0.00  0.00    -0.306 NA
ATOM      5  N   UNL     1     -34.676  29.596   2.681  0.00  0.00    -0.332 N 
ATOM      6  C   UNL     1     -35.316  25.995   2.885  0.00  0.00    +0.089 C 
ATOM      7  C   UNL     1     -33.725  26.687   4.569  0.00  0.00    +0.276 C 
ATOM      8  C   UNL     1     -35.443  27.236   2.409  0.00  0.00    +0.090 C 
ATOM      9  C   UNL     1     -34.620  28.283   3.097  0.00  0.00    +0.198 C 
ATOM     10  H   UNL     1     -34.134  30.280   3.137  0.00  0.00    +0.145 HD
ATOM     11  H   UNL     1     -35.259  29.849   1.930  0.00  0.00    +0.145 HD
ENDROOT
BRANCH   3  16
ATOM     12  F   UNL     1     -36.461  24.722   5.463  0.00  0.00    -0.230 F 
ATOM     13  O   UNL     1     -34.771  23.419   3.348  0.00  0.00    -0.332 OA
ATOM     14  C   UNL     1     -35.624  22.549   5.394  0.00  0.00    +0.177 C 
ATOM     15  C   UNL     1     -35.308  24.012   5.582  0.00  0.00    +0.237 C 
ATOM     16  C   UNL     1     -34.397  24.312   4.407  0.00  0.00    +0.242 C 
ATOM     17  C   UNL     1     -35.619  22.381   3.878  0.00  0.00    +0.176 C 
BRANCH  14  18
ATOM     18  O   UNL     1     -34.600  21.755   5.983  0.00  0.00    -0.379 OA
ATOM     19  H   UNL     1     -33.958  21.498   5.302  0.00  0.00    +0.211 HD
ENDBRANCH  14  18
BRANCH  17  20
ATOM     20  C   UNL     1     -36.998  22.548   3.254  0.00  0.00    +0.169 C 
BRANCH  20  21
ATOM     21  O   UNL     1     -37.325  21.362   2.551  0.00  0.00    -0.379 OA
ATOM     22  H   UNL     1     -36.574  20.748   2.586  0.00  0.00    +0.211 HD
ENDBRANCH  20  21
ENDBRANCH  17  20
ENDBRANCH   3  16
TORSDOF 4
ENDMDL
MODEL 3
REMARK VINA RESULT:      -5.3      1.396      1.578
REMARK  Name = 50312
REMARK  4 active torsions:
REMARK  status: ('A' for Active; 'I' for Inactive)
REMARK    1  A    between atoms: N_3  and  C_16
REMARK    2  A    between atoms: C_14  and  O_18
REMARK    3  A    between atoms: C_17  and  C_20
REMARK    4  A    between atoms: C_20  and  O_21
REMARK                            x       y       z     vdW  Elec       q    Type
REMARK                         _______ _______ _______ _____ _____    ______ ____
ROOT
ATOM      1  I   UNL     1     -37.083  22.305  -0.011  0.00  0.00    -0.037 I 
ATOM      2  O   UNL     1     -34.899  21.496   5.610  0.00  0.00    -0.193 OA
ATOM      3  N   UNL     1     -35.610  22.962   3.976  0.00  0.00    -0.177 N 
ATOM      4  N   UNL     1     -35.586  20.572   3.656  0.00  0.00    -0.306 NA
ATOM      5  N   UNL     1     -36.275  19.586   1.686  0.00  0.00    -0.332 N 
ATOM      6  C   UNL     1     -36.107  23.105   2.688  0.00  0.00    +0.089 C 
ATOM      7  C   UNL     1     -35.342  21.661   4.471  0.00  0.00    +0.276 C 
ATOM      8  C   UNL     1     -36.352  22.073   1.877  0.00  0.00    +0.090 C 
ATOM      9  C   UNL     1     -36.055  20.717   2.441  0.00  0.00    +0.198 C 
ATOM     10  H   UNL     1     -36.077  18.697   2.061  0.00  0.00    +0.145 HD
ATOM     11  H   UNL     1     -36.627  19.667   0.771  0.00  0.00    +0.145 HD
ENDROOT
BRANCH   3  16
ATOM     12  F   UNL     1     -33.645  24.617   3.273  0.00  0.00    -0.230 F 
ATOM     13  O   UNL     1     -36.342  25.125   4.495  0.00  0.00    -0.332 OA
ATOM     14  C   UNL     1     -34.248  26.192   4.880  0.00  0.00    +0.177 C 
ATOM     15  C   UNL     1     -34.003  24.734   4.580  0.00  0.00    +0.237 C 
ATOM     16  C   UNL     1     -35.371  24.112   4.794  0.00  0.00    +0.242 C 
ATOM     17  C   UNL     1     -35.687  26.407   4.424  0.00  0.00    +0.176 C 
BRANCH  14  18
ATOM     18  O   UNL     1     -34.134  26.421   6.281  0.00  0.00    -0.379 OA
ATOM     19  H   UNL     1     -34.951  26.141   6.722  0.00  0.00    +0.211 HD
ENDBRANCH  14  18
BRANCH  17  20
ATOM     20  C   UNL     1     -35.791  26.899   2.987  0.00  0.00    +0.169 C 
BRANCH  20  21
ATOM     21  O   UNL     1     -35.441  28.271   2.950  0.00  0.00    -0.379 OA
ATOM     22  H   UNL     1     -36.153  28.775   2.526  0.00  0.00    +0.211 HD
ENDBRANCH  20  21
ENDBRANCH  17  20
ENDBRANCH   3  16
TORSDOF 4
ENDMDL
MODEL 4
REMARK VINA RESULT:      -5.1      4.459      6.230
REMARK  Name = 50312
REMARK  4 active torsions:
REMARK  status: ('A' for Active; 'I' for Inactive)
REMARK    1  A    between atoms: N_3  and  C_16
REMARK    2  A    between atoms: C_14  and  O_18
REMARK    3  A    between atoms: C_17  and  C_20
REMARK    4  A    between atoms: C_20  and  O_21
REMARK                            x       y       z     vdW  Elec       q    Type
REMARK                         _______ _______ _______ _____ _____    ______ ____
ROOT
ATOM      1  I   UNL     1     -35.493  29.957   1.421  0.00  0.00    -0.037 I 
ATOM      2  O   UNL     1     -32.171  27.146   5.673  0.00  0.00    -0.193 OA
ATOM      3  N   UNL     1     -33.879  27.029   4.128  0.00  0.00    -0.177 N 
ATOM      4  N   UNL     1     -32.597  29.037   4.496  0.00  0.00    -0.306 NA
ATOM      5  N   UNL     1     -32.994  30.986   3.324  0.00  0.00    -0.332 N 
ATOM      6  C   UNL     1     -34.615  27.705   3.164  0.00  0.00    +0.089 C 
ATOM      7  C   UNL     1     -32.844  27.715   4.811  0.00  0.00    +0.276 C 
ATOM      8  C   UNL     1     -34.401  28.982   2.838  0.00  0.00    +0.090 C 
ATOM      9  C   UNL     1     -33.297  29.668   3.586  0.00  0.00    +0.198 C 
ATOM     10  H   UNL     1     -32.268  31.432   3.817  0.00  0.00    +0.145 HD
ATOM     11  H   UNL     1     -33.504  31.482   2.644  0.00  0.00    +0.145 HD
ENDROOT
BRANCH   3  16
ATOM     12  F   UNL     1     -36.021  26.483   5.613  0.00  0.00    -0.230 F 
ATOM     13  O   UNL     1     -34.779  25.035   3.292  0.00  0.00    -0.332 OA
ATOM     14  C   UNL     1     -35.816  24.189   5.262  0.00  0.00    +0.177 C 
ATOM     15  C   UNL     1     -35.106  25.477   5.600  0.00  0.00    +0.237 C 
ATOM     16  C   UNL     1     -34.161  25.658   4.427  0.00  0.00    +0.242 C 
ATOM     17  C   UNL     1     -35.874  24.211   3.738  0.00  0.00    +0.176 C 
BRANCH  14  18
ATOM     18  O   UNL     1     -35.043  23.081   5.711  0.00  0.00    -0.379 OA
ATOM     19  H   UNL     1     -35.620  22.448   6.167  0.00  0.00    +0.211 HD
ENDBRANCH  14  18
BRANCH  17  20
ATOM     20  C   UNL     1     -37.161  24.820   3.198  0.00  0.00    +0.169 C 
BRANCH  20  21
ATOM     21  O   UNL     1     -38.158  24.739   4.201  0.00  0.00    -0.379 OA
ATOM     22  H   UNL     1     -39.027  24.909   3.807  0.00  0.00    +0.211 HD
ENDBRANCH  20  21
ENDBRANCH  17  20
ENDBRANCH   3  16
TORSDOF 4
ENDMDL
MODEL 5
REMARK VINA RESULT:      -5.1      2.741      3.465
REMARK  Name = 50312
REMARK  4 active torsions:
REMARK  status: ('A' for Active; 'I' for Inactive)
REMARK    1  A    between atoms: N_3  and  C_16
REMARK    2  A    between atoms: C_14  and  O_18
REMARK    3  A    between atoms: C_17  and  C_20
REMARK    4  A    between atoms: C_20  and  O_21
REMARK                            x       y       z     vdW  Elec       q    Type
REMARK                         _______ _______ _______ _____ _____    ______ ____
ROOT
ATOM      1  I   UNL     1     -34.458  20.952   0.558  0.00  0.00    -0.037 I 
ATOM      2  O   UNL     1     -37.421  24.714   4.312  0.00  0.00    -0.193 OA
ATOM      3  N   UNL     1     -35.644  24.372   2.881  0.00  0.00    -0.177 N 
ATOM      4  N   UNL     1     -37.289  22.670   3.338  0.00  0.00    -0.306 NA
ATOM      5  N   UNL     1     -37.197  20.576   2.371  0.00  0.00    -0.332 N 
ATOM      6  C   UNL     1     -34.996  23.485   2.033  0.00  0.00    +0.089 C 
ATOM      7  C   UNL     1     -36.820  23.952   3.550  0.00  0.00    +0.276 C 
ATOM      8  C   UNL     1     -35.424  22.240   1.807  0.00  0.00    +0.090 C 
ATOM      9  C   UNL     1     -36.671  21.839   2.536  0.00  0.00    +0.198 C 
ATOM     10  H   UNL     1     -38.016  20.317   2.852  0.00  0.00    +0.145 HD
ATOM     11  H   UNL     1     -36.752  19.932   1.774  0.00  0.00    +0.145 HD
ENDROOT
BRANCH   3  16
ATOM     12  F   UNL     1     -33.436  24.660   4.343  0.00  0.00    -0.230 F 
ATOM     13  O   UNL     1     -34.418  26.113   1.904  0.00  0.00    -0.332 OA
ATOM     14  C   UNL     1     -33.248  26.921   3.813  0.00  0.00    +0.177 C 
ATOM     15  C   UNL     1     -34.166  25.803   4.242  0.00  0.00    +0.237 C 
ATOM     16  C   UNL     1     -35.131  25.695   3.077  0.00  0.00    +0.242 C 
ATOM     17  C   UNL     1     -33.198  26.771   2.296  0.00  0.00    +0.176 C 
BRANCH  14  18
ATOM     18  O   UNL     1     -33.819  28.176   4.167  0.00  0.00    -0.379 OA
ATOM     19  H   UNL     1     -34.781  28.083   4.247  0.00  0.00    +0.211 HD
ENDBRANCH  14  18
BRANCH  17  20
ATOM     20  C   UNL     1     -32.035  25.910   1.820  0.00  0.00    +0.169 C 
BRANCH  20  21
ATOM     21  O   UNL     1     -30.952  26.072   2.719  0.00  0.00    -0.379 OA
ATOM     22  H   UNL     1     -30.169  25.623   2.365  0.00  0.00    +0.211 HD
ENDBRANCH  20  21
ENDBRANCH  17  20
ENDBRANCH   3  16
TORSDOF 4
ENDMDL
MODEL 6
REMARK VINA RESULT:      -5.1      2.428      3.301
REMARK  Name = 50312
REMARK  4 active torsions:
REMARK  status: ('A' for Active; 'I' for Inactive)
REMARK    1  A    between atoms: N_3  and  C_16
REMARK    2  A    between atoms: C_14  and  O_18
REMARK    3  A    between atoms: C_17  and  C_20
REMARK    4  A    between atoms: C_20  and  O_21
REMARK                            x       y       z     vdW  Elec       q    Type
REMARK                         _______ _______ _______ _____ _____    ______ ____
ROOT
ATOM      1  I   UNL     1     -35.573  20.752   2.381  0.00  0.00    -0.037 I 
ATOM      2  O   UNL     1     -36.162  25.747   5.804  0.00  0.00    -0.193 OA
ATOM      3  N   UNL     1     -36.220  24.793   3.705  0.00  0.00    -0.177 N 
ATOM      4  N   UNL     1     -35.734  23.523   5.696  0.00  0.00    -0.306 NA
ATOM      5  N   UNL     1     -35.293  21.258   5.636  0.00  0.00    -0.332 N 
ATOM      6  C   UNL     1     -36.077  23.631   2.958  0.00  0.00    +0.089 C 
ATOM      7  C   UNL     1     -36.043  24.735   5.110  0.00  0.00    +0.276 C 
ATOM      8  C   UNL     1     -35.779  22.446   3.495  0.00  0.00    +0.090 C 
ATOM      9  C   UNL     1     -35.601  22.432   4.983  0.00  0.00    +0.198 C 
ATOM     10  H   UNL     1     -35.177  21.254   6.614  0.00  0.00    +0.145 HD
ATOM     11  H   UNL     1     -35.188  20.424   5.124  0.00  0.00    +0.145 HD
ENDROOT
BRANCH   3  16
ATOM     12  F   UNL     1     -34.251  26.151   2.534  0.00  0.00    -0.230 F 
ATOM     13  O   UNL     1     -37.136  25.772   1.785  0.00  0.00    -0.332 OA
ATOM     14  C   UNL     1     -35.727  27.680   1.578  0.00  0.00    +0.177 C 
ATOM     15  C   UNL     1     -35.336  26.919   2.821  0.00  0.00    +0.237 C 
ATOM     16  C   UNL     1     -36.543  26.032   3.065  0.00  0.00    +0.242 C 
ATOM     17  C   UNL     1     -36.586  26.681   0.811  0.00  0.00    +0.176 C 
BRANCH  14  18
ATOM     18  O   UNL     1     -36.497  28.823   1.935  0.00  0.00    -0.379 OA
ATOM     19  H   UNL     1     -37.335  28.538   2.331  0.00  0.00    +0.211 HD
ENDBRANCH  14  18
BRANCH  17  20
ATOM     20  C   UNL     1     -35.792  25.857  -0.194  0.00  0.00    +0.169 C 
BRANCH  20  21
ATOM     21  O   UNL     1     -34.678  26.619  -0.626  0.00  0.00    -0.379 OA
ATOM     22  H   UNL     1     -34.988  27.379  -1.143  0.00  0.00    +0.211 HD
ENDBRANCH  20  21
ENDBRANCH  17  20
ENDBRANCH   3  16
TORSDOF 4
ENDMDL
MODEL 7
REMARK VINA RESULT:      -5.0      2.169      2.794
REMARK  Name = 50312
REMARK  4 active torsions:
REMARK  status: ('A' for Active; 'I' for Inactive)
REMARK    1  A    between atoms: N_3  and  C_16
REMARK    2  A    between atoms: C_14  and  O_18
REMARK    3  A    between atoms: C_17  and  C_20
REMARK    4  A    between atoms: C_20  and  O_21
REMARK                            x       y       z     vdW  Elec       q    Type
REMARK                         _______ _______ _______ _____ _____    ______ ____
ROOT
ATOM      1  I   UNL     1     -34.369  20.343   0.953  0.00  0.00    -0.037 I 
ATOM      2  O   UNL     1     -39.340  23.274   2.882  0.00  0.00    -0.193 OA
ATOM      3  N   UNL     1     -37.043  23.241   2.672  0.00  0.00    -0.177 N 
ATOM      4  N   UNL     1     -38.446  21.454   1.866  0.00  0.00    -0.306 NA
ATOM      5  N   UNL     1     -37.583  19.582   0.826  0.00  0.00    -0.332 N 
ATOM      6  C   UNL     1     -35.933  22.541   2.218  0.00  0.00    +0.089 C 
ATOM      7  C   UNL     1     -38.332  22.681   2.490  0.00  0.00    +0.276 C 
ATOM      8  C   UNL     1     -36.011  21.354   1.612  0.00  0.00    +0.090 C 
ATOM      9  C   UNL     1     -37.393  20.800   1.441  0.00  0.00    +0.198 C 
ATOM     10  H   UNL     1     -38.493  19.223   0.717  0.00  0.00    +0.145 HD
ATOM     11  H   UNL     1     -36.809  19.071   0.498  0.00  0.00    +0.145 HD
ENDROOT
BRANCH   3  16
ATOM     12  F   UNL     1     -35.491  23.376   4.832  0.00  0.00    -0.230 F 
ATOM     13  O   UNL     1     -35.949  25.310   2.579  0.00  0.00    -0.332 OA
ATOM     14  C   UNL     1     -35.603  25.702   4.902  0.00  0.00    +0.177 C 
ATOM     15  C   UNL     1     -36.367  24.412   4.735  0.00  0.00    +0.237 C 
ATOM     16  C   UNL     1     -36.888  24.511   3.314  0.00  0.00    +0.242 C 
ATOM     17  C   UNL     1     -35.063  25.973   3.501  0.00  0.00    +0.176 C 
BRANCH  14  18
ATOM     18  O   UNL     1     -36.492  26.741   5.299  0.00  0.00    -0.379 OA
ATOM     19  H   UNL     1     -36.054  27.599   5.192  0.00  0.00    +0.211 HD
ENDBRANCH  14  18
BRANCH  17  20
ATOM     20  C   UNL     1     -33.663  25.414   3.282  0.00  0.00    +0.169 C 
BRANCH  20  21
ATOM     21  O   UNL     1     -32.750  26.151   4.076  0.00  0.00    -0.379 OA
ATOM     22  H   UNL     1     -32.561  25.660   4.891  0.00  0.00    +0.211 HD
ENDBRANCH  20  21
ENDBRANCH  17  20
ENDBRANCH   3  16
TORSDOF 4
ENDMDL
MODEL 8
REMARK VINA RESULT:      -5.0      3.158      5.729
REMARK  Name = 50312
REMARK  4 active torsions:
REMARK  status: ('A' for Active; 'I' for Inactive)
REMARK    1  A    between atoms: N_3  and  C_16
REMARK    2  A    between atoms: C_14  and  O_18
REMARK    3  A    between atoms: C_17  and  C_20
REMARK    4  A    between atoms: C_20  and  O_21
REMARK                            x       y       z     vdW  Elec       q    Type
REMARK                         _______ _______ _______ _____ _____    ______ ____
ROOT
ATOM      1  I   UNL     1     -35.204  23.247   5.595  0.00  0.00    -0.037 I 
ATOM      2  O   UNL     1     -39.036  25.599   1.496  0.00  0.00    -0.193 OA
ATOM      3  N   UNL     1     -37.883  23.756   2.269  0.00  0.00    -0.177 N 
ATOM      4  N   UNL     1     -37.743  25.916   3.332  0.00  0.00    -0.306 NA
ATOM      5  N   UNL     1     -36.441  26.286   5.202  0.00  0.00    -0.332 N 
ATOM      6  C   UNL     1     -37.007  23.257   3.222  0.00  0.00    +0.089 C 
ATOM      7  C   UNL     1     -38.260  25.121   2.327  0.00  0.00    +0.276 C 
ATOM      8  C   UNL     1     -36.490  23.999   4.205  0.00  0.00    +0.090 C 
ATOM      9  C   UNL     1     -36.915  25.436   4.227  0.00  0.00    +0.198 C 
ATOM     10  H   UNL     1     -36.723  27.230   5.212  0.00  0.00    +0.145 HD
ATOM     11  H   UNL     1     -35.819  25.951   5.887  0.00  0.00    +0.145 HD
ENDROOT
BRANCH   3  16
ATOM     12  F   UNL     1     -36.253  23.046   0.286  0.00  0.00    -0.230 F 
ATOM     13  O   UNL     1     -38.433  21.549   1.712  0.00  0.00    -0.332 OA
ATOM     14  C   UNL     1     -37.792  21.526  -0.581  0.00  0.00    +0.177 C 
ATOM     15  C   UNL     1     -37.570  22.912  -0.027  0.00  0.00    +0.237 C 
ATOM     16  C   UNL     1     -38.401  22.904   1.242  0.00  0.00    +0.242 C 
ATOM     17  C   UNL     1     -37.961  20.671   0.671  0.00  0.00    +0.176 C 
BRANCH  14  18
ATOM     18  O   UNL     1     -38.984  21.503  -1.360  0.00  0.00    -0.379 OA
ATOM     19  H   UNL     1     -39.329  20.598  -1.396  0.00  0.00    +0.211 HD
ENDBRANCH  14  18
BRANCH  17  20
ATOM     20  C   UNL     1     -36.656  20.047   1.149  0.00  0.00    +0.169 C 
BRANCH  20  21
ATOM     21  O   UNL     1     -36.780  19.735   2.525  0.00  0.00    -0.379 OA
ATOM     22  H   UNL     1     -36.357  20.429   3.053  0.00  0.00    +0.211 HD
ENDBRANCH  20  21
ENDBRANCH  17  20
ENDBRANCH   3  16
TORSDOF 4
ENDMDL
MODEL 9
REMARK VINA RESULT:      -5.0      3.370      5.039
REMARK  Name = 50312
REMARK  4 active torsions:
REMARK  status: ('A' for Active; 'I' for Inactive)
REMARK    1  A    between atoms: N_3  and  C_16
REMARK    2  A    between atoms: C_14  and  O_18
REMARK    3  A    between atoms: C_17  and  C_20
REMARK    4  A    between atoms: C_20  and  O_21
REMARK                            x       y       z     vdW  Elec       q    Type
REMARK                         _______ _______ _______ _____ _____    ______ ____
ROOT
ATOM      1  I   UNL     1     -32.876  26.990   2.515  0.00  0.00    -0.037 I 
ATOM      2  O   UNL     1     -35.937  23.053   6.000  0.00  0.00    -0.193 OA
ATOM      3  N   UNL     1     -35.126  23.601   3.911  0.00  0.00    -0.177 N 
ATOM      4  N   UNL     1     -34.794  25.005   5.842  0.00  0.00    -0.306 NA
ATOM      5  N   UNL     1     -33.638  27.000   5.731  0.00  0.00    -0.332 N 
ATOM      6  C   UNL     1     -34.423  24.523   3.149  0.00  0.00    +0.089 C 
ATOM      7  C   UNL     1     -35.316  23.850   5.293  0.00  0.00    +0.276 C 
ATOM      8  C   UNL     1     -33.906  25.648   3.650  0.00  0.00    +0.090 C 
ATOM      9  C   UNL     1     -34.132  25.871   5.115  0.00  0.00    +0.198 C 
ATOM     10  H   UNL     1     -33.789  27.142   6.694  0.00  0.00    +0.145 HD
ATOM     11  H   UNL     1     -33.136  27.666   5.208  0.00  0.00    +0.145 HD
ENDROOT
BRANCH   3  16
ATOM     12  F   UNL     1     -37.457  23.767   2.633  0.00  0.00    -0.230 F 
ATOM     13  O   UNL     1     -34.980  22.165   2.067  0.00  0.00    -0.332 OA
ATOM     14  C   UNL     1     -37.277  21.601   1.795  0.00  0.00    +0.177 C 
ATOM     15  C   UNL     1     -37.136  22.497   3.000  0.00  0.00    +0.237 C 
ATOM     16  C   UNL     1     -35.653  22.413   3.309  0.00  0.00    +0.242 C 
ATOM     17  C   UNL     1     -35.946  21.773   1.071  0.00  0.00    +0.176 C 
BRANCH  14  18
ATOM     18  O   UNL     1     -37.440  20.250   2.216  0.00  0.00    -0.379 OA
ATOM     19  H   UNL     1     -37.354  20.199   3.180  0.00  0.00    +0.211 HD
ENDBRANCH  14  18
BRANCH  17  20
ATOM     20  C   UNL     1     -35.981  22.861   0.007  0.00  0.00    +0.169 C 
BRANCH  20  21
ATOM     21  O   UNL     1     -34.706  23.478  -0.054  0.00  0.00    -0.379 OA
ATOM     22  H   UNL     1     -34.536  23.951   0.775  0.00  0.00    +0.211 HD
ENDBRANCH  20  21
ENDBRANCH  17  20
ENDBRANCH   3  16
TORSDOF 4
ENDMDL
