MODEL 1
REMARK VINA RESULT:      -6.7      0.000      0.000
REMARK  Name = 54369
REMARK  4 active torsions:
REMARK  status: ('A' for Active; 'I' for Inactive)
REMARK    1  A    between atoms: C_6  and  C_18
REMARK    2  A    between atoms: C_18  and  C_19
REMARK    3  A    between atoms: C_20  and  O_25
REMARK    4  A    between atoms: C_22  and  O_27
REMARK                            x       y       z     vdW  Elec       q    Type
REMARK                         _______ _______ _______ _____ _____    ______ ____
ROOT
ATOM      1  N   UNL     1     -38.136  25.150   3.525  0.00  0.00    -0.182 NA
ATOM      2  N   UNL     1     -39.614  24.030   2.138  0.00  0.00    -0.273 NA
ATOM      3  N   UNL     1     -39.212  21.761   1.442  0.00  0.00    -0.312 NA
ATOM      4  N   UNL     1     -37.319  20.608   2.138  0.00  0.00    -0.332 N 
ATOM      5  N   UNL     1     -41.123  22.912   0.732  0.00  0.00    -0.283 N 
ATOM      6  C   UNL     1     -36.126  24.078   4.329  0.00  0.00    -0.001 C 
ATOM      7  C   UNL     1     -36.474  22.934   3.635  0.00  0.00    -0.010 C 
ATOM      8  C   UNL     1     -37.661  22.912   2.887  0.00  0.00    +0.115 C 
ATOM      9  C   UNL     1     -36.986  25.152   4.243  0.00  0.00    +0.106 C 
ATOM     10  C   UNL     1     -38.481  24.046   2.850  0.00  0.00    +0.104 C 
ATOM     11  C   UNL     1     -35.528  21.776   3.740  0.00  0.00    +0.032 C 
ATOM     12  C   UNL     1     -38.079  21.799   2.162  0.00  0.00    +0.201 C 
ATOM     13  C   UNL     1     -39.922  22.897   1.473  0.00  0.00    +0.206 C 
ATOM     14  H   UNL     1     -37.633  19.834   1.618  0.00  0.00    +0.145 HD
ATOM     15  H   UNL     1     -36.474  20.554   2.640  0.00  0.00    +0.145 HD
ATOM     16  H   UNL     1     -41.684  23.721   0.720  0.00  0.00    +0.156 HD
ATOM     17  H   UNL     1     -41.399  22.114   0.226  0.00  0.00    +0.156 HD
ENDROOT
BRANCH   6  18
ATOM     18  C   UNL     1     -34.884  24.183   5.145  0.00  0.00    +0.057 C 
BRANCH  18  19
ATOM     19  C   UNL     1     -34.034  25.397   4.820  0.00  0.00    +0.019 C 
ATOM     20  C   UNL     1     -33.620  25.621   3.519  0.00  0.00    +0.135 C 
ATOM     21  C   UNL     1     -33.691  26.256   5.849  0.00  0.00    +0.036 C 
ATOM     22  C   UNL     1     -32.910  27.377   5.568  0.00  0.00    +0.139 C 
ATOM     23  C   UNL     1     -32.839  26.742   3.238  0.00  0.00    +0.040 C 
ATOM     24  C   UNL     1     -32.483  27.619   4.262  0.00  0.00    +0.040 C 
BRANCH  20  25
ATOM     25  O   UNL     1     -33.957  24.773   2.508  0.00  0.00    -0.472 OA
ATOM     26  C   UNL     1     -34.462  25.362   1.310  0.00  0.00    +0.252 C 
ENDBRANCH  20  25
BRANCH  22  27
ATOM     27  O   UNL     1     -32.565  28.234   6.566  0.00  0.00    -0.471 OA
ATOM     28  C   UNL     1     -31.775  29.367   6.206  0.00  0.00    +0.252 C 
ENDBRANCH  22  27
ENDBRANCH  18  19
ENDBRANCH   6  18
TORSDOF 4
ENDMDL
MODEL 2
REMARK VINA RESULT:      -6.6      4.194      6.396
REMARK  Name = 54369
REMARK  4 active torsions:
REMARK  status: ('A' for Active; 'I' for Inactive)
REMARK    1  A    between atoms: C_6  and  C_18
REMARK    2  A    between atoms: C_18  and  C_19
REMARK    3  A    between atoms: C_20  and  O_25
REMARK    4  A    between atoms: C_22  and  O_27
REMARK                            x       y       z     vdW  Elec       q    Type
REMARK                         _______ _______ _______ _____ _____    ______ ____
ROOT
ATOM      1  N   UNL     1     -35.250  24.504   1.236  0.00  0.00    -0.182 NA
ATOM      2  N   UNL     1     -35.796  25.525   3.241  0.00  0.00    -0.273 NA
ATOM      3  N   UNL     1     -36.176  24.242   5.243  0.00  0.00    -0.312 NA
ATOM      4  N   UNL     1     -36.008  21.925   5.235  0.00  0.00    -0.332 N 
ATOM      5  N   UNL     1     -36.349  26.577   5.265  0.00  0.00    -0.283 N 
ATOM      6  C   UNL     1     -35.040  22.103   1.075  0.00  0.00    -0.001 C 
ATOM      7  C   UNL     1     -35.350  22.000   2.419  0.00  0.00    -0.010 C 
ATOM      8  C   UNL     1     -35.608  23.162   3.163  0.00  0.00    +0.115 C 
ATOM      9  C   UNL     1     -35.004  23.370   0.534  0.00  0.00    +0.106 C 
ATOM     10  C   UNL     1     -35.551  24.414   2.537  0.00  0.00    +0.104 C 
ATOM     11  C   UNL     1     -35.385  20.615   2.991  0.00  0.00    +0.032 C 
ATOM     12  C   UNL     1     -35.926  23.139   4.518  0.00  0.00    +0.201 C 
ATOM     13  C   UNL     1     -36.095  25.387   4.550  0.00  0.00    +0.206 C 
ATOM     14  H   UNL     1     -36.235  21.933   6.192  0.00  0.00    +0.145 HD
ATOM     15  H   UNL     1     -35.840  21.070   4.776  0.00  0.00    +0.145 HD
ATOM     16  H   UNL     1     -36.303  27.446   4.805  0.00  0.00    +0.156 HD
ATOM     17  H   UNL     1     -36.573  26.538   6.222  0.00  0.00    +0.156 HD
ENDROOT
BRANCH   6  18
ATOM     18  C   UNL     1     -34.755  20.919   0.218  0.00  0.00    +0.057 C 
BRANCH  18  19
ATOM     19  C   UNL     1     -33.279  20.606   0.070  0.00  0.00    +0.019 C 
ATOM     20  C   UNL     1     -32.790  19.377   0.476  0.00  0.00    +0.135 C 
ATOM     21  C   UNL     1     -32.450  21.573  -0.473  0.00  0.00    +0.036 C 
ATOM     22  C   UNL     1     -31.090  21.302  -0.615  0.00  0.00    +0.139 C 
ATOM     23  C   UNL     1     -31.429  19.106   0.333  0.00  0.00    +0.040 C 
ATOM     24  C   UNL     1     -30.579  20.068  -0.211  0.00  0.00    +0.040 C 
BRANCH  20  25
ATOM     25  O   UNL     1     -33.606  18.427   1.012  0.00  0.00    -0.472 OA
ATOM     26  C   UNL     1     -33.796  17.234   0.253  0.00  0.00    +0.252 C 
ENDBRANCH  20  25
BRANCH  22  27
ATOM     27  O   UNL     1     -30.261  22.239  -1.148  0.00  0.00    -0.471 OA
ATOM     28  C   UNL     1     -28.882  21.892  -1.273  0.00  0.00    +0.252 C 
ENDBRANCH  22  27
ENDBRANCH  18  19
ENDBRANCH   6  18
TORSDOF 4
ENDMDL
MODEL 3
REMARK VINA RESULT:      -6.6      3.602      5.608
REMARK  Name = 54369
REMARK  4 active torsions:
REMARK  status: ('A' for Active; 'I' for Inactive)
REMARK    1  A    between atoms: C_6  and  C_18
REMARK    2  A    between atoms: C_18  and  C_19
REMARK    3  A    between atoms: C_20  and  O_25
REMARK    4  A    between atoms: C_22  and  O_27
REMARK                            x       y       z     vdW  Elec       q    Type
REMARK                         _______ _______ _______ _____ _____    ______ ____
ROOT
ATOM      1  N   UNL     1     -34.931  19.907   2.247  0.00  0.00    -0.182 NA
ATOM      2  N   UNL     1     -33.257  18.484   1.518  0.00  0.00    -0.273 NA
ATOM      3  N   UNL     1     -31.578  19.214  -0.047  0.00  0.00    -0.312 NA
ATOM      4  N   UNL     1     -31.578  21.380  -0.885  0.00  0.00    -0.332 N 
ATOM      5  N   UNL     1     -31.568  17.027   0.789  0.00  0.00    -0.283 N 
ATOM      6  C   UNL     1     -35.058  22.188   1.463  0.00  0.00    -0.001 C 
ATOM      7  C   UNL     1     -33.933  21.970   0.687  0.00  0.00    -0.010 C 
ATOM      8  C   UNL     1     -33.315  20.711   0.702  0.00  0.00    +0.115 C 
ATOM      9  C   UNL     1     -35.514  21.131   2.220  0.00  0.00    +0.106 C 
ATOM     10  C   UNL     1     -33.842  19.687   1.500  0.00  0.00    +0.104 C 
ATOM     11  C   UNL     1     -33.451  23.130  -0.130  0.00  0.00    +0.032 C 
ATOM     12  C   UNL     1     -32.182  20.414  -0.050  0.00  0.00    +0.201 C 
ATOM     13  C   UNL     1     -32.162  18.307   0.749  0.00  0.00    +0.206 C 
ATOM     14  H   UNL     1     -30.778  21.149  -1.409  0.00  0.00    +0.145 HD
ATOM     15  H   UNL     1     -31.961  22.286  -0.945  0.00  0.00    +0.145 HD
ATOM     16  H   UNL     1     -31.955  16.322   1.357  0.00  0.00    +0.156 HD
ATOM     17  H   UNL     1     -30.767  16.839   0.248  0.00  0.00    +0.156 HD
ENDROOT
BRANCH   6  18
ATOM     18  C   UNL     1     -35.772  23.495   1.502  0.00  0.00    +0.057 C 
BRANCH  18  19
ATOM     19  C   UNL     1     -35.617  24.244   2.811  0.00  0.00    +0.019 C 
ATOM     20  C   UNL     1     -36.689  24.344   3.680  0.00  0.00    +0.135 C 
ATOM     21  C   UNL     1     -34.391  24.814   3.104  0.00  0.00    +0.036 C 
ATOM     22  C   UNL     1     -34.231  25.506   4.304  0.00  0.00    +0.139 C 
ATOM     23  C   UNL     1     -36.529  25.036   4.880  0.00  0.00    +0.040 C 
ATOM     24  C   UNL     1     -35.301  25.618   5.192  0.00  0.00    +0.040 C 
BRANCH  20  25
ATOM     25  O   UNL     1     -37.896  23.783   3.389  0.00  0.00    -0.472 OA
ATOM     26  C   UNL     1     -39.007  24.669   3.259  0.00  0.00    +0.252 C 
ENDBRANCH  20  25
BRANCH  22  27
ATOM     27  O   UNL     1     -33.032  26.072   4.609  0.00  0.00    -0.471 OA
ATOM     28  C   UNL     1     -32.923  27.487   4.457  0.00  0.00    +0.252 C 
ENDBRANCH  22  27
ENDBRANCH  18  19
ENDBRANCH   6  18
TORSDOF 4
ENDMDL
MODEL 4
REMARK VINA RESULT:      -6.5      4.709      7.002
REMARK  Name = 54369
REMARK  4 active torsions:
REMARK  status: ('A' for Active; 'I' for Inactive)
REMARK    1  A    between atoms: C_6  and  C_18
REMARK    2  A    between atoms: C_18  and  C_19
REMARK    3  A    between atoms: C_20  and  O_25
REMARK    4  A    between atoms: C_22  and  O_27
REMARK                            x       y       z     vdW  Elec       q    Type
REMARK                         _______ _______ _______ _____ _____    ______ ____
ROOT
ATOM      1  N   UNL     1     -33.595  18.738   1.549  0.00  0.00    -0.182 NA
ATOM      2  N   UNL     1     -31.625  17.600   1.121  0.00  0.00    -0.273 NA
ATOM      3  N   UNL     1     -29.842  18.604  -0.148  0.00  0.00    -0.312 NA
ATOM      4  N   UNL     1     -30.036  20.759  -0.994  0.00  0.00    -0.332 N 
ATOM      5  N   UNL     1     -29.635  16.431   0.697  0.00  0.00    -0.283 N 
ATOM      6  C   UNL     1     -33.939  20.986   0.734  0.00  0.00    -0.001 C 
ATOM      7  C   UNL     1     -32.681  20.955   0.159  0.00  0.00    -0.010 C 
ATOM      8  C   UNL     1     -31.888  19.805   0.288  0.00  0.00    +0.115 C 
ATOM      9  C   UNL     1     -34.347  19.859   1.414  0.00  0.00    +0.106 C 
ATOM     10  C   UNL     1     -32.377  18.700   0.995  0.00  0.00    +0.104 C 
ATOM     11  C   UNL     1     -32.254  22.189  -0.576  0.00  0.00    +0.032 C 
ATOM     12  C   UNL     1     -30.614  19.698  -0.262  0.00  0.00    +0.201 C 
ATOM     13  C   UNL     1     -30.404  17.605   0.547  0.00  0.00    +0.206 C 
ATOM     14  H   UNL     1     -29.133  20.662  -1.374  0.00  0.00    +0.145 HD
ATOM     15  H   UNL     1     -30.537  21.597  -1.124  0.00  0.00    +0.145 HD
ATOM     16  H   UNL     1     -29.998  15.665   1.199  0.00  0.00    +0.156 HD
ATOM     17  H   UNL     1     -28.736  16.376   0.299  0.00  0.00    +0.156 HD
ENDROOT
BRANCH   6  18
ATOM     18  C   UNL     1     -34.842  22.168   0.642  0.00  0.00    +0.057 C 
BRANCH  18  19
ATOM     19  C   UNL     1     -34.907  22.994   1.912  0.00  0.00    +0.019 C 
ATOM     20  C   UNL     1     -34.340  24.256   1.944  0.00  0.00    +0.135 C 
ATOM     21  C   UNL     1     -35.539  22.454   3.018  0.00  0.00    +0.036 C 
ATOM     22  C   UNL     1     -35.608  23.201   4.195  0.00  0.00    +0.139 C 
ATOM     23  C   UNL     1     -34.409  25.002   3.120  0.00  0.00    +0.040 C 
ATOM     24  C   UNL     1     -35.042  24.475   4.245  0.00  0.00    +0.040 C 
BRANCH  20  25
ATOM     25  O   UNL     1     -33.717  24.785   0.854  0.00  0.00    -0.472 OA
ATOM     26  C   UNL     1     -34.264  25.988   0.316  0.00  0.00    +0.252 C 
ENDBRANCH  20  25
BRANCH  22  27
ATOM     27  O   UNL     1     -36.226  22.688   5.292  0.00  0.00    -0.471 OA
ATOM     28  C   UNL     1     -35.391  22.195   6.338  0.00  0.00    +0.252 C 
ENDBRANCH  22  27
ENDBRANCH  18  19
ENDBRANCH   6  18
TORSDOF 4
ENDMDL
MODEL 5
REMARK VINA RESULT:      -6.4      4.351      7.429
REMARK  Name = 54369
REMARK  4 active torsions:
REMARK  status: ('A' for Active; 'I' for Inactive)
REMARK    1  A    between atoms: C_6  and  C_18
REMARK    2  A    between atoms: C_18  and  C_19
REMARK    3  A    between atoms: C_20  and  O_25
REMARK    4  A    between atoms: C_22  and  O_27
REMARK                            x       y       z     vdW  Elec       q    Type
REMARK                         _______ _______ _______ _____ _____    ______ ____
ROOT
ATOM      1  N   UNL     1     -33.303  26.353   6.156  0.00  0.00    -0.182 NA
ATOM      2  N   UNL     1     -31.677  27.994   5.998  0.00  0.00    -0.273 NA
ATOM      3  N   UNL     1     -31.541  29.452   4.086  0.00  0.00    -0.312 NA
ATOM      4  N   UNL     1     -33.042  29.263   2.323  0.00  0.00    -0.332 N 
ATOM      5  N   UNL     1     -30.021  29.651   5.856  0.00  0.00    -0.283 N 
ATOM      6  C   UNL     1     -34.932  26.040   4.400  0.00  0.00    -0.001 C 
ATOM      7  C   UNL     1     -34.350  27.077   3.694  0.00  0.00    -0.010 C 
ATOM      8  C   UNL     1     -33.242  27.747   4.233  0.00  0.00    +0.115 C 
ATOM      9  C   UNL     1     -34.373  25.718   5.618  0.00  0.00    +0.106 C 
ATOM     10  C   UNL     1     -32.734  27.359   5.479  0.00  0.00    +0.104 C 
ATOM     11  C   UNL     1     -34.970  27.413   2.371  0.00  0.00    +0.032 C 
ATOM     12  C   UNL     1     -32.603  28.800   3.584  0.00  0.00    +0.201 C 
ATOM     13  C   UNL     1     -31.135  29.002   5.282  0.00  0.00    +0.206 C 
ATOM     14  H   UNL     1     -32.575  30.008   1.882  0.00  0.00    +0.145 HD
ATOM     15  H   UNL     1     -33.815  28.837   1.885  0.00  0.00    +0.145 HD
ATOM     16  H   UNL     1     -29.681  29.362   6.733  0.00  0.00    +0.156 HD
ATOM     17  H   UNL     1     -29.584  30.393   5.379  0.00  0.00    +0.156 HD
ENDROOT
BRANCH   6  18
ATOM     18  C   UNL     1     -36.109  25.279   3.896  0.00  0.00    +0.057 C 
BRANCH  18  19
ATOM     19  C   UNL     1     -35.763  23.923   3.313  0.00  0.00    +0.019 C 
ATOM     20  C   UNL     1     -35.870  22.787   4.095  0.00  0.00    +0.135 C 
ATOM     21  C   UNL     1     -35.342  23.859   1.996  0.00  0.00    +0.036 C 
ATOM     22  C   UNL     1     -35.020  22.620   1.443  0.00  0.00    +0.139 C 
ATOM     23  C   UNL     1     -35.547  21.548   3.542  0.00  0.00    +0.040 C 
ATOM     24  C   UNL     1     -35.121  21.464   2.217  0.00  0.00    +0.040 C 
BRANCH  20  25
ATOM     25  O   UNL     1     -36.283  22.851   5.392  0.00  0.00    -0.472 OA
ATOM     26  C   UNL     1     -35.520  22.120   6.351  0.00  0.00    +0.252 C 
ENDBRANCH  20  25
BRANCH  22  27
ATOM     27  O   UNL     1     -34.606  22.538   0.150  0.00  0.00    -0.471 OA
ATOM     28  C   UNL     1     -33.505  21.674  -0.127  0.00  0.00    +0.252 C 
ENDBRANCH  22  27
ENDBRANCH  18  19
ENDBRANCH   6  18
TORSDOF 4
ENDMDL
MODEL 6
REMARK VINA RESULT:      -6.4      1.570      2.792
REMARK  Name = 54369
REMARK  4 active torsions:
REMARK  status: ('A' for Active; 'I' for Inactive)
REMARK    1  A    between atoms: C_6  and  C_18
REMARK    2  A    between atoms: C_18  and  C_19
REMARK    3  A    between atoms: C_20  and  O_25
REMARK    4  A    between atoms: C_22  and  O_27
REMARK                            x       y       z     vdW  Elec       q    Type
REMARK                         _______ _______ _______ _____ _____    ______ ____
ROOT
ATOM      1  N   UNL     1     -35.178  21.825   3.882  0.00  0.00    -0.182 NA
ATOM      2  N   UNL     1     -35.906  20.233   2.367  0.00  0.00    -0.273 NA
ATOM      3  N   UNL     1     -37.838  20.608   0.978  0.00  0.00    -0.312 NA
ATOM      4  N   UNL     1     -39.046  22.588   1.111  0.00  0.00    -0.332 N 
ATOM      5  N   UNL     1     -36.630  18.607   0.837  0.00  0.00    -0.283 N 
ATOM      6  C   UNL     1     -36.334  23.932   4.129  0.00  0.00    -0.001 C 
ATOM      7  C   UNL     1     -37.234  23.536   3.156  0.00  0.00    -0.010 C 
ATOM      8  C   UNL     1     -37.094  22.278   2.552  0.00  0.00    +0.115 C 
ATOM      9  C   UNL     1     -35.330  23.045   4.454  0.00  0.00    +0.106 C 
ATOM     10  C   UNL     1     -36.045  21.434   2.939  0.00  0.00    +0.104 C 
ATOM     11  C   UNL     1     -38.319  24.513   2.815  0.00  0.00    +0.032 C 
ATOM     12  C   UNL     1     -37.959  21.809   1.567  0.00  0.00    +0.201 C 
ATOM     13  C   UNL     1     -36.803  19.880   1.422  0.00  0.00    +0.206 C 
ATOM     14  H   UNL     1     -39.645  22.236   0.414  0.00  0.00    +0.145 HD
ATOM     15  H   UNL     1     -39.205  23.482   1.492  0.00  0.00    +0.145 HD
ATOM     16  H   UNL     1     -35.886  18.030   1.125  0.00  0.00    +0.156 HD
ATOM     17  H   UNL     1     -37.254  18.296   0.142  0.00  0.00    +0.156 HD
ENDROOT
BRANCH   6  18
ATOM     18  C   UNL     1     -36.415  25.250   4.819  0.00  0.00    +0.057 C 
BRANCH  18  19
ATOM     19  C   UNL     1     -35.192  26.125   4.621  0.00  0.00    +0.019 C 
ATOM     20  C   UNL     1     -35.001  26.782   3.419  0.00  0.00    +0.135 C 
ATOM     21  C   UNL     1     -34.290  26.241   5.664  0.00  0.00    +0.036 C 
ATOM     22  C   UNL     1     -33.159  27.042   5.499  0.00  0.00    +0.139 C 
ATOM     23  C   UNL     1     -33.871  27.583   3.255  0.00  0.00    +0.040 C 
ATOM     24  C   UNL     1     -32.950  27.712   4.294  0.00  0.00    +0.040 C 
BRANCH  20  25
ATOM     25  O   UNL     1     -35.890  26.665   2.394  0.00  0.00    -0.472 OA
ATOM     26  C   UNL     1     -36.331  27.875   1.778  0.00  0.00    +0.252 C 
ENDBRANCH  20  25
BRANCH  22  27
ATOM     27  O   UNL     1     -32.262  27.170   6.513  0.00  0.00    -0.471 OA
ATOM     28  C   UNL     1     -31.351  28.265   6.440  0.00  0.00    +0.252 C 
ENDBRANCH  22  27
ENDBRANCH  18  19
ENDBRANCH   6  18
TORSDOF 4
ENDMDL
MODEL 7
REMARK VINA RESULT:      -6.4      3.659      7.106
REMARK  Name = 54369
REMARK  4 active torsions:
REMARK  status: ('A' for Active; 'I' for Inactive)
REMARK    1  A    between atoms: C_6  and  C_18
REMARK    2  A    between atoms: C_18  and  C_19
REMARK    3  A    between atoms: C_20  and  O_25
REMARK    4  A    between atoms: C_22  and  O_27
REMARK                            x       y       z     vdW  Elec       q    Type
REMARK                         _______ _______ _______ _____ _____    ______ ____
ROOT
ATOM      1  N   UNL     1     -34.467  24.852   1.619  0.00  0.00    -0.182 NA
ATOM      2  N   UNL     1     -33.671  26.959   2.157  0.00  0.00    -0.273 NA
ATOM      3  N   UNL     1     -33.479  27.684   4.446  0.00  0.00    -0.312 NA
ATOM      4  N   UNL     1     -34.088  26.292   6.202  0.00  0.00    -0.332 N 
ATOM      5  N   UNL     1     -32.863  29.098   2.684  0.00  0.00    -0.283 N 
ATOM      6  C   UNL     1     -35.137  23.296   3.340  0.00  0.00    -0.001 C 
ATOM      7  C   UNL     1     -34.810  24.236   4.299  0.00  0.00    -0.010 C 
ATOM      8  C   UNL     1     -34.310  25.486   3.903  0.00  0.00    +0.115 C 
ATOM      9  C   UNL     1     -34.948  23.650   2.022  0.00  0.00    +0.106 C 
ATOM     10  C   UNL     1     -34.147  25.769   2.541  0.00  0.00    +0.104 C 
ATOM     11  C   UNL     1     -35.023  23.834   5.728  0.00  0.00    +0.032 C 
ATOM     12  C   UNL     1     -33.959  26.484   4.809  0.00  0.00    +0.201 C 
ATOM     13  C   UNL     1     -33.362  27.852   3.120  0.00  0.00    +0.206 C 
ATOM     14  H   UNL     1     -33.834  27.011   6.824  0.00  0.00    +0.145 HD
ATOM     15  H   UNL     1     -34.434  25.438   6.551  0.00  0.00    +0.145 HD
ATOM     16  H   UNL     1     -32.756  29.276   1.721  0.00  0.00    +0.156 HD
ATOM     17  H   UNL     1     -32.621  29.790   3.342  0.00  0.00    +0.156 HD
ENDROOT
BRANCH   6  18
ATOM     18  C   UNL     1     -35.675  21.948   3.678  0.00  0.00    +0.057 C 
BRANCH  18  19
ATOM     19  C   UNL     1     -35.891  21.051   2.475  0.00  0.00    +0.019 C 
ATOM     20  C   UNL     1     -37.124  21.022   1.849  0.00  0.00    +0.135 C 
ATOM     21  C   UNL     1     -34.834  20.274   2.033  0.00  0.00    +0.036 C 
ATOM     22  C   UNL     1     -35.016  19.443   0.928  0.00  0.00    +0.139 C 
ATOM     23  C   UNL     1     -37.306  20.190   0.744  0.00  0.00    +0.040 C 
ATOM     24  C   UNL     1     -36.253  19.401   0.284  0.00  0.00    +0.040 C 
BRANCH  20  25
ATOM     25  O   UNL     1     -38.164  21.785   2.287  0.00  0.00    -0.472 OA
ATOM     26  C   UNL     1     -39.427  21.584   1.654  0.00  0.00    +0.252 C 
ENDBRANCH  20  25
BRANCH  22  27
ATOM     27  O   UNL     1     -33.988  18.674   0.478  0.00  0.00    -0.471 OA
ATOM     28  C   UNL     1     -32.935  18.393   1.398  0.00  0.00    +0.252 C 
ENDBRANCH  22  27
ENDBRANCH  18  19
ENDBRANCH   6  18
TORSDOF 4
ENDMDL
MODEL 8
REMARK VINA RESULT:      -6.3      2.854      4.018
REMARK  Name = 54369
REMARK  4 active torsions:
REMARK  status: ('A' for Active; 'I' for Inactive)
REMARK    1  A    between atoms: C_6  and  C_18
REMARK    2  A    between atoms: C_18  and  C_19
REMARK    3  A    between atoms: C_20  and  O_25
REMARK    4  A    between atoms: C_22  and  O_27
REMARK                            x       y       z     vdW  Elec       q    Type
REMARK                         _______ _______ _______ _____ _____    ______ ____
ROOT
ATOM      1  N   UNL     1     -34.842  24.101   1.348  0.00  0.00    -0.182 NA
ATOM      2  N   UNL     1     -34.958  21.791   1.456  0.00  0.00    -0.273 NA
ATOM      3  N   UNL     1     -35.449  20.651   3.519  0.00  0.00    -0.312 NA
ATOM      4  N   UNL     1     -35.825  21.831   5.484  0.00  0.00    -0.332 N 
ATOM      5  N   UNL     1     -35.071  19.449   1.546  0.00  0.00    -0.283 N 
ATOM      6  C   UNL     1     -35.211  25.461   3.310  0.00  0.00    -0.001 C 
ATOM      7  C   UNL     1     -35.416  24.311   4.051  0.00  0.00    -0.010 C 
ATOM      8  C   UNL     1     -35.332  23.058   3.426  0.00  0.00    +0.115 C 
ATOM      9  C   UNL     1     -34.928  25.302   1.971  0.00  0.00    +0.106 C 
ATOM     10  C   UNL     1     -35.040  22.983   2.058  0.00  0.00    +0.104 C 
ATOM     11  C   UNL     1     -35.722  24.501   5.506  0.00  0.00    +0.032 C 
ATOM     12  C   UNL     1     -35.526  21.858   4.103  0.00  0.00    +0.201 C 
ATOM     13  C   UNL     1     -35.165  20.691   2.209  0.00  0.00    +0.206 C 
ATOM     14  H   UNL     1     -35.957  20.971   5.943  0.00  0.00    +0.145 HD
ATOM     15  H   UNL     1     -35.898  22.675   5.987  0.00  0.00    +0.145 HD
ATOM     16  H   UNL     1     -34.864  19.419   0.583  0.00  0.00    +0.156 HD
ATOM     17  H   UNL     1     -35.211  18.612   2.045  0.00  0.00    +0.156 HD
ENDROOT
BRANCH   6  18
ATOM     18  C   UNL     1     -35.281  26.827   3.900  0.00  0.00    +0.057 C 
BRANCH  18  19
ATOM     19  C   UNL     1     -34.035  27.661   3.675  0.00  0.00    +0.019 C 
ATOM     20  C   UNL     1     -32.932  27.487   4.492  0.00  0.00    +0.135 C 
ATOM     21  C   UNL     1     -34.037  28.585   2.646  0.00  0.00    +0.036 C 
ATOM     22  C   UNL     1     -32.899  29.360   2.425  0.00  0.00    +0.139 C 
ATOM     23  C   UNL     1     -31.794  28.262   4.272  0.00  0.00    +0.040 C 
ATOM     24  C   UNL     1     -31.777  29.199   3.239  0.00  0.00    +0.040 C 
BRANCH  20  25
ATOM     25  O   UNL     1     -32.933  26.577   5.506  0.00  0.00    -0.472 OA
ATOM     26  C   UNL     1     -32.774  27.084   6.831  0.00  0.00    +0.252 C 
ENDBRANCH  20  25
BRANCH  22  27
ATOM     27  O   UNL     1     -32.881  30.273   1.417  0.00  0.00    -0.471 OA
ATOM     28  C   UNL     1     -34.121  30.548   0.767  0.00  0.00    +0.252 C 
ENDBRANCH  22  27
ENDBRANCH  18  19
ENDBRANCH   6  18
TORSDOF 4
ENDMDL
MODEL 9
REMARK VINA RESULT:      -6.3      2.887      3.632
REMARK  Name = 54369
REMARK  4 active torsions:
REMARK  status: ('A' for Active; 'I' for Inactive)
REMARK    1  A    between atoms: C_6  and  C_18
REMARK    2  A    between atoms: C_18  and  C_19
REMARK    3  A    between atoms: C_20  and  O_25
REMARK    4  A    between atoms: C_22  and  O_27
REMARK                            x       y       z     vdW  Elec       q    Type
REMARK                         _______ _______ _______ _____ _____    ______ ____
ROOT
ATOM      1  N   UNL     1     -35.000  24.009   1.134  0.00  0.00    -0.182 NA
ATOM      2  N   UNL     1     -34.963  21.699   1.288  0.00  0.00    -0.273 NA
ATOM      3  N   UNL     1     -35.372  20.571   3.377  0.00  0.00    -0.312 NA
ATOM      4  N   UNL     1     -35.818  21.764   5.319  0.00  0.00    -0.332 N 
ATOM      5  N   UNL     1     -34.921  19.356   1.426  0.00  0.00    -0.283 N 
ATOM      6  C   UNL     1     -35.452  25.380   3.070  0.00  0.00    -0.001 C 
ATOM      7  C   UNL     1     -35.579  24.235   3.835  0.00  0.00    -0.010 C 
ATOM      8  C   UNL     1     -35.414  22.978   3.234  0.00  0.00    +0.115 C 
ATOM      9  C   UNL     1     -35.163  25.214   1.732  0.00  0.00    +0.106 C 
ATOM     10  C   UNL     1     -35.122  22.895   1.867  0.00  0.00    +0.104 C 
ATOM     11  C   UNL     1     -35.892  24.435   5.287  0.00  0.00    +0.032 C 
ATOM     12  C   UNL     1     -35.526  21.782   3.937  0.00  0.00    +0.201 C 
ATOM     13  C   UNL     1     -35.094  20.603   2.065  0.00  0.00    +0.206 C 
ATOM     14  H   UNL     1     -35.893  20.907   5.796  0.00  0.00    +0.145 HD
ATOM     15  H   UNL     1     -35.946  22.611   5.805  0.00  0.00    +0.145 HD
ATOM     16  H   UNL     1     -34.716  19.321   0.464  0.00  0.00    +0.156 HD
ATOM     17  H   UNL     1     -35.004  18.522   1.943  0.00  0.00    +0.156 HD
ENDROOT
BRANCH   6  18
ATOM     18  C   UNL     1     -35.611  26.751   3.632  0.00  0.00    +0.057 C 
BRANCH  18  19
ATOM     19  C   UNL     1     -34.377  27.621   3.494  0.00  0.00    +0.019 C 
ATOM     20  C   UNL     1     -34.404  28.731   2.668  0.00  0.00    +0.135 C 
ATOM     21  C   UNL     1     -33.242  27.275   4.206  0.00  0.00    +0.036 C 
ATOM     22  C   UNL     1     -32.098  28.064   4.090  0.00  0.00    +0.139 C 
ATOM     23  C   UNL     1     -33.260  29.520   2.552  0.00  0.00    +0.040 C 
ATOM     24  C   UNL     1     -32.107  29.187   3.262  0.00  0.00    +0.040 C 
BRANCH  20  25
ATOM     25  O   UNL     1     -35.521  29.070   1.966  0.00  0.00    -0.472 OA
ATOM     26  C   UNL     1     -35.851  30.457   1.903  0.00  0.00    +0.252 C 
ENDBRANCH  20  25
BRANCH  22  27
ATOM     27  O   UNL     1     -30.974  27.740   4.784  0.00  0.00    -0.471 OA
ATOM     28  C   UNL     1     -30.686  28.508   5.951  0.00  0.00    +0.252 C 
ENDBRANCH  22  27
ENDBRANCH  18  19
ENDBRANCH   6  18
TORSDOF 4
ENDMDL
