MODEL 1
REMARK VINA RESULT:      -6.1      0.000      0.000
REMARK  Name = 53694666
REMARK  5 active torsions:
REMARK  status: ('A' for Active; 'I' for Inactive)
REMARK    1  A    between atoms: C_2  and  N_7
REMARK    2  A    between atoms: C_3  and  O_16
REMARK    3  A    between atoms: C_4  and  O_18
REMARK    4  A    between atoms: C_5  and  N_20
REMARK    5  A    between atoms: N_20  and  O_22
REMARK                            x       y       z     vdW  Elec       q    Type
REMARK                         _______ _______ _______ _____ _____    ______ ____
ROOT
ATOM      1  O   UNL     1     -36.188  24.363   5.330  0.00  0.00    -0.317 OA
ATOM      2  C   UNL     1     -34.939  23.978   4.731  0.00  0.00    +0.233 C 
ATOM      3  C   UNL     1     -34.442  25.183   3.948  0.00  0.00    +0.189 C 
ATOM      4  C   UNL     1     -35.007  26.331   4.758  0.00  0.00    +0.186 C 
ATOM      5  C   UNL     1     -36.371  25.789   5.172  0.00  0.00    +0.226 C 
ENDROOT
BRANCH   2   7
ATOM      6  O   UNL     1     -34.969  21.308   5.618  0.00  0.00    -0.193 OA
ATOM      7  N   UNL     1     -35.155  22.828   3.899  0.00  0.00    -0.201 N 
ATOM      8  N   UNL     1     -35.513  20.487   3.572  0.00  0.00    -0.311 NA
ATOM      9  N   UNL     1     -35.718  19.605   1.407  0.00  0.00    -0.336 N 
ATOM     10  C   UNL     1     -35.493  23.057   2.505  0.00  0.00    +0.115 C 
ATOM     11  C   UNL     1     -34.955  21.921   1.665  0.00  0.00    +0.098 C 
ATOM     12  C   UNL     1     -35.194  21.529   4.426  0.00  0.00    +0.271 C 
ATOM     13  C   UNL     1     -35.424  20.624   2.279  0.00  0.00    +0.170 C 
ATOM     14  H   UNL     1     -36.028  18.737   1.752  0.00  0.00    +0.144 HD
ATOM     15  H   UNL     1     -35.618  19.743   0.438  0.00  0.00    +0.144 HD
ENDBRANCH   2   7
BRANCH   3  16
ATOM     16  O   UNL     1     -33.032  25.208   3.862  0.00  0.00    -0.378 OA
ATOM     17  H   UNL     1     -32.745  26.066   3.515  0.00  0.00    +0.211 HD
ENDBRANCH   3  16
BRANCH   4  18
ATOM     18  O   UNL     1     -34.237  26.538   5.942  0.00  0.00    -0.378 OA
ATOM     19  H   UNL     1     -34.653  27.226   6.483  0.00  0.00    +0.211 HD
ENDBRANCH   4  18
BRANCH   5  20
ATOM     20  N   UNL     1     -37.407  26.077   4.184  0.00  0.00    -0.166 NA
ATOM     21  H   UNL     1     -37.937  26.906   4.454  0.00  0.00    +0.157 HD
BRANCH  20  22
ATOM     22  O   UNL     1     -38.266  24.908   4.172  0.00  0.00    -0.312 OA
ATOM     23  H   UNL     1     -39.194  25.188   4.195  0.00  0.00    +0.236 HD
ENDBRANCH  20  22
ENDBRANCH   5  20
TORSDOF 5
ENDMDL
MODEL 2
REMARK VINA RESULT:      -5.8      2.791      4.419
REMARK  Name = 53694666
REMARK  5 active torsions:
REMARK  status: ('A' for Active; 'I' for Inactive)
REMARK    1  A    between atoms: C_2  and  N_7
REMARK    2  A    between atoms: C_3  and  O_16
REMARK    3  A    between atoms: C_4  and  O_18
REMARK    4  A    between atoms: C_5  and  N_20
REMARK    5  A    between atoms: N_20  and  O_22
REMARK                            x       y       z     vdW  Elec       q    Type
REMARK                         _______ _______ _______ _____ _____    ______ ____
ROOT
ATOM      1  O   UNL     1     -35.672  23.334   3.609  0.00  0.00    -0.317 OA
ATOM      2  C   UNL     1     -36.327  24.612   3.516  0.00  0.00    +0.233 C 
ATOM      3  C   UNL     1     -36.496  25.117   4.940  0.00  0.00    +0.189 C 
ATOM      4  C   UNL     1     -35.296  24.503   5.630  0.00  0.00    +0.186 C 
ATOM      5  C   UNL     1     -35.211  23.133   4.964  0.00  0.00    +0.226 C 
ENDROOT
BRANCH   2   7
ATOM      6  O   UNL     1     -37.853  26.688   2.386  0.00  0.00    -0.193 OA
ATOM      7  N   UNL     1     -37.579  24.446   2.834  0.00  0.00    -0.201 N 
ATOM      8  N   UNL     1     -39.407  25.270   1.533  0.00  0.00    -0.311 NA
ATOM      9  N   UNL     1     -41.192  23.858   0.960  0.00  0.00    -0.336 N 
ATOM     10  C   UNL     1     -38.052  23.091   2.610  0.00  0.00    +0.115 C 
ATOM     11  C   UNL     1     -39.563  23.079   2.619  0.00  0.00    +0.098 C 
ATOM     12  C   UNL     1     -38.261  25.531   2.263  0.00  0.00    +0.271 C 
ATOM     13  C   UNL     1     -40.045  24.140   1.659  0.00  0.00    +0.170 C 
ATOM     14  H   UNL     1     -41.553  24.514   0.321  0.00  0.00    +0.144 HD
ATOM     15  H   UNL     1     -41.655  23.001   1.101  0.00  0.00    +0.144 HD
ENDBRANCH   2   7
BRANCH   3  16
ATOM     16  O   UNL     1     -36.504  26.529   4.998  0.00  0.00    -0.378 OA
ATOM     17  H   UNL     1     -36.923  26.883   4.198  0.00  0.00    +0.211 HD
ENDBRANCH   3  16
BRANCH   4  18
ATOM     18  O   UNL     1     -34.107  25.225   5.308  0.00  0.00    -0.378 OA
ATOM     19  H   UNL     1     -33.746  25.627   6.113  0.00  0.00    +0.211 HD
ENDBRANCH   4  18
BRANCH   5  20
ATOM     20  N   UNL     1     -36.022  22.131   5.649  0.00  0.00    -0.166 NA
ATOM     21  H   UNL     1     -36.193  22.410   6.616  0.00  0.00    +0.157 HD
BRANCH  20  22
ATOM     22  O   UNL     1     -35.244  20.908   5.603  0.00  0.00    -0.312 OA
ATOM     23  H   UNL     1     -35.833  20.145   5.715  0.00  0.00    +0.236 HD
ENDBRANCH  20  22
ENDBRANCH   5  20
TORSDOF 5
ENDMDL
MODEL 3
REMARK VINA RESULT:      -5.3      2.640      5.511
REMARK  Name = 53694666
REMARK  5 active torsions:
REMARK  status: ('A' for Active; 'I' for Inactive)
REMARK    1  A    between atoms: C_2  and  N_7
REMARK    2  A    between atoms: C_3  and  O_16
REMARK    3  A    between atoms: C_4  and  O_18
REMARK    4  A    between atoms: C_5  and  N_20
REMARK    5  A    between atoms: N_20  and  O_22
REMARK                            x       y       z     vdW  Elec       q    Type
REMARK                         _______ _______ _______ _____ _____    ______ ____
ROOT
ATOM      1  O   UNL     1     -34.997  21.284   2.463  0.00  0.00    -0.317 OA
ATOM      2  C   UNL     1     -36.303  21.530   3.013  0.00  0.00    +0.233 C 
ATOM      3  C   UNL     1     -37.288  21.420   1.861  0.00  0.00    +0.189 C 
ATOM      4  C   UNL     1     -36.605  20.405   0.967  0.00  0.00    +0.186 C 
ATOM      5  C   UNL     1     -35.136  20.792   1.111  0.00  0.00    +0.226 C 
ENDROOT
BRANCH   2   7
ATOM      6  O   UNL     1     -35.844  22.043   5.742  0.00  0.00    -0.193 OA
ATOM      7  N   UNL     1     -36.313  22.828   3.628  0.00  0.00    -0.201 N 
ATOM      8  N   UNL     1     -35.962  24.296   5.481  0.00  0.00    -0.311 NA
ATOM      9  N   UNL     1     -36.435  26.587   5.291  0.00  0.00    -0.336 N 
ATOM     10  C   UNL     1     -36.464  23.984   2.762  0.00  0.00    +0.115 C 
ATOM     11  C   UNL     1     -37.189  25.080   3.510  0.00  0.00    +0.098 C 
ATOM     12  C   UNL     1     -36.036  23.003   4.992  0.00  0.00    +0.271 C 
ATOM     13  C   UNL     1     -36.478  25.297   4.825  0.00  0.00    +0.170 C 
ATOM     14  H   UNL     1     -35.984  26.787   6.143  0.00  0.00    +0.144 HD
ATOM     15  H   UNL     1     -36.855  27.311   4.774  0.00  0.00    +0.144 HD
ENDBRANCH   2   7
BRANCH   3  16
ATOM     16  O   UNL     1     -38.564  20.999   2.299  0.00  0.00    -0.378 OA
ATOM     17  H   UNL     1     -39.226  21.222   1.627  0.00  0.00    +0.211 HD
ENDBRANCH   3  16
BRANCH   4  18
ATOM     18  O   UNL     1     -36.768  19.087   1.488  0.00  0.00    -0.378 OA
ATOM     19  H   UNL     1     -36.644  18.440   0.776  0.00  0.00    +0.211 HD
ENDBRANCH   4  18
BRANCH   5  20
ATOM     20  N   UNL     1     -34.730  21.805   0.141  0.00  0.00    -0.166 NA
ATOM     21  H   UNL     1     -35.166  21.627  -0.764  0.00  0.00    +0.157 HD
BRANCH  20  22
ATOM     22  O   UNL     1     -33.288  21.689   0.043  0.00  0.00    -0.312 OA
ATOM     23  H   UNL     1     -32.881  22.019   0.858  0.00  0.00    +0.236 HD
ENDBRANCH  20  22
ENDBRANCH   5  20
TORSDOF 5
ENDMDL
MODEL 4
REMARK VINA RESULT:      -5.3      2.644      5.330
REMARK  Name = 53694666
REMARK  5 active torsions:
REMARK  status: ('A' for Active; 'I' for Inactive)
REMARK    1  A    between atoms: C_2  and  N_7
REMARK    2  A    between atoms: C_3  and  O_16
REMARK    3  A    between atoms: C_4  and  O_18
REMARK    4  A    between atoms: C_5  and  N_20
REMARK    5  A    between atoms: N_20  and  O_22
REMARK                            x       y       z     vdW  Elec       q    Type
REMARK                         _______ _______ _______ _____ _____    ______ ____
ROOT
ATOM      1  O   UNL     1     -37.569  23.233   3.429  0.00  0.00    -0.317 OA
ATOM      2  C   UNL     1     -36.959  24.343   2.749  0.00  0.00    +0.233 C 
ATOM      3  C   UNL     1     -36.249  23.771   1.533  0.00  0.00    +0.189 C 
ATOM      4  C   UNL     1     -37.119  22.575   1.203  0.00  0.00    +0.186 C 
ATOM      5  C   UNL     1     -37.491  22.059   2.589  0.00  0.00    +0.226 C 
ENDROOT
BRANCH   2   7
ATOM      6  O   UNL     1     -36.088  27.009   2.513  0.00  0.00    -0.193 OA
ATOM      7  N   UNL     1     -36.062  25.008   3.652  0.00  0.00    -0.201 N 
ATOM      8  N   UNL     1     -34.921  26.947   4.460  0.00  0.00    -0.311 NA
ATOM      9  N   UNL     1     -33.433  26.786   6.268  0.00  0.00    -0.336 N 
ATOM     10  C   UNL     1     -35.650  24.289   4.845  0.00  0.00    +0.115 C 
ATOM     11  C   UNL     1     -34.255  24.719   5.234  0.00  0.00    +0.098 C 
ATOM     12  C   UNL     1     -35.706  26.354   3.486  0.00  0.00    +0.271 C 
ATOM     13  C   UNL     1     -34.233  26.228   5.301  0.00  0.00    +0.170 C 
ATOM     14  H   UNL     1     -33.380  27.764   6.358  0.00  0.00    +0.144 HD
ATOM     15  H   UNL     1     -32.913  26.207   6.870  0.00  0.00    +0.144 HD
ENDBRANCH   2   7
BRANCH   3  16
ATOM     16  O   UNL     1     -36.175  24.709   0.478  0.00  0.00    -0.378 OA
ATOM     17  H   UNL     1     -36.688  24.385  -0.278  0.00  0.00    +0.211 HD
ENDBRANCH   3  16
BRANCH   4  18
ATOM     18  O   UNL     1     -38.317  22.991   0.549  0.00  0.00    -0.378 OA
ATOM     19  H   UNL     1     -38.997  22.308   0.655  0.00  0.00    +0.211 HD
ENDBRANCH   4  18
BRANCH   5  20
ATOM     20  N   UNL     1     -36.513  21.107   3.109  0.00  0.00    -0.166 NA
ATOM     21  H   UNL     1     -35.568  21.388   2.848  0.00  0.00    +0.157 HD
BRANCH  20  22
ATOM     22  O   UNL     1     -36.852  19.835   2.500  0.00  0.00    -0.312 OA
ATOM     23  H   UNL     1     -36.094  19.234   2.564  0.00  0.00    +0.236 HD
ENDBRANCH  20  22
ENDBRANCH   5  20
TORSDOF 5
ENDMDL
MODEL 5
REMARK VINA RESULT:      -5.2      2.833      4.974
REMARK  Name = 53694666
REMARK  5 active torsions:
REMARK  status: ('A' for Active; 'I' for Inactive)
REMARK    1  A    between atoms: C_2  and  N_7
REMARK    2  A    between atoms: C_3  and  O_16
REMARK    3  A    between atoms: C_4  and  O_18
REMARK    4  A    between atoms: C_5  and  N_20
REMARK    5  A    between atoms: N_20  and  O_22
REMARK                            x       y       z     vdW  Elec       q    Type
REMARK                         _______ _______ _______ _____ _____    ______ ____
ROOT
ATOM      1  O   UNL     1     -36.960  25.155   2.430  0.00  0.00    -0.317 OA
ATOM      2  C   UNL     1     -35.813  24.408   2.872  0.00  0.00    +0.233 C 
ATOM      3  C   UNL     1     -36.345  23.201   3.628  0.00  0.00    +0.189 C 
ATOM      4  C   UNL     1     -37.660  22.950   2.921  0.00  0.00    +0.186 C 
ATOM      5  C   UNL     1     -38.153  24.368   2.650  0.00  0.00    +0.226 C 
ENDROOT
BRANCH   2   7
ATOM      6  O   UNL     1     -33.253  25.351   2.180  0.00  0.00    -0.193 OA
ATOM      7  N   UNL     1     -34.990  25.256   3.689  0.00  0.00    -0.201 N 
ATOM      8  N   UNL     1     -33.058  26.613   4.058  0.00  0.00    -0.311 NA
ATOM      9  N   UNL     1     -32.697  27.628   6.143  0.00  0.00    -0.336 N 
ATOM     10  C   UNL     1     -35.560  25.760   4.926  0.00  0.00    +0.115 C 
ATOM     11  C   UNL     1     -34.462  25.937   5.949  0.00  0.00    +0.098 C 
ATOM     12  C   UNL     1     -33.739  25.715   3.254  0.00  0.00    +0.271 C 
ATOM     13  C   UNL     1     -33.363  26.757   5.317  0.00  0.00    +0.170 C 
ATOM     14  H   UNL     1     -31.970  28.187   5.785  0.00  0.00    +0.144 HD
ATOM     15  H   UNL     1     -32.945  27.690   7.093  0.00  0.00    +0.144 HD
ENDBRANCH   2   7
BRANCH   3  16
ATOM     16  O   UNL     1     -35.458  22.103   3.554  0.00  0.00    -0.378 OA
ATOM     17  H   UNL     1     -35.824  21.433   2.957  0.00  0.00    +0.211 HD
ENDBRANCH   3  16
BRANCH   4  18
ATOM     18  O   UNL     1     -37.441  22.309   1.665  0.00  0.00    -0.378 OA
ATOM     19  H   UNL     1     -38.048  21.559   1.574  0.00  0.00    +0.211 HD
ENDBRANCH   4  18
BRANCH   5  20
ATOM     20  N   UNL     1     -38.938  24.906   3.757  0.00  0.00    -0.166 NA
ATOM     21  H   UNL     1     -39.898  24.561   3.714  0.00  0.00    +0.157 HD
BRANCH  20  22
ATOM     22  O   UNL     1     -38.907  26.346   3.588  0.00  0.00    -0.312 OA
ATOM     23  H   UNL     1     -39.799  26.705   3.711  0.00  0.00    +0.236 HD
ENDBRANCH  20  22
ENDBRANCH   5  20
TORSDOF 5
ENDMDL
MODEL 6
REMARK VINA RESULT:      -5.2      2.096      3.312
REMARK  Name = 53694666
REMARK  5 active torsions:
REMARK  status: ('A' for Active; 'I' for Inactive)
REMARK    1  A    between atoms: C_2  and  N_7
REMARK    2  A    between atoms: C_3  and  O_16
REMARK    3  A    between atoms: C_4  and  O_18
REMARK    4  A    between atoms: C_5  and  N_20
REMARK    5  A    between atoms: N_20  and  O_22
REMARK                            x       y       z     vdW  Elec       q    Type
REMARK                         _______ _______ _______ _____ _____    ______ ____
ROOT
ATOM      1  O   UNL     1     -34.656  25.614   2.082  0.00  0.00    -0.317 OA
ATOM      2  C   UNL     1     -35.870  25.322   2.795  0.00  0.00    +0.233 C 
ATOM      3  C   UNL     1     -35.629  25.715   4.243  0.00  0.00    +0.189 C 
ATOM      4  C   UNL     1     -34.647  26.859   4.093  0.00  0.00    +0.186 C 
ATOM      5  C   UNL     1     -33.776  26.382   2.935  0.00  0.00    +0.226 C 
ENDROOT
BRANCH   2   7
ATOM      6  O   UNL     1     -38.368  24.136   3.313  0.00  0.00    -0.193 OA
ATOM      7  N   UNL     1     -36.176  23.927   2.643  0.00  0.00    -0.201 N 
ATOM      8  N   UNL     1     -37.696  22.083   2.613  0.00  0.00    -0.311 NA
ATOM      9  N   UNL     1     -36.916  19.902   2.236  0.00  0.00    -0.336 N 
ATOM     10  C   UNL     1     -35.151  23.069   2.074  0.00  0.00    +0.115 C 
ATOM     11  C   UNL     1     -35.279  21.680   2.655  0.00  0.00    +0.098 C 
ATOM     12  C   UNL     1     -37.460  23.419   2.886  0.00  0.00    +0.271 C 
ATOM     13  C   UNL     1     -36.713  21.236   2.490  0.00  0.00    +0.170 C 
ATOM     14  H   UNL     1     -37.830  19.556   2.120  0.00  0.00    +0.144 HD
ATOM     15  H   UNL     1     -36.146  19.292   2.171  0.00  0.00    +0.144 HD
ENDBRANCH   2   7
BRANCH   3  16
ATOM     16  O   UNL     1     -36.826  26.096   4.890  0.00  0.00    -0.378 OA
ATOM     17  H   UNL     1     -36.895  25.635   5.740  0.00  0.00    +0.211 HD
ENDBRANCH   3  16
BRANCH   4  18
ATOM     18  O   UNL     1     -35.320  28.047   3.679  0.00  0.00    -0.378 OA
ATOM     19  H   UNL     1     -35.982  28.292   4.343  0.00  0.00    +0.211 HD
ENDBRANCH   4  18
BRANCH   5  20
ATOM     20  N   UNL     1     -32.647  25.573   3.385  0.00  0.00    -0.166 NA
ATOM     21  H   UNL     1     -32.392  25.818   4.342  0.00  0.00    +0.157 HD
BRANCH  20  22
ATOM     22  O   UNL     1     -31.562  25.885   2.475  0.00  0.00    -0.312 OA
ATOM     23  H   UNL     1     -30.797  26.202   2.979  0.00  0.00    +0.236 HD
ENDBRANCH  20  22
ENDBRANCH   5  20
TORSDOF 5
ENDMDL
MODEL 7
REMARK VINA RESULT:      -5.1      2.615      3.703
REMARK  Name = 53694666
REMARK  5 active torsions:
REMARK  status: ('A' for Active; 'I' for Inactive)
REMARK    1  A    between atoms: C_2  and  N_7
REMARK    2  A    between atoms: C_3  and  O_16
REMARK    3  A    between atoms: C_4  and  O_18
REMARK    4  A    between atoms: C_5  and  N_20
REMARK    5  A    between atoms: N_20  and  O_22
REMARK                            x       y       z     vdW  Elec       q    Type
REMARK                         _______ _______ _______ _____ _____    ______ ____
ROOT
ATOM      1  O   UNL     1     -36.710  24.119   4.572  0.00  0.00    -0.317 OA
ATOM      2  C   UNL     1     -36.677  22.907   3.799  0.00  0.00    +0.233 C 
ATOM      3  C   UNL     1     -35.398  22.181   4.185  0.00  0.00    +0.189 C 
ATOM      4  C   UNL     1     -35.218  22.617   5.625  0.00  0.00    +0.186 C 
ATOM      5  C   UNL     1     -35.672  24.072   5.577  0.00  0.00    +0.226 C 
ENDROOT
BRANCH   2   7
ATOM      6  O   UNL     1     -37.634  21.227   1.755  0.00  0.00    -0.193 OA
ATOM      7  N   UNL     1     -36.725  23.241   2.404  0.00  0.00    -0.201 N 
ATOM      8  N   UNL     1     -37.361  22.802   0.142  0.00  0.00    -0.311 NA
ATOM      9  N   UNL     1     -36.752  24.282  -1.575  0.00  0.00    -0.336 N 
ATOM     10  C   UNL     1     -36.353  24.591   2.019  0.00  0.00    +0.115 C 
ATOM     11  C   UNL     1     -35.737  24.568   0.639  0.00  0.00    +0.098 C 
ATOM     12  C   UNL     1     -37.254  22.360   1.449  0.00  0.00    +0.271 C 
ATOM     13  C   UNL     1     -36.680  23.830  -0.281  0.00  0.00    +0.170 C 
ATOM     14  H   UNL     1     -37.350  23.838  -2.218  0.00  0.00    +0.144 HD
ATOM     15  H   UNL     1     -36.205  25.049  -1.858  0.00  0.00    +0.144 HD
ENDBRANCH   2   7
BRANCH   3  16
ATOM     16  O   UNL     1     -35.525  20.781   4.043  0.00  0.00    -0.378 OA
ATOM     17  H   UNL     1     -34.688  20.355   4.282  0.00  0.00    +0.211 HD
ENDBRANCH   3  16
BRANCH   4  18
ATOM     18  O   UNL     1     -36.110  21.904   6.480  0.00  0.00    -0.378 OA
ATOM     19  H   UNL     1     -35.639  21.165   6.895  0.00  0.00    +0.211 HD
ENDBRANCH   4  18
BRANCH   5  20
ATOM     20  N   UNL     1     -34.581  24.984   5.245  0.00  0.00    -0.166 NA
ATOM     21  H   UNL     1     -33.756  24.772   5.807  0.00  0.00    +0.157 HD
BRANCH  20  22
ATOM     22  O   UNL     1     -35.079  26.311   5.554  0.00  0.00    -0.312 OA
ATOM     23  H   UNL     1     -34.370  26.960   5.431  0.00  0.00    +0.236 HD
ENDBRANCH  20  22
ENDBRANCH   5  20
TORSDOF 5
ENDMDL
MODEL 8
REMARK VINA RESULT:      -5.1      2.984      3.376
REMARK  Name = 53694666
REMARK  5 active torsions:
REMARK  status: ('A' for Active; 'I' for Inactive)
REMARK    1  A    between atoms: C_2  and  N_7
REMARK    2  A    between atoms: C_3  and  O_16
REMARK    3  A    between atoms: C_4  and  O_18
REMARK    4  A    between atoms: C_5  and  N_20
REMARK    5  A    between atoms: N_20  and  O_22
REMARK                            x       y       z     vdW  Elec       q    Type
REMARK                         _______ _______ _______ _____ _____    ______ ____
ROOT
ATOM      1  O   UNL     1     -36.678  24.152   4.969  0.00  0.00    -0.317 OA
ATOM      2  C   UNL     1     -36.355  23.566   3.696  0.00  0.00    +0.233 C 
ATOM      3  C   UNL     1     -35.402  24.527   3.004  0.00  0.00    +0.189 C 
ATOM      4  C   UNL     1     -34.684  25.151   4.183  0.00  0.00    +0.186 C 
ATOM      5  C   UNL     1     -35.806  25.279   5.208  0.00  0.00    +0.226 C 
ENDROOT
BRANCH   2   7
ATOM      6  O   UNL     1     -36.993  21.251   2.228  0.00  0.00    -0.193 OA
ATOM      7  N   UNL     1     -37.567  23.359   2.955  0.00  0.00    -0.201 N 
ATOM      8  N   UNL     1     -39.065  22.002   1.679  0.00  0.00    -0.311 NA
ATOM      9  N   UNL     1     -41.049  22.908   0.814  0.00  0.00    -0.336 N 
ATOM     10  C   UNL     1     -38.600  24.376   3.053  0.00  0.00    +0.115 C 
ATOM     11  C   UNL     1     -39.375  24.431   1.757  0.00  0.00    +0.098 C 
ATOM     12  C   UNL     1     -37.827  22.158   2.279  0.00  0.00    +0.271 C 
ATOM     13  C   UNL     1     -39.825  23.029   1.422  0.00  0.00    +0.170 C 
ATOM     14  H   UNL     1     -41.393  22.017   0.572  0.00  0.00    +0.144 HD
ATOM     15  H   UNL     1     -41.582  23.711   0.618  0.00  0.00    +0.144 HD
ENDBRANCH   2   7
BRANCH   3  16
ATOM     16  O   UNL     1     -34.530  23.855   2.118  0.00  0.00    -0.378 OA
ATOM     17  H   UNL     1     -34.885  23.901   1.218  0.00  0.00    +0.211 HD
ENDBRANCH   3  16
BRANCH   4  18
ATOM     18  O   UNL     1     -33.706  24.253   4.708  0.00  0.00    -0.378 OA
ATOM     19  H   UNL     1     -33.361  23.696   3.993  0.00  0.00    +0.211 HD
ENDBRANCH   4  18
BRANCH   5  20
ATOM     20  N   UNL     1     -36.532  26.540   5.083  0.00  0.00    -0.166 NA
ATOM     21  H   UNL     1     -37.386  26.407   4.539  0.00  0.00    +0.157 HD
BRANCH  20  22
ATOM     22  O   UNL     1     -35.627  27.440   4.395  0.00  0.00    -0.312 OA
ATOM     23  H   UNL     1     -35.780  28.348   4.701  0.00  0.00    +0.236 HD
ENDBRANCH  20  22
ENDBRANCH   5  20
TORSDOF 5
ENDMDL
MODEL 9
REMARK VINA RESULT:      -5.1      2.785      4.691
REMARK  Name = 53694666
REMARK  5 active torsions:
REMARK  status: ('A' for Active; 'I' for Inactive)
REMARK    1  A    between atoms: C_2  and  N_7
REMARK    2  A    between atoms: C_3  and  O_16
REMARK    3  A    between atoms: C_4  and  O_18
REMARK    4  A    between atoms: C_5  and  N_20
REMARK    5  A    between atoms: N_20  and  O_22
REMARK                            x       y       z     vdW  Elec       q    Type
REMARK                         _______ _______ _______ _____ _____    ______ ____
ROOT
ATOM      1  O   UNL     1     -35.774  24.084   2.845  0.00  0.00    -0.317 OA
ATOM      2  C   UNL     1     -36.026  25.470   3.133  0.00  0.00    +0.233 C 
ATOM      3  C   UNL     1     -36.028  25.605   4.647  0.00  0.00    +0.189 C 
ATOM      4  C   UNL     1     -35.055  24.519   5.055  0.00  0.00    +0.186 C 
ATOM      5  C   UNL     1     -35.381  23.409   4.061  0.00  0.00    +0.226 C 
ENDROOT
BRANCH   2   7
ATOM      6  O   UNL     1     -38.548  24.460   3.866  0.00  0.00    -0.193 OA
ATOM      7  N   UNL     1     -37.278  25.850   2.541  0.00  0.00    -0.201 N 
ATOM      8  N   UNL     1     -39.666  25.826   2.437  0.00  0.00    -0.311 NA
ATOM      9  N   UNL     1     -40.795  26.965   0.724  0.00  0.00    -0.336 N 
ATOM     10  C   UNL     1     -37.263  26.919   1.558  0.00  0.00    +0.115 C 
ATOM     11  C   UNL     1     -38.365  26.689   0.549  0.00  0.00    +0.098 C 
ATOM     12  C   UNL     1     -38.499  25.327   2.991  0.00  0.00    +0.271 C 
ATOM     13  C   UNL     1     -39.653  26.472   1.306  0.00  0.00    +0.170 C 
ATOM     14  H   UNL     1     -41.664  26.852   1.173  0.00  0.00    +0.144 HD
ATOM     15  H   UNL     1     -40.744  27.430  -0.142  0.00  0.00    +0.144 HD
ENDBRANCH   2   7
BRANCH   3  16
ATOM     16  O   UNL     1     -35.622  26.894   5.059  0.00  0.00    -0.378 OA
ATOM     17  H   UNL     1     -35.860  27.541   4.378  0.00  0.00    +0.211 HD
ENDBRANCH   3  16
BRANCH   4  18
ATOM     18  O   UNL     1     -33.710  24.937   4.825  0.00  0.00    -0.378 OA
ATOM     19  H   UNL     1     -33.408  25.478   5.571  0.00  0.00    +0.211 HD
ENDBRANCH   4  18
BRANCH   5  20
ATOM     20  N   UNL     1     -36.444  22.529   4.539  0.00  0.00    -0.166 NA
ATOM     21  H   UNL     1     -37.348  22.998   4.481  0.00  0.00    +0.157 HD
BRANCH  20  22
ATOM     22  O   UNL     1     -36.111  22.235   5.919  0.00  0.00    -0.312 OA
ATOM     23  H   UNL     1     -36.913  22.279   6.462  0.00  0.00    +0.236 HD
ENDBRANCH  20  22
ENDBRANCH   5  20
TORSDOF 5
ENDMDL
