MODEL 1
REMARK VINA RESULT:      -7.0      0.000      0.000
REMARK  Name = 51490020
REMARK  12 active torsions:
REMARK  status: ('A' for Active; 'I' for Inactive)
REMARK    1  A    between atoms: C_1  and  N_3
REMARK    2  A    between atoms: C_1  and  C_20
REMARK    3  A    between atoms: C_1  and  C_29
REMARK    4  A    between atoms: C_4  and  C_6
REMARK    5  A    between atoms: C_6  and  C_7
REMARK    6  A    between atoms: C_6  and  C_11
REMARK    7  A    between atoms: C_7  and  C_8
REMARK    8  A    between atoms: C_11  and  C_14
REMARK    9  A    between atoms: N_13  and  O_16
REMARK   10  A    between atoms: N_19  and  C_22
REMARK   11  A    between atoms: C_22  and  C_26
REMARK   12  A    between atoms: C_29  and  C_30
REMARK                            x       y       z     vdW  Elec       q    Type
REMARK                         _______ _______ _______ _____ _____    ______ ____
ROOT
ATOM      1  C   UNL     1     -35.224  21.679   1.089  0.00  0.00    +0.153 C 
ENDROOT
BRANCH   1   3
ATOM      2  O   UNL     1     -34.274  24.340   1.590  0.00  0.00    -0.275 OA
ATOM      3  N   UNL     1     -35.398  22.442   2.301  0.00  0.00    -0.298 N 
ATOM      4  C   UNL     1     -34.902  23.726   2.451  0.00  0.00    +0.223 C 
ATOM      5  H   UNL     1     -35.889  22.035   3.051  0.00  0.00    +0.150 HD
BRANCH   4   6
ATOM      6  C   UNL     1     -35.199  24.357   3.811  0.00  0.00    +0.086 C 
BRANCH   6   7
ATOM      7  C   UNL     1     -33.922  24.868   4.509  0.00  0.00    +0.010 C 
BRANCH   7   8
ATOM      8  C   UNL     1     -33.951  26.357   4.916  0.00  0.00    +0.000 C 
ATOM      9  C   UNL     1     -33.537  26.497   6.384  0.00  0.00    +0.000 C 
ATOM     10  C   UNL     1     -33.040  27.220   4.042  0.00  0.00    +0.000 C 
ENDBRANCH   7   8
ENDBRANCH   6   7
BRANCH   6  11
ATOM     11  C   UNL     1     -36.238  25.482   3.655  0.00  0.00    +0.096 C 
BRANCH  11  14
ATOM     12  O   UNL     1     -37.879  23.733   3.554  0.00  0.00    -0.273 OA
ATOM     13  N   UNL     1     -38.605  25.925   3.688  0.00  0.00    -0.197 N 
ATOM     14  C   UNL     1     -37.653  24.939   3.632  0.00  0.00    +0.245 C 
ATOM     15  H   UNL     1     -38.368  26.878   3.750  0.00  0.00    +0.182 HD
BRANCH  13  16
ATOM     16  O   UNL     1     -39.936  25.491   3.651  0.00  0.00    -0.295 OA
ATOM     17  H   UNL     1     -40.521  26.251   3.512  0.00  0.00    +0.241 HD
ENDBRANCH  13  16
ENDBRANCH  11  14
ENDBRANCH   6  11
ENDBRANCH   4   6
ENDBRANCH   1   3
BRANCH   1  20
ATOM     18  O   UNL     1     -36.438  22.181  -0.949  0.00  0.00    -0.273 OA
ATOM     19  N   UNL     1     -37.637  21.644   0.967  0.00  0.00    -0.297 N 
ATOM     20  C   UNL     1     -36.476  21.883   0.243  0.00  0.00    +0.241 C 
ATOM     21  H   UNL     1     -37.554  21.411   1.920  0.00  0.00    +0.150 HD
BRANCH  19  22
ATOM     22  C   UNL     1     -38.959  21.719   0.391  0.00  0.00    +0.148 C 
ATOM     23  C   UNL     1     -39.297  20.447  -0.372  0.00  0.00    +0.031 C 
BRANCH  22  26
ATOM     24  O   UNL     1     -40.373  21.075   2.258  0.00  0.00    -0.274 OA
ATOM     25  N   UNL     1     -40.307  23.287   1.643  0.00  0.00    -0.327 N 
ATOM     26  C   UNL     1     -39.955  21.960   1.515  0.00  0.00    +0.237 C 
ATOM     27  H   UNL     1     -40.947  23.562   2.339  0.00  0.00    +0.145 HD
ATOM     28  H   UNL     1     -39.919  23.960   1.038  0.00  0.00    +0.145 HD
ENDBRANCH  22  26
ENDBRANCH  19  22
ENDBRANCH   1  20
BRANCH   1  29
ATOM     29  C   UNL     1     -35.007  20.187   1.369  0.00  0.00    +0.055 C 
BRANCH  29  30
ATOM     30  C   UNL     1     -33.607  19.729   1.037  0.00  0.00    -0.020 C 
ATOM     31  C   UNL     1     -32.767  20.546   0.280  0.00  0.00    -0.004 C 
ATOM     32  C   UNL     1     -33.157  18.491   1.485  0.00  0.00    -0.004 C 
ATOM     33  C   UNL     1     -31.463  20.133  -0.038  0.00  0.00    -0.000 C 
ATOM     34  C   UNL     1     -31.005  18.874   0.418  0.00  0.00    -0.000 C 
ATOM     35  C   UNL     1     -31.864  18.065   1.178  0.00  0.00    -0.000 C 
ATOM     36  C   UNL     1     -30.603  20.943  -0.799  0.00  0.00    -0.000 C 
ATOM     37  C   UNL     1     -29.701  18.462   0.100  0.00  0.00    -0.000 C 
ATOM     38  C   UNL     1     -29.311  20.517  -1.105  0.00  0.00    -0.000 C 
ATOM     39  C   UNL     1     -28.861  19.279  -0.657  0.00  0.00    -0.000 C 
ENDBRANCH  29  30
ENDBRANCH   1  29
TORSDOF 12
ENDMDL
MODEL 2
REMARK VINA RESULT:      -6.8      2.414      3.972
REMARK  Name = 51490020
REMARK  12 active torsions:
REMARK  status: ('A' for Active; 'I' for Inactive)
REMARK    1  A    between atoms: C_1  and  N_3
REMARK    2  A    between atoms: C_1  and  C_20
REMARK    3  A    between atoms: C_1  and  C_29
REMARK    4  A    between atoms: C_4  and  C_6
REMARK    5  A    between atoms: C_6  and  C_7
REMARK    6  A    between atoms: C_6  and  C_11
REMARK    7  A    between atoms: C_7  and  C_8
REMARK    8  A    between atoms: C_11  and  C_14
REMARK    9  A    between atoms: N_13  and  O_16
REMARK   10  A    between atoms: N_19  and  C_22
REMARK   11  A    between atoms: C_22  and  C_26
REMARK   12  A    between atoms: C_29  and  C_30
REMARK                            x       y       z     vdW  Elec       q    Type
REMARK                         _______ _______ _______ _____ _____    ______ ____
ROOT
ATOM      1  C   UNL     1     -37.739  22.767   1.969  0.00  0.00    +0.153 C 
ENDROOT
BRANCH   1   3
ATOM      2  O   UNL     1     -36.568  25.228   2.871  0.00  0.00    -0.275 OA
ATOM      3  N   UNL     1     -37.167  23.024   3.270  0.00  0.00    -0.298 N 
ATOM      4  C   UNL     1     -36.624  24.249   3.616  0.00  0.00    +0.223 C 
ATOM      5  H   UNL     1     -37.165  22.301   3.938  0.00  0.00    +0.150 HD
BRANCH   4   6
ATOM      6  C   UNL     1     -36.076  24.312   5.041  0.00  0.00    +0.086 C 
BRANCH   6   7
ATOM      7  C   UNL     1     -34.695  23.638   5.167  0.00  0.00    +0.010 C 
BRANCH   7   8
ATOM      8  C   UNL     1     -34.715  22.205   5.741  0.00  0.00    +0.000 C 
ATOM      9  C   UNL     1     -35.814  22.092   6.801  0.00  0.00    +0.000 C 
ATOM     10  C   UNL     1     -34.933  21.145   4.661  0.00  0.00    +0.000 C 
ENDBRANCH   7   8
ENDBRANCH   6   7
BRANCH   6  11
ATOM     11  C   UNL     1     -36.031  25.772   5.526  0.00  0.00    +0.096 C 
BRANCH  11  14
ATOM     12  O   UNL     1     -33.839  26.257   6.377  0.00  0.00    -0.273 OA
ATOM     13  N   UNL     1     -34.380  26.969   4.245  0.00  0.00    -0.197 N 
ATOM     14  C   UNL     1     -34.631  26.347   5.441  0.00  0.00    +0.245 C 
ATOM     15  H   UNL     1     -35.052  27.012   3.527  0.00  0.00    +0.182 HD
BRANCH  13  16
ATOM     16  O   UNL     1     -33.108  27.539   4.108  0.00  0.00    -0.295 OA
ATOM     17  H   UNL     1     -33.195  28.460   3.818  0.00  0.00    +0.241 HD
ENDBRANCH  13  16
ENDBRANCH  11  14
ENDBRANCH   6  11
ENDBRANCH   4   6
ENDBRANCH   1   3
BRANCH   1  20
ATOM     18  O   UNL     1     -40.044  22.093   2.296  0.00  0.00    -0.273 OA
ATOM     19  N   UNL     1     -39.570  24.343   1.964  0.00  0.00    -0.297 N 
ATOM     20  C   UNL     1     -39.241  22.999   2.082  0.00  0.00    +0.241 C 
ATOM     21  H   UNL     1     -38.846  24.987   1.791  0.00  0.00    +0.150 HD
BRANCH  19  22
ATOM     22  C   UNL     1     -40.921  24.842   2.081  0.00  0.00    +0.148 C 
ATOM     23  C   UNL     1     -40.940  26.221   2.720  0.00  0.00    +0.031 C 
BRANCH  22  26
ATOM     24  O   UNL     1     -41.527  25.867  -0.035  0.00  0.00    -0.274 OA
ATOM     25  N   UNL     1     -42.074  23.663   0.314  0.00  0.00    -0.327 N 
ATOM     26  C   UNL     1     -41.538  24.876   0.692  0.00  0.00    +0.237 C 
ATOM     27  H   UNL     1     -42.502  23.567  -0.567  0.00  0.00    +0.145 HD
ATOM     28  H   UNL     1     -42.030  22.893   0.926  0.00  0.00    +0.145 HD
ENDBRANCH  22  26
ENDBRANCH  19  22
ENDBRANCH   1  20
BRANCH   1  29
ATOM     29  C   UNL     1     -37.455  21.341   1.483  0.00  0.00    +0.055 C 
BRANCH  29  30
ATOM     30  C   UNL     1     -36.013  21.137   1.082  0.00  0.00    -0.020 C 
ATOM     31  C   UNL     1     -35.356  19.954   1.424  0.00  0.00    -0.004 C 
ATOM     32  C   UNL     1     -35.341  22.128   0.374  0.00  0.00    -0.004 C 
ATOM     33  C   UNL     1     -34.015  19.749   1.059  0.00  0.00    -0.000 C 
ATOM     34  C   UNL     1     -33.332  20.758   0.339  0.00  0.00    -0.000 C 
ATOM     35  C   UNL     1     -34.009  21.941   0.005  0.00  0.00    -0.000 C 
ATOM     36  C   UNL     1     -33.338  18.565   1.394  0.00  0.00    -0.000 C 
ATOM     37  C   UNL     1     -31.991  20.553  -0.025  0.00  0.00    -0.000 C 
ATOM     38  C   UNL     1     -32.006  18.379   1.023  0.00  0.00    -0.000 C 
ATOM     39  C   UNL     1     -31.334  19.371   0.316  0.00  0.00    -0.000 C 
ENDBRANCH  29  30
ENDBRANCH   1  29
TORSDOF 12
ENDMDL
MODEL 3
REMARK VINA RESULT:      -6.8      2.818      3.900
REMARK  Name = 51490020
REMARK  12 active torsions:
REMARK  status: ('A' for Active; 'I' for Inactive)
REMARK    1  A    between atoms: C_1  and  N_3
REMARK    2  A    between atoms: C_1  and  C_20
REMARK    3  A    between atoms: C_1  and  C_29
REMARK    4  A    between atoms: C_4  and  C_6
REMARK    5  A    between atoms: C_6  and  C_7
REMARK    6  A    between atoms: C_6  and  C_11
REMARK    7  A    between atoms: C_7  and  C_8
REMARK    8  A    between atoms: C_11  and  C_14
REMARK    9  A    between atoms: N_13  and  O_16
REMARK   10  A    between atoms: N_19  and  C_22
REMARK   11  A    between atoms: C_22  and  C_26
REMARK   12  A    between atoms: C_29  and  C_30
REMARK                            x       y       z     vdW  Elec       q    Type
REMARK                         _______ _______ _______ _____ _____    ______ ____
ROOT
ATOM      1  C   UNL     1     -35.054  19.984   0.486  0.00  0.00    +0.153 C 
ENDROOT
BRANCH   1   3
ATOM      2  O   UNL     1     -35.244  20.260   3.337  0.00  0.00    -0.275 OA
ATOM      3  N   UNL     1     -35.671  21.070   1.208  0.00  0.00    -0.298 N 
ATOM      4  C   UNL     1     -35.715  21.118   2.590  0.00  0.00    +0.223 C 
ATOM      5  H   UNL     1     -36.077  21.808   0.697  0.00  0.00    +0.150 HD
BRANCH   4   6
ATOM      6  C   UNL     1     -36.411  22.356   3.153  0.00  0.00    +0.086 C 
BRANCH   6   7
ATOM      7  C   UNL     1     -35.410  23.378   3.730  0.00  0.00    +0.010 C 
BRANCH   7   8
ATOM      8  C   UNL     1     -35.629  23.744   5.213  0.00  0.00    +0.000 C 
ATOM      9  C   UNL     1     -35.287  22.540   6.095  0.00  0.00    +0.000 C 
ATOM     10  C   UNL     1     -34.798  24.951   5.648  0.00  0.00    +0.000 C 
ENDBRANCH   7   8
ENDBRANCH   6   7
BRANCH   6  11
ATOM     11  C   UNL     1     -37.304  22.996   2.075  0.00  0.00    +0.096 C 
BRANCH  11  14
ATOM     12  O   UNL     1     -39.600  23.504   2.556  0.00  0.00    -0.273 OA
ATOM     13  N   UNL     1     -39.018  21.306   2.135  0.00  0.00    -0.197 N 
ATOM     14  C   UNL     1     -38.764  22.647   2.278  0.00  0.00    +0.245 C 
ATOM     15  H   UNL     1     -38.309  20.661   1.910  0.00  0.00    +0.182 HD
BRANCH  13  16
ATOM     16  O   UNL     1     -40.348  20.912   2.328  0.00  0.00    -0.295 OA
ATOM     17  H   UNL     1     -40.475  20.018   1.976  0.00  0.00    +0.241 HD
ENDBRANCH  13  16
ENDBRANCH  11  14
ENDBRANCH   6  11
ENDBRANCH   4   6
ENDBRANCH   1   3
BRANCH   1  20
ATOM     18  O   UNL     1     -37.363  19.315   0.177  0.00  0.00    -0.273 OA
ATOM     19  N   UNL     1     -35.679  17.928  -0.620  0.00  0.00    -0.297 N 
ATOM     20  C   UNL     1     -36.171  19.055   0.025  0.00  0.00    +0.241 C 
ATOM     21  H   UNL     1     -34.702  17.818  -0.686  0.00  0.00    +0.150 HD
BRANCH  19  22
ATOM     22  C   UNL     1     -36.526  16.911  -1.198  0.00  0.00    +0.148 C 
ATOM     23  C   UNL     1     -35.872  16.284  -2.419  0.00  0.00    +0.031 C 
BRANCH  22  26
ATOM     24  O   UNL     1     -37.937  15.522   0.208  0.00  0.00    -0.274 OA
ATOM     25  N   UNL     1     -35.657  15.305   0.386  0.00  0.00    -0.327 N 
ATOM     26  C   UNL     1     -36.807  15.864  -0.131  0.00  0.00    +0.237 C 
ATOM     27  H   UNL     1     -35.717  14.614   1.085  0.00  0.00    +0.145 HD
ATOM     28  H   UNL     1     -34.777  15.597   0.057  0.00  0.00    +0.145 HD
ENDBRANCH  22  26
ENDBRANCH  19  22
ENDBRANCH   1  20
BRANCH   1  29
ATOM     29  C   UNL     1     -34.045  19.216   1.348  0.00  0.00    +0.055 C 
BRANCH  29  30
ATOM     30  C   UNL     1     -32.637  19.292   0.807  0.00  0.00    -0.020 C 
ATOM     31  C   UNL     1     -31.722  18.280   1.101  0.00  0.00    -0.004 C 
ATOM     32  C   UNL     1     -32.253  20.371   0.017  0.00  0.00    -0.004 C 
ATOM     33  C   UNL     1     -30.409  18.336   0.606  0.00  0.00    -0.000 C 
ATOM     34  C   UNL     1     -30.018  19.434  -0.197  0.00  0.00    -0.000 C 
ATOM     35  C   UNL     1     -30.953  20.442  -0.483  0.00  0.00    -0.000 C 
ATOM     36  C   UNL     1     -29.474  17.327   0.892  0.00  0.00    -0.000 C 
ATOM     37  C   UNL     1     -28.705  19.491  -0.691  0.00  0.00    -0.000 C 
ATOM     38  C   UNL     1     -28.174  17.400   0.392  0.00  0.00    -0.000 C 
ATOM     39  C   UNL     1     -27.790  18.479  -0.398  0.00  0.00    -0.000 C 
ENDBRANCH  29  30
ENDBRANCH   1  29
TORSDOF 12
ENDMDL
MODEL 4
REMARK VINA RESULT:      -6.8      2.307      3.106
REMARK  Name = 51490020
REMARK  12 active torsions:
REMARK  status: ('A' for Active; 'I' for Inactive)
REMARK    1  A    between atoms: C_1  and  N_3
REMARK    2  A    between atoms: C_1  and  C_20
REMARK    3  A    between atoms: C_1  and  C_29
REMARK    4  A    between atoms: C_4  and  C_6
REMARK    5  A    between atoms: C_6  and  C_7
REMARK    6  A    between atoms: C_6  and  C_11
REMARK    7  A    between atoms: C_7  and  C_8
REMARK    8  A    between atoms: C_11  and  C_14
REMARK    9  A    between atoms: N_13  and  O_16
REMARK   10  A    between atoms: N_19  and  C_22
REMARK   11  A    between atoms: C_22  and  C_26
REMARK   12  A    between atoms: C_29  and  C_30
REMARK                            x       y       z     vdW  Elec       q    Type
REMARK                         _______ _______ _______ _____ _____    ______ ____
ROOT
ATOM      1  C   UNL     1     -35.360  20.405   0.983  0.00  0.00    +0.153 C 
ENDROOT
BRANCH   1   3
ATOM      2  O   UNL     1     -34.410  23.112   1.057  0.00  0.00    -0.275 OA
ATOM      3  N   UNL     1     -35.680  21.404   1.975  0.00  0.00    -0.298 N 
ATOM      4  C   UNL     1     -35.172  22.691   1.927  0.00  0.00    +0.223 C 
ATOM      5  H   UNL     1     -36.284  21.162   2.714  0.00  0.00    +0.150 HD
BRANCH   4   6
ATOM      6  C   UNL     1     -35.637  23.591   3.070  0.00  0.00    +0.086 C 
BRANCH   6   7
ATOM      7  C   UNL     1     -34.469  24.356   3.726  0.00  0.00    +0.010 C 
BRANCH   7   8
ATOM      8  C   UNL     1     -34.516  24.427   5.267  0.00  0.00    +0.000 C 
ATOM      9  C   UNL     1     -35.202  25.725   5.701  0.00  0.00    +0.000 C 
ATOM     10  C   UNL     1     -35.241  23.231   5.886  0.00  0.00    +0.000 C 
ENDBRANCH   7   8
ENDBRANCH   6   7
BRANCH   6  11
ATOM     11  C   UNL     1     -36.727  24.558   2.571  0.00  0.00    +0.096 C 
BRANCH  11  14
ATOM     12  O   UNL     1     -38.548  23.025   2.881  0.00  0.00    -0.273 OA
ATOM     13  N   UNL     1     -38.760  25.177   3.702  0.00  0.00    -0.197 N 
ATOM     14  C   UNL     1     -38.101  24.155   3.066  0.00  0.00    +0.245 C 
ATOM     15  H   UNL     1     -38.354  26.065   3.824  0.00  0.00    +0.182 HD
BRANCH  13  16
ATOM     16  O   UNL     1     -40.046  24.877   4.169  0.00  0.00    -0.295 OA
ATOM     17  H   UNL     1     -40.162  23.915   4.203  0.00  0.00    +0.241 HD
ENDBRANCH  13  16
ENDBRANCH  11  14
ENDBRANCH   6  11
ENDBRANCH   4   6
ENDBRANCH   1   3
BRANCH   1  20
ATOM     18  O   UNL     1     -37.733  20.399   0.488  0.00  0.00    -0.273 OA
ATOM     19  N   UNL     1     -36.513  18.451   0.155  0.00  0.00    -0.297 N 
ATOM     20  C   UNL     1     -36.675  19.775   0.537  0.00  0.00    +0.241 C 
ATOM     21  H   UNL     1     -35.619  18.047   0.235  0.00  0.00    +0.150 HD
BRANCH  19  22
ATOM     22  C   UNL     1     -37.591  17.636  -0.356  0.00  0.00    +0.148 C 
ATOM     23  C   UNL     1     -37.719  17.780  -1.864  0.00  0.00    +0.031 C 
BRANCH  22  26
ATOM     24  O   UNL     1     -38.189  15.324   0.087  0.00  0.00    -0.274 OA
ATOM     25  N   UNL     1     -35.984  15.942   0.273  0.00  0.00    -0.327 N 
ATOM     26  C   UNL     1     -37.320  16.190   0.032  0.00  0.00    +0.237 C 
ATOM     27  H   UNL     1     -35.690  15.040   0.532  0.00  0.00    +0.145 HD
ATOM     28  H   UNL     1     -35.325  16.669   0.186  0.00  0.00    +0.145 HD
ENDBRANCH  22  26
ENDBRANCH  19  22
ENDBRANCH   1  20
BRANCH   1  29
ATOM     29  C   UNL     1     -34.412  19.331   1.527  0.00  0.00    +0.055 C 
BRANCH  29  30
ATOM     30  C   UNL     1     -33.028  19.417   0.931  0.00  0.00    -0.020 C 
ATOM     31  C   UNL     1     -32.095  18.410   1.186  0.00  0.00    -0.004 C 
ATOM     32  C   UNL     1     -32.682  20.500   0.129  0.00  0.00    -0.004 C 
ATOM     33  C   UNL     1     -30.803  18.476   0.640  0.00  0.00    -0.000 C 
ATOM     34  C   UNL     1     -30.452  19.578  -0.176  0.00  0.00    -0.000 C 
ATOM     35  C   UNL     1     -31.403  20.581  -0.421  0.00  0.00    -0.000 C 
ATOM     36  C   UNL     1     -29.852  17.472   0.886  0.00  0.00    -0.000 C 
ATOM     37  C   UNL     1     -29.160  19.644  -0.721  0.00  0.00    -0.000 C 
ATOM     38  C   UNL     1     -28.573  17.555   0.335  0.00  0.00    -0.000 C 
ATOM     39  C   UNL     1     -28.228  18.638  -0.467  0.00  0.00    -0.000 C 
ENDBRANCH  29  30
ENDBRANCH   1  29
TORSDOF 12
ENDMDL
MODEL 5
REMARK VINA RESULT:      -6.6      1.912      2.480
REMARK  Name = 51490020
REMARK  12 active torsions:
REMARK  status: ('A' for Active; 'I' for Inactive)
REMARK    1  A    between atoms: C_1  and  N_3
REMARK    2  A    between atoms: C_1  and  C_20
REMARK    3  A    between atoms: C_1  and  C_29
REMARK    4  A    between atoms: C_4  and  C_6
REMARK    5  A    between atoms: C_6  and  C_7
REMARK    6  A    between atoms: C_6  and  C_11
REMARK    7  A    between atoms: C_7  and  C_8
REMARK    8  A    between atoms: C_11  and  C_14
REMARK    9  A    between atoms: N_13  and  O_16
REMARK   10  A    between atoms: N_19  and  C_22
REMARK   11  A    between atoms: C_22  and  C_26
REMARK   12  A    between atoms: C_29  and  C_30
REMARK                            x       y       z     vdW  Elec       q    Type
REMARK                         _______ _______ _______ _____ _____    ______ ____
ROOT
ATOM      1  C   UNL     1     -35.679  21.074   0.750  0.00  0.00    +0.153 C 
ENDROOT
BRANCH   1   3
ATOM      2  O   UNL     1     -34.199  23.502   1.137  0.00  0.00    -0.275 OA
ATOM      3  N   UNL     1     -36.014  22.153   1.647  0.00  0.00    -0.298 N 
ATOM      4  C   UNL     1     -35.236  23.292   1.767  0.00  0.00    +0.223 C 
ATOM      5  H   UNL     1     -36.828  22.078   2.195  0.00  0.00    +0.150 HD
BRANCH   4   6
ATOM      6  C   UNL     1     -35.769  24.313   2.769  0.00  0.00    +0.086 C 
BRANCH   6   7
ATOM      7  C   UNL     1     -34.654  24.896   3.661  0.00  0.00    +0.010 C 
BRANCH   7   8
ATOM      8  C   UNL     1     -34.864  24.709   5.178  0.00  0.00    +0.000 C 
ATOM      9  C   UNL     1     -35.789  25.808   5.708  0.00  0.00    +0.000 C 
ATOM     10  C   UNL     1     -35.445  23.338   5.524  0.00  0.00    +0.000 C 
ENDBRANCH   7   8
ENDBRANCH   6   7
BRANCH   6  11
ATOM     11  C   UNL     1     -36.534  25.428   2.032  0.00  0.00    +0.096 C 
BRANCH  11  14
ATOM     12  O   UNL     1     -38.576  26.644   2.366  0.00  0.00    -0.273 OA
ATOM     13  N   UNL     1     -38.315  24.608   3.430  0.00  0.00    -0.197 N 
ATOM     14  C   UNL     1     -37.918  25.636   2.613  0.00  0.00    +0.245 C 
ATOM     15  H   UNL     1     -37.746  23.821   3.593  0.00  0.00    +0.182 HD
BRANCH  13  16
ATOM     16  O   UNL     1     -39.579  24.746   4.016  0.00  0.00    -0.295 OA
ATOM     17  H   UNL     1     -40.259  24.734   3.324  0.00  0.00    +0.241 HD
ENDBRANCH  13  16
ENDBRANCH  11  14
ENDBRANCH   6  11
ENDBRANCH   4   6
ENDBRANCH   1   3
BRANCH   1  20
ATOM     18  O   UNL     1     -37.828  21.493  -0.289  0.00  0.00    -0.273 OA
ATOM     19  N   UNL     1     -36.985  19.329  -0.294  0.00  0.00    -0.297 N 
ATOM     20  C   UNL     1     -36.958  20.682   0.017  0.00  0.00    +0.241 C 
ATOM     21  H   UNL     1     -36.233  18.767   0.002  0.00  0.00    +0.150 HD
BRANCH  19  22
ATOM     22  C   UNL     1     -38.061  18.706  -1.029  0.00  0.00    +0.148 C 
ATOM     23  C   UNL     1     -37.777  18.711  -2.523  0.00  0.00    +0.031 C 
BRANCH  22  26
ATOM     24  O   UNL     1     -39.091  16.509  -0.921  0.00  0.00    -0.274 OA
ATOM     25  N   UNL     1     -37.291  16.946   0.438  0.00  0.00    -0.327 N 
ATOM     26  C   UNL     1     -38.232  17.286  -0.512  0.00  0.00    +0.237 C 
ATOM     27  H   UNL     1     -37.304  16.050   0.844  0.00  0.00    +0.145 HD
ATOM     28  H   UNL     1     -36.606  17.599   0.709  0.00  0.00    +0.145 HD
ENDBRANCH  22  26
ENDBRANCH  19  22
ENDBRANCH   1  20
BRANCH   1  29
ATOM     29  C   UNL     1     -35.096  19.864   1.490  0.00  0.00    +0.055 C 
BRANCH  29  30
ATOM     30  C   UNL     1     -33.669  19.570   1.095  0.00  0.00    -0.020 C 
ATOM     31  C   UNL     1     -32.949  20.498   0.342  0.00  0.00    -0.004 C 
ATOM     32  C   UNL     1     -33.073  18.373   1.481  0.00  0.00    -0.004 C 
ATOM     33  C   UNL     1     -31.621  20.239  -0.034  0.00  0.00    -0.000 C 
ATOM     34  C   UNL     1     -31.015  19.022   0.358  0.00  0.00    -0.000 C 
ATOM     35  C   UNL     1     -31.755  18.100   1.116  0.00  0.00    -0.000 C 
ATOM     36  C   UNL     1     -30.881  21.162  -0.792  0.00  0.00    -0.000 C 
ATOM     37  C   UNL     1     -29.688  18.763  -0.018  0.00  0.00    -0.000 C 
ATOM     38  C   UNL     1     -29.563  20.888  -1.157  0.00  0.00    -0.000 C 
ATOM     39  C   UNL     1     -28.967  19.691  -0.771  0.00  0.00    -0.000 C 
ENDBRANCH  29  30
ENDBRANCH   1  29
TORSDOF 12
ENDMDL
MODEL 6
REMARK VINA RESULT:      -6.6      2.403      5.006
REMARK  Name = 51490020
REMARK  12 active torsions:
REMARK  status: ('A' for Active; 'I' for Inactive)
REMARK    1  A    between atoms: C_1  and  N_3
REMARK    2  A    between atoms: C_1  and  C_20
REMARK    3  A    between atoms: C_1  and  C_29
REMARK    4  A    between atoms: C_4  and  C_6
REMARK    5  A    between atoms: C_6  and  C_7
REMARK    6  A    between atoms: C_6  and  C_11
REMARK    7  A    between atoms: C_7  and  C_8
REMARK    8  A    between atoms: C_11  and  C_14
REMARK    9  A    between atoms: N_13  and  O_16
REMARK   10  A    between atoms: N_19  and  C_22
REMARK   11  A    between atoms: C_22  and  C_26
REMARK   12  A    between atoms: C_29  and  C_30
REMARK                            x       y       z     vdW  Elec       q    Type
REMARK                         _______ _______ _______ _____ _____    ______ ____
ROOT
ATOM      1  C   UNL     1     -36.013  21.697   1.795  0.00  0.00    +0.153 C 
ENDROOT
BRANCH   1   3
ATOM      2  O   UNL     1     -35.455  23.520  -0.351  0.00  0.00    -0.275 OA
ATOM      3  N   UNL     1     -34.747  22.327   1.507  0.00  0.00    -0.298 N 
ATOM      4  C   UNL     1     -34.572  23.197   0.445  0.00  0.00    +0.223 C 
ATOM      5  H   UNL     1     -33.977  22.132   2.089  0.00  0.00    +0.150 HD
BRANCH   4   6
ATOM      6  C   UNL     1     -33.156  23.756   0.319  0.00  0.00    +0.086 C 
BRANCH   6   7
ATOM      7  C   UNL     1     -32.482  23.350  -1.008  0.00  0.00    +0.010 C 
BRANCH   7   8
ATOM      8  C   UNL     1     -32.300  21.831  -1.210  0.00  0.00    +0.000 C 
ATOM      9  C   UNL     1     -32.628  21.462  -2.660  0.00  0.00    +0.000 C 
ATOM     10  C   UNL     1     -30.885  21.360  -0.869  0.00  0.00    +0.000 C 
ENDBRANCH   7   8
ENDBRANCH   6   7
BRANCH   6  11
ATOM     11  C   UNL     1     -33.175  25.287   0.489  0.00  0.00    +0.096 C 
BRANCH  11  14
ATOM     12  O   UNL     1     -31.242  25.841   1.800  0.00  0.00    -0.273 OA
ATOM     13  N   UNL     1     -33.323  25.925   2.806  0.00  0.00    -0.197 N 
ATOM     14  C   UNL     1     -32.464  25.718   1.756  0.00  0.00    +0.245 C 
ATOM     15  H   UNL     1     -34.296  25.812   2.715  0.00  0.00    +0.182 HD
BRANCH  13  16
ATOM     16  O   UNL     1     -32.728  26.308   4.015  0.00  0.00    -0.295 OA
ATOM     17  H   UNL     1     -31.773  26.415   3.886  0.00  0.00    +0.241 HD
ENDBRANCH  13  16
ENDBRANCH  11  14
ENDBRANCH   6  11
ENDBRANCH   4   6
ENDBRANCH   1   3
BRANCH   1  20
ATOM     18  O   UNL     1     -37.732  22.829   3.076  0.00  0.00    -0.273 OA
ATOM     19  N   UNL     1     -35.687  22.389   4.087  0.00  0.00    -0.297 N 
ATOM     20  C   UNL     1     -36.587  22.382   3.030  0.00  0.00    +0.241 C 
ATOM     21  H   UNL     1     -34.793  22.004   3.941  0.00  0.00    +0.150 HD
BRANCH  19  22
ATOM     22  C   UNL     1     -35.997  22.933   5.389  0.00  0.00    +0.148 C 
ATOM     23  C   UNL     1     -35.196  22.235   6.477  0.00  0.00    +0.031 C 
BRANCH  22  26
ATOM     24  O   UNL     1     -34.578  24.899   5.529  0.00  0.00    -0.274 OA
ATOM     25  N   UNL     1     -36.815  25.189   5.094  0.00  0.00    -0.327 N 
ATOM     26  C   UNL     1     -35.699  24.424   5.365  0.00  0.00    +0.237 C 
ATOM     27  H   UNL     1     -36.742  26.169   5.054  0.00  0.00    +0.145 HD
ATOM     28  H   UNL     1     -37.685  24.753   4.942  0.00  0.00    +0.145 HD
ENDBRANCH  22  26
ENDBRANCH  19  22
ENDBRANCH   1  20
BRANCH   1  29
ATOM     29  C   UNL     1     -35.869  20.191   2.039  0.00  0.00    +0.055 C 
BRANCH  29  30
ATOM     30  C   UNL     1     -34.902  19.534   1.084  0.00  0.00    -0.020 C 
ATOM     31  C   UNL     1     -33.632  19.158   1.525  0.00  0.00    -0.004 C 
ATOM     32  C   UNL     1     -35.276  19.306  -0.237  0.00  0.00    -0.004 C 
ATOM     33  C   UNL     1     -32.721  18.547   0.648  0.00  0.00    -0.000 C 
ATOM     34  C   UNL     1     -33.101  18.315  -0.695  0.00  0.00    -0.000 C 
ATOM     35  C   UNL     1     -34.383  18.700  -1.121  0.00  0.00    -0.000 C 
ATOM     36  C   UNL     1     -31.439  18.162   1.076  0.00  0.00    -0.000 C 
ATOM     37  C   UNL     1     -32.190  17.705  -1.571  0.00  0.00    -0.000 C 
ATOM     38  C   UNL     1     -30.547  17.557   0.191  0.00  0.00    -0.000 C 
ATOM     39  C   UNL     1     -30.921  17.329  -1.130  0.00  0.00    -0.000 C 
ENDBRANCH  29  30
ENDBRANCH   1  29
TORSDOF 12
ENDMDL
MODEL 7
REMARK VINA RESULT:      -6.6      2.054      5.066
REMARK  Name = 51490020
REMARK  12 active torsions:
REMARK  status: ('A' for Active; 'I' for Inactive)
REMARK    1  A    between atoms: C_1  and  N_3
REMARK    2  A    between atoms: C_1  and  C_20
REMARK    3  A    between atoms: C_1  and  C_29
REMARK    4  A    between atoms: C_4  and  C_6
REMARK    5  A    between atoms: C_6  and  C_7
REMARK    6  A    between atoms: C_6  and  C_11
REMARK    7  A    between atoms: C_7  and  C_8
REMARK    8  A    between atoms: C_11  and  C_14
REMARK    9  A    between atoms: N_13  and  O_16
REMARK   10  A    between atoms: N_19  and  C_22
REMARK   11  A    between atoms: C_22  and  C_26
REMARK   12  A    between atoms: C_29  and  C_30
REMARK                            x       y       z     vdW  Elec       q    Type
REMARK                         _______ _______ _______ _____ _____    ______ ____
ROOT
ATOM      1  C   UNL     1     -36.125  21.188   2.450  0.00  0.00    +0.153 C 
ENDROOT
BRANCH   1   3
ATOM      2  O   UNL     1     -37.916  20.173   0.449  0.00  0.00    -0.275 OA
ATOM      3  N   UNL     1     -37.497  21.585   2.240  0.00  0.00    -0.298 N 
ATOM      4  C   UNL     1     -38.287  21.037   1.245  0.00  0.00    +0.223 C 
ATOM      5  H   UNL     1     -37.887  22.272   2.828  0.00  0.00    +0.150 HD
BRANCH   4   6
ATOM      6  C   UNL     1     -39.709  21.593   1.196  0.00  0.00    +0.086 C 
BRANCH   6   7
ATOM      7  C   UNL     1     -39.843  22.924   1.964  0.00  0.00    +0.010 C 
BRANCH   7   8
ATOM      8  C   UNL     1     -39.983  24.180   1.078  0.00  0.00    +0.000 C 
ATOM      9  C   UNL     1     -41.021  25.126   1.688  0.00  0.00    +0.000 C 
ATOM     10  C   UNL     1     -38.657  24.920   0.897  0.00  0.00    +0.000 C 
ENDBRANCH   7   8
ENDBRANCH   6   7
BRANCH   6  11
ATOM     11  C   UNL     1     -40.168  21.745  -0.266  0.00  0.00    +0.096 C 
BRANCH  11  14
ATOM     12  O   UNL     1     -41.645  19.914  -0.746  0.00  0.00    -0.273 OA
ATOM     13  N   UNL     1     -42.556  22.013  -0.411  0.00  0.00    -0.197 N 
ATOM     14  C   UNL     1     -41.525  21.112  -0.496  0.00  0.00    +0.245 C 
ATOM     15  H   UNL     1     -42.404  22.964  -0.206  0.00  0.00    +0.182 HD
BRANCH  13  16
ATOM     16  O   UNL     1     -43.839  21.496  -0.631  0.00  0.00    -0.295 OA
ATOM     17  H   UNL     1     -43.769  20.585  -0.955  0.00  0.00    +0.241 HD
ENDBRANCH  13  16
ENDBRANCH  11  14
ENDBRANCH   6  11
ENDBRANCH   4   6
ENDBRANCH   1   3
BRANCH   1  20
ATOM     18  O   UNL     1     -35.168  21.168   4.677  0.00  0.00    -0.273 OA
ATOM     19  N   UNL     1     -35.843  23.195   3.765  0.00  0.00    -0.297 N 
ATOM     20  C   UNL     1     -35.669  21.818   3.761  0.00  0.00    +0.241 C 
ATOM     21  H   UNL     1     -36.257  23.616   2.977  0.00  0.00    +0.150 HD
BRANCH  19  22
ATOM     22  C   UNL     1     -35.447  24.041   4.867  0.00  0.00    +0.148 C 
ATOM     23  C   UNL     1     -34.013  24.518   4.703  0.00  0.00    +0.031 C 
BRANCH  22  26
ATOM     24  O   UNL     1     -36.112  26.316   5.396  0.00  0.00    -0.274 OA
ATOM     25  N   UNL     1     -37.639  24.935   4.378  0.00  0.00    -0.327 N 
ATOM     26  C   UNL     1     -36.409  25.217   4.933  0.00  0.00    +0.237 C 
ATOM     27  H   UNL     1     -38.343  25.623   4.364  0.00  0.00    +0.145 HD
ATOM     28  H   UNL     1     -37.814  24.045   3.994  0.00  0.00    +0.145 HD
ENDBRANCH  22  26
ENDBRANCH  19  22
ENDBRANCH   1  20
BRANCH   1  29
ATOM     29  C   UNL     1     -35.212  21.629   1.300  0.00  0.00    +0.055 C 
BRANCH  29  30
ATOM     30  C   UNL     1     -34.052  20.688   1.082  0.00  0.00    -0.020 C 
ATOM     31  C   UNL     1     -32.953  21.100   0.328  0.00  0.00    -0.004 C 
ATOM     32  C   UNL     1     -34.080  19.410   1.633  0.00  0.00    -0.004 C 
ATOM     33  C   UNL     1     -31.866  20.235   0.115  0.00  0.00    -0.000 C 
ATOM     34  C   UNL     1     -31.895  18.936   0.674  0.00  0.00    -0.000 C 
ATOM     35  C   UNL     1     -33.009  18.539   1.430  0.00  0.00    -0.000 C 
ATOM     36  C   UNL     1     -30.751  20.633  -0.642  0.00  0.00    -0.000 C 
ATOM     37  C   UNL     1     -30.809  18.072   0.461  0.00  0.00    -0.000 C 
ATOM     38  C   UNL     1     -29.681  19.762  -0.844  0.00  0.00    -0.000 C 
ATOM     39  C   UNL     1     -29.710  18.484  -0.293  0.00  0.00    -0.000 C 
ENDBRANCH  29  30
ENDBRANCH   1  29
TORSDOF 12
ENDMDL
MODEL 8
REMARK VINA RESULT:      -6.6      2.635      4.345
REMARK  Name = 51490020
REMARK  12 active torsions:
REMARK  status: ('A' for Active; 'I' for Inactive)
REMARK    1  A    between atoms: C_1  and  N_3
REMARK    2  A    between atoms: C_1  and  C_20
REMARK    3  A    between atoms: C_1  and  C_29
REMARK    4  A    between atoms: C_4  and  C_6
REMARK    5  A    between atoms: C_6  and  C_7
REMARK    6  A    between atoms: C_6  and  C_11
REMARK    7  A    between atoms: C_7  and  C_8
REMARK    8  A    between atoms: C_11  and  C_14
REMARK    9  A    between atoms: N_13  and  O_16
REMARK   10  A    between atoms: N_19  and  C_22
REMARK   11  A    between atoms: C_22  and  C_26
REMARK   12  A    between atoms: C_29  and  C_30
REMARK                            x       y       z     vdW  Elec       q    Type
REMARK                         _______ _______ _______ _____ _____    ______ ____
ROOT
ATOM      1  C   UNL     1     -36.854  24.854   1.401  0.00  0.00    +0.153 C 
ENDROOT
BRANCH   1   3
ATOM      2  O   UNL     1     -38.212  24.416   3.891  0.00  0.00    -0.275 OA
ATOM      3  N   UNL     1     -36.248  24.757   2.707  0.00  0.00    -0.298 N 
ATOM      4  C   UNL     1     -36.988  24.543   3.858  0.00  0.00    +0.223 C 
ATOM      5  H   UNL     1     -35.271  24.845   2.784  0.00  0.00    +0.150 HD
BRANCH   4   6
ATOM      6  C   UNL     1     -36.154  24.469   5.135  0.00  0.00    +0.086 C 
BRANCH   6   7
ATOM      7  C   UNL     1     -34.790  23.785   4.904  0.00  0.00    +0.010 C 
BRANCH   7   8
ATOM      8  C   UNL     1     -34.671  22.355   5.473  0.00  0.00    +0.000 C 
ATOM      9  C   UNL     1     -35.527  22.231   6.737  0.00  0.00    +0.000 C 
ATOM     10  C   UNL     1     -35.090  21.286   4.462  0.00  0.00    +0.000 C 
ENDBRANCH   7   8
ENDBRANCH   6   7
BRANCH   6  11
ATOM     11  C   UNL     1     -35.977  25.877   5.733  0.00  0.00    +0.096 C 
BRANCH  11  14
ATOM     12  O   UNL     1     -34.641  27.021   4.099  0.00  0.00    -0.273 OA
ATOM     13  N   UNL     1     -33.698  26.531   6.153  0.00  0.00    -0.197 N 
ATOM     14  C   UNL     1     -34.713  26.544   5.230  0.00  0.00    +0.245 C 
ATOM     15  H   UNL     1     -33.810  26.135   7.047  0.00  0.00    +0.182 HD
BRANCH  13  16
ATOM     16  O   UNL     1     -32.493  27.117   5.744  0.00  0.00    -0.295 OA
ATOM     17  H   UNL     1     -32.094  26.580   5.042  0.00  0.00    +0.241 HD
ENDBRANCH  13  16
ENDBRANCH  11  14
ENDBRANCH   6  11
ENDBRANCH   4   6
ENDBRANCH   1   3
BRANCH   1  20
ATOM     18  O   UNL     1     -37.574  27.145   1.728  0.00  0.00    -0.273 OA
ATOM     19  N   UNL     1     -39.151  25.549   1.127  0.00  0.00    -0.297 N 
ATOM     20  C   UNL     1     -37.875  25.984   1.459  0.00  0.00    +0.241 C 
ATOM     21  H   UNL     1     -39.282  24.594   0.929  0.00  0.00    +0.150 HD
BRANCH  19  22
ATOM     22  C   UNL     1     -40.295  26.428   1.058  0.00  0.00    +0.148 C 
ATOM     23  C   UNL     1     -41.106  26.172  -0.203  0.00  0.00    +0.031 C 
BRANCH  22  26
ATOM     24  O   UNL     1     -42.347  25.973   2.276  0.00  0.00    -0.274 OA
ATOM     25  N   UNL     1     -40.403  26.257   3.467  0.00  0.00    -0.327 N 
ATOM     26  C   UNL     1     -41.141  26.208   2.302  0.00  0.00    +0.237 C 
ATOM     27  H   UNL     1     -40.846  26.128   4.336  0.00  0.00    +0.145 HD
ATOM     28  H   UNL     1     -39.433  26.420   3.428  0.00  0.00    +0.145 HD
ENDBRANCH  22  26
ENDBRANCH  19  22
ENDBRANCH   1  20
BRANCH   1  29
ATOM     29  C   UNL     1     -37.530  23.545   0.977  0.00  0.00    +0.055 C 
BRANCH  29  30
ATOM     30  C   UNL     1     -36.589  22.365   1.007  0.00  0.00    -0.020 C 
ATOM     31  C   UNL     1     -35.280  22.505   0.543  0.00  0.00    -0.004 C 
ATOM     32  C   UNL     1     -37.027  21.138   1.496  0.00  0.00    -0.004 C 
ATOM     33  C   UNL     1     -34.393  21.417   0.563  0.00  0.00    -0.000 C 
ATOM     34  C   UNL     1     -34.839  20.169   1.060  0.00  0.00    -0.000 C 
ATOM     35  C   UNL     1     -36.159  20.047   1.522  0.00  0.00    -0.000 C 
ATOM     36  C   UNL     1     -33.072  21.540   0.100  0.00  0.00    -0.000 C 
ATOM     37  C   UNL     1     -33.952  19.081   1.079  0.00  0.00    -0.000 C 
ATOM     38  C   UNL     1     -32.205  20.448   0.127  0.00  0.00    -0.000 C 
ATOM     39  C   UNL     1     -32.644  19.221   0.616  0.00  0.00    -0.000 C 
ENDBRANCH  29  30
ENDBRANCH   1  29
TORSDOF 12
ENDMDL
MODEL 9
REMARK VINA RESULT:      -6.5      4.316      8.384
REMARK  Name = 51490020
REMARK  12 active torsions:
REMARK  status: ('A' for Active; 'I' for Inactive)
REMARK    1  A    between atoms: C_1  and  N_3
REMARK    2  A    between atoms: C_1  and  C_20
REMARK    3  A    between atoms: C_1  and  C_29
REMARK    4  A    between atoms: C_4  and  C_6
REMARK    5  A    between atoms: C_6  and  C_7
REMARK    6  A    between atoms: C_6  and  C_11
REMARK    7  A    between atoms: C_7  and  C_8
REMARK    8  A    between atoms: C_11  and  C_14
REMARK    9  A    between atoms: N_13  and  O_16
REMARK   10  A    between atoms: N_19  and  C_22
REMARK   11  A    between atoms: C_22  and  C_26
REMARK   12  A    between atoms: C_29  and  C_30
REMARK                            x       y       z     vdW  Elec       q    Type
REMARK                         _______ _______ _______ _____ _____    ______ ____
ROOT
ATOM      1  C   UNL     1     -33.971  26.641   4.906  0.00  0.00    +0.153 C 
ENDROOT
BRANCH   1   3
ATOM      2  O   UNL     1     -34.618  27.497   2.244  0.00  0.00    -0.275 OA
ATOM      3  N   UNL     1     -33.323  26.225   3.686  0.00  0.00    -0.298 N 
ATOM      4  C   UNL     1     -33.705  26.694   2.441  0.00  0.00    +0.223 C 
ATOM      5  H   UNL     1     -32.579  25.583   3.740  0.00  0.00    +0.150 HD
BRANCH   4   6
ATOM      6  C   UNL     1     -32.887  26.131   1.280  0.00  0.00    +0.086 C 
BRANCH   6   7
ATOM      7  C   UNL     1     -33.779  25.547   0.165  0.00  0.00    +0.010 C 
BRANCH   7   8
ATOM      8  C   UNL     1     -34.688  24.378   0.599  0.00  0.00    +0.000 C 
ATOM      9  C   UNL     1     -36.059  24.517  -0.069  0.00  0.00    +0.000 C 
ATOM     10  C   UNL     1     -34.088  23.013   0.260  0.00  0.00    +0.000 C 
ENDBRANCH   7   8
ENDBRANCH   6   7
BRANCH   6  11
ATOM     11  C   UNL     1     -31.940  27.212   0.728  0.00  0.00    +0.096 C 
BRANCH  11  14
ATOM     12  O   UNL     1     -30.084  28.378   1.707  0.00  0.00    -0.273 OA
ATOM     13  N   UNL     1     -30.253  26.095   2.034  0.00  0.00    -0.197 N 
ATOM     14  C   UNL     1     -30.665  27.308   1.542  0.00  0.00    +0.245 C 
ATOM     15  H   UNL     1     -30.758  25.266   1.872  0.00  0.00    +0.182 HD
BRANCH  13  16
ATOM     16  O   UNL     1     -29.069  26.110   2.782  0.00  0.00    -0.295 OA
ATOM     17  H   UNL     1     -29.270  26.341   3.702  0.00  0.00    +0.241 HD
ENDBRANCH  13  16
ENDBRANCH  11  14
ENDBRANCH   6  11
ENDBRANCH   4   6
ENDBRANCH   1   3
BRANCH   1  20
ATOM     18  O   UNL     1     -32.566  26.839   6.871  0.00  0.00    -0.273 OA
ATOM     19  N   UNL     1     -32.357  28.417   5.179  0.00  0.00    -0.297 N 
ATOM     20  C   UNL     1     -32.909  27.295   5.782  0.00  0.00    +0.241 C 
ATOM     21  H   UNL     1     -32.707  28.696   4.302  0.00  0.00    +0.150 HD
BRANCH  19  22
ATOM     22  C   UNL     1     -31.294  29.194   5.774  0.00  0.00    +0.148 C 
ATOM     23  C   UNL     1     -31.688  29.692   7.156  0.00  0.00    +0.031 C 
BRANCH  22  26
ATOM     24  O   UNL     1     -29.517  27.816   4.859  0.00  0.00    -0.274 OA
ATOM     25  N   UNL     1     -29.552  28.200   7.124  0.00  0.00    -0.327 N 
ATOM     26  C   UNL     1     -30.049  28.324   5.843  0.00  0.00    +0.237 C 
ATOM     27  H   UNL     1     -28.747  27.659   7.289  0.00  0.00    +0.145 HD
ATOM     28  H   UNL     1     -30.003  28.654   7.872  0.00  0.00    +0.145 HD
ENDBRANCH  22  26
ENDBRANCH  19  22
ENDBRANCH   1  20
BRANCH   1  29
ATOM     29  C   UNL     1     -34.623  25.467   5.645  0.00  0.00    +0.055 C 
BRANCH  29  30
ATOM     30  C   UNL     1     -35.491  24.619   4.746  0.00  0.00    -0.020 C 
ATOM     31  C   UNL     1     -35.067  23.343   4.371  0.00  0.00    -0.004 C 
ATOM     32  C   UNL     1     -36.710  25.111   4.292  0.00  0.00    -0.004 C 
ATOM     33  C   UNL     1     -35.862  22.543   3.534  0.00  0.00    -0.000 C 
ATOM     34  C   UNL     1     -37.102  23.043   3.071  0.00  0.00    -0.000 C 
ATOM     35  C   UNL     1     -37.512  24.329   3.459  0.00  0.00    -0.000 C 
ATOM     36  C   UNL     1     -35.452  21.257   3.146  0.00  0.00    -0.000 C 
ATOM     37  C   UNL     1     -37.896  22.243   2.234  0.00  0.00    -0.000 C 
ATOM     38  C   UNL     1     -36.254  20.476   2.314  0.00  0.00    -0.000 C 
ATOM     39  C   UNL     1     -37.474  20.968   1.859  0.00  0.00    -0.000 C 
ENDBRANCH  29  30
ENDBRANCH   1  29
TORSDOF 12
ENDMDL
