MODEL 1
REMARK VINA RESULT:      -5.9      0.000      0.000
REMARK  Name = 195021
REMARK  8 active torsions:
REMARK  status: ('A' for Active; 'I' for Inactive)
REMARK    1  A    between atoms: C_2  and  C_10
REMARK    2  A    between atoms: C_3  and  C_24
REMARK    3  A    between atoms: C_4  and  N_22
REMARK    4  A    between atoms: C_11  and  C_19
REMARK    5  A    between atoms: C_24  and  O_25
REMARK    6  A    between atoms: O_25  and  C_26
REMARK    7  A    between atoms: C_26  and  C_27
REMARK    8  A    between atoms: C_27  and  N_28
REMARK                            x       y       z     vdW  Elec       q    Type
REMARK                         _______ _______ _______ _____ _____    ______ ____
ROOT
ATOM      1  N   UNL     1     -35.510  21.401   4.112  0.00  0.00    -0.332 N 
ATOM      2  C   UNL     1     -35.609  23.962   2.865  0.00  0.00    +0.027 C 
ATOM      3  C   UNL     1     -35.454  23.762   4.382  0.00  0.00    +0.073 C 
ATOM      4  C   UNL     1     -35.574  22.640   2.127  0.00  0.00    +0.152 C 
ATOM      5  C   UNL     1     -35.425  22.522   4.929  0.00  0.00    +0.098 C 
ATOM      6  C   UNL     1     -35.544  21.435   2.725  0.00  0.00    +0.045 C 
ATOM      7  C   UNL     1     -35.310  22.225   6.400  0.00  0.00    +0.026 C 
ATOM      8  C   UNL     1     -35.533  20.087   2.054  0.00  0.00    +0.049 C 
ATOM      9  H   UNL     1     -35.551  20.519   4.548  0.00  0.00    +0.147 HD
ENDROOT
BRANCH   2  10
ATOM     10  C   UNL     1     -36.888  24.694   2.573  0.00  0.00    +0.005 C 
ATOM     11  C   UNL     1     -36.873  25.906   1.892  0.00  0.00    +0.071 C 
ATOM     12  C   UNL     1     -38.090  24.135   2.995  0.00  0.00    -0.000 C 
ATOM     13  C   UNL     1     -38.072  26.568   1.630  0.00  0.00    +0.004 C 
ATOM     14  C   UNL     1     -39.290  24.796   2.734  0.00  0.00    -0.000 C 
ATOM     15  C   UNL     1     -39.281  26.013   2.052  0.00  0.00    -0.000 C 
BRANCH  11  19
ATOM     16  F   UNL     1     -34.667  26.662   2.426  0.00  0.00    -0.166 F 
ATOM     17  F   UNL     1     -34.961  25.801   0.458  0.00  0.00    -0.166 F 
ATOM     18  F   UNL     1     -35.767  27.770   0.912  0.00  0.00    -0.166 F 
ATOM     19  C   UNL     1     -35.591  26.520   1.432  0.00  0.00    +0.419 C 
ENDBRANCH  11  19
ENDBRANCH   2  10
BRANCH   4  22
ATOM     20  O   UNL     1     -36.573  22.686   0.084  0.00  0.00    -0.126 OA
ATOM     21  O   UNL     1     -34.378  22.823   0.202  0.00  0.00    -0.126 OA
ATOM     22  N   UNL     1     -35.503  22.722   0.707  0.00  0.00    +0.059 N 
ENDBRANCH   4  22
BRANCH   3  24
ATOM     23  O   UNL     1     -36.195  25.601   5.680  0.00  0.00    -0.245 OA
ATOM     24  C   UNL     1     -35.270  24.978   5.190  0.00  0.00    +0.339 C 
BRANCH  24  25
ATOM     25  O   UNL     1     -33.943  25.243   5.270  0.00  0.00    -0.448 OA
BRANCH  25  26
ATOM     26  C   UNL     1     -33.609  26.627   5.419  0.00  0.00    +0.185 C 
BRANCH  26  27
ATOM     27  C   UNL     1     -33.000  26.836   6.796  0.00  0.00    -0.038 C 
BRANCH  27  28
ATOM     28  N   UNL     1     -32.287  28.104   6.855  0.00  0.00    +0.383 N 
ATOM     29  H   UNL     1     -31.284  27.933   6.794  0.00  0.00    -0.089 HD
ATOM     30  H   UNL     1     -32.500  28.572   7.736  0.00  0.00    -0.089 HD
ATOM     31  H   UNL     1     -32.580  28.694   6.078  0.00  0.00    -0.089 HD
ENDBRANCH  27  28
ENDBRANCH  26  27
ENDBRANCH  25  26
ENDBRANCH  24  25
ENDBRANCH   3  24
TORSDOF 8
ENDMDL
MODEL 2
REMARK VINA RESULT:      -5.8      2.846      6.036
REMARK  Name = 195021
REMARK  8 active torsions:
REMARK  status: ('A' for Active; 'I' for Inactive)
REMARK    1  A    between atoms: C_2  and  C_10
REMARK    2  A    between atoms: C_3  and  C_24
REMARK    3  A    between atoms: C_4  and  N_22
REMARK    4  A    between atoms: C_11  and  C_19
REMARK    5  A    between atoms: C_24  and  O_25
REMARK    6  A    between atoms: O_25  and  C_26
REMARK    7  A    between atoms: C_26  and  C_27
REMARK    8  A    between atoms: C_27  and  N_28
REMARK                            x       y       z     vdW  Elec       q    Type
REMARK                         _______ _______ _______ _____ _____    ______ ____
ROOT
ATOM      1  N   UNL     1     -37.016  26.847   2.660  0.00  0.00    -0.332 N 
ATOM      2  C   UNL     1     -35.948  24.209   2.498  0.00  0.00    +0.027 C 
ATOM      3  C   UNL     1     -37.449  24.525   2.393  0.00  0.00    +0.073 C 
ATOM      4  C   UNL     1     -35.121  25.476   2.569  0.00  0.00    +0.152 C 
ATOM      5  C   UNL     1     -37.910  25.796   2.489  0.00  0.00    +0.098 C 
ATOM      6  C   UNL     1     -35.635  26.717   2.662  0.00  0.00    +0.045 C 
ATOM      7  C   UNL     1     -39.358  26.201   2.433  0.00  0.00    +0.026 C 
ATOM      8  C   UNL     1     -34.873  28.011   2.760  0.00  0.00    +0.049 C 
ATOM      9  H   UNL     1     -37.390  27.748   2.790  0.00  0.00    +0.147 HD
ENDROOT
BRANCH   2  10
ATOM     10  C   UNL     1     -35.689  23.344   3.698  0.00  0.00    +0.005 C 
ATOM     11  C   UNL     1     -35.340  22.007   3.547  0.00  0.00    +0.071 C 
ATOM     12  C   UNL     1     -35.802  23.907   4.965  0.00  0.00    -0.000 C 
ATOM     13  C   UNL     1     -35.102  21.222   4.675  0.00  0.00    +0.004 C 
ATOM     14  C   UNL     1     -35.565  23.122   6.094  0.00  0.00    -0.000 C 
ATOM     15  C   UNL     1     -35.216  21.780   5.949  0.00  0.00    -0.000 C 
BRANCH  11  19
ATOM     16  F   UNL     1     -36.413  21.075   1.622  0.00  0.00    -0.166 F 
ATOM     17  F   UNL     1     -34.581  22.187   1.285  0.00  0.00    -0.166 F 
ATOM     18  F   UNL     1     -34.502  20.222   2.216  0.00  0.00    -0.166 F 
ATOM     19  C   UNL     1     -35.213  21.387   2.193  0.00  0.00    +0.419 C 
ENDBRANCH  11  19
ENDBRANCH   2  10
BRANCH   4  22
ATOM     20  O   UNL     1     -33.045  25.444   3.496  0.00  0.00    -0.126 OA
ATOM     21  O   UNL     1     -33.259  25.033   1.343  0.00  0.00    -0.126 OA
ATOM     22  N   UNL     1     -33.712  25.306   2.462  0.00  0.00    +0.059 N 
ENDBRANCH   4  22
BRANCH   3  24
ATOM     23  O   UNL     1     -38.904  22.751   2.988  0.00  0.00    -0.245 OA
ATOM     24  C   UNL     1     -38.343  23.388   2.115  0.00  0.00    +0.339 C 
BRANCH  24  25
ATOM     25  O   UNL     1     -38.404  23.211   0.773  0.00  0.00    -0.448 OA
BRANCH  25  26
ATOM     26  C   UNL     1     -39.628  22.643   0.293  0.00  0.00    +0.185 C 
BRANCH  26  27
ATOM     27  C   UNL     1     -40.562  23.771  -0.115  0.00  0.00    -0.038 C 
BRANCH  27  28
ATOM     28  N   UNL     1     -41.670  23.884   0.821  0.00  0.00    +0.383 N 
ATOM     29  H   UNL     1     -41.938  24.863   0.915  0.00  0.00    -0.089 HD
ATOM     30  H   UNL     1     -41.385  23.520   1.730  0.00  0.00    -0.089 HD
ATOM     31  H   UNL     1     -42.464  23.346   0.474  0.00  0.00    -0.089 HD
ENDBRANCH  27  28
ENDBRANCH  26  27
ENDBRANCH  25  26
ENDBRANCH  24  25
ENDBRANCH   3  24
TORSDOF 8
ENDMDL
MODEL 3
REMARK VINA RESULT:      -5.6      2.240      4.942
REMARK  Name = 195021
REMARK  8 active torsions:
REMARK  status: ('A' for Active; 'I' for Inactive)
REMARK    1  A    between atoms: C_2  and  C_10
REMARK    2  A    between atoms: C_3  and  C_24
REMARK    3  A    between atoms: C_4  and  N_22
REMARK    4  A    between atoms: C_11  and  C_19
REMARK    5  A    between atoms: C_24  and  O_25
REMARK    6  A    between atoms: O_25  and  C_26
REMARK    7  A    between atoms: C_26  and  C_27
REMARK    8  A    between atoms: C_27  and  N_28
REMARK                            x       y       z     vdW  Elec       q    Type
REMARK                         _______ _______ _______ _____ _____    ______ ____
ROOT
ATOM      1  N   UNL     1     -36.726  22.595   3.934  0.00  0.00    -0.332 N 
ATOM      2  C   UNL     1     -36.007  25.152   2.901  0.00  0.00    +0.027 C 
ATOM      3  C   UNL     1     -37.092  24.258   2.276  0.00  0.00    +0.073 C 
ATOM      4  C   UNL     1     -35.475  24.556   4.187  0.00  0.00    +0.152 C 
ATOM      5  C   UNL     1     -37.389  23.042   2.797  0.00  0.00    +0.098 C 
ATOM      6  C   UNL     1     -35.808  23.341   4.660  0.00  0.00    +0.045 C 
ATOM      7  C   UNL     1     -38.406  22.084   2.240  0.00  0.00    +0.026 C 
ATOM      8  C   UNL     1     -35.299  22.682   5.913  0.00  0.00    +0.049 C 
ATOM      9  H   UNL     1     -36.921  21.682   4.247  0.00  0.00    +0.147 HD
ENDROOT
BRANCH   2  10
ATOM     10  C   UNL     1     -34.892  25.366   1.919  0.00  0.00    +0.005 C 
ATOM     11  C   UNL     1     -34.527  26.649   1.526  0.00  0.00    +0.071 C 
ATOM     12  C   UNL     1     -34.226  24.256   1.411  0.00  0.00    -0.000 C 
ATOM     13  C   UNL     1     -33.487  26.825   0.615  0.00  0.00    +0.004 C 
ATOM     14  C   UNL     1     -33.185  24.430   0.498  0.00  0.00    -0.000 C 
ATOM     15  C   UNL     1     -32.816  25.715   0.100  0.00  0.00    -0.000 C 
BRANCH  11  19
ATOM     16  F   UNL     1     -36.591  27.779   1.962  0.00  0.00    -0.166 F 
ATOM     17  F   UNL     1     -34.983  28.085   3.385  0.00  0.00    -0.166 F 
ATOM     18  F   UNL     1     -34.876  29.000   1.414  0.00  0.00    -0.166 F 
ATOM     19  C   UNL     1     -35.232  27.852   2.063  0.00  0.00    +0.419 C 
ENDBRANCH  11  19
ENDBRANCH   2  10
BRANCH   4  22
ATOM     20  O   UNL     1     -33.399  25.260   4.791  0.00  0.00    -0.126 OA
ATOM     21  O   UNL     1     -35.157  26.201   5.725  0.00  0.00    -0.126 OA
ATOM     22  N   UNL     1     -34.619  25.397   4.954  0.00  0.00    +0.059 N 
ENDBRANCH   4  22
BRANCH   3  24
ATOM     23  O   UNL     1     -37.652  24.464  -0.018  0.00  0.00    -0.245 OA
ATOM     24  C   UNL     1     -37.830  24.821   1.133  0.00  0.00    +0.339 C 
BRANCH  24  25
ATOM     25  O   UNL     1     -38.691  25.757   1.599  0.00  0.00    -0.448 OA
BRANCH  25  26
ATOM     26  C   UNL     1     -40.067  25.363   1.610  0.00  0.00    +0.185 C 
BRANCH  26  27
ATOM     27  C   UNL     1     -40.683  25.780   2.936  0.00  0.00    -0.038 C 
BRANCH  27  28
ATOM     28  N   UNL     1     -40.037  25.091   4.042  0.00  0.00    +0.383 N 
ATOM     29  H   UNL     1     -39.441  24.347   3.679  0.00  0.00    -0.089 HD
ATOM     30  H   UNL     1     -40.747  24.689   4.654  0.00  0.00    -0.089 HD
ATOM     31  H   UNL     1     -39.469  25.754   4.570  0.00  0.00    -0.089 HD
ENDBRANCH  27  28
ENDBRANCH  26  27
ENDBRANCH  25  26
ENDBRANCH  24  25
ENDBRANCH   3  24
TORSDOF 8
ENDMDL
MODEL 4
REMARK VINA RESULT:      -5.5      3.047      4.450
REMARK  Name = 195021
REMARK  8 active torsions:
REMARK  status: ('A' for Active; 'I' for Inactive)
REMARK    1  A    between atoms: C_2  and  C_10
REMARK    2  A    between atoms: C_3  and  C_24
REMARK    3  A    between atoms: C_4  and  N_22
REMARK    4  A    between atoms: C_11  and  C_19
REMARK    5  A    between atoms: C_24  and  O_25
REMARK    6  A    between atoms: O_25  and  C_26
REMARK    7  A    between atoms: C_26  and  C_27
REMARK    8  A    between atoms: C_27  and  N_28
REMARK                            x       y       z     vdW  Elec       q    Type
REMARK                         _______ _______ _______ _____ _____    ______ ____
ROOT
ATOM      1  N   UNL     1     -38.171  25.205   3.867  0.00  0.00    -0.332 N 
ATOM      2  C   UNL     1     -36.645  22.921   3.104  0.00  0.00    +0.027 C 
ATOM      3  C   UNL     1     -36.198  23.918   4.186  0.00  0.00    +0.073 C 
ATOM      4  C   UNL     1     -38.037  23.242   2.600  0.00  0.00    +0.152 C 
ATOM      5  C   UNL     1     -36.953  24.997   4.505  0.00  0.00    +0.098 C 
ATOM      6  C   UNL     1     -38.744  24.331   2.954  0.00  0.00    +0.045 C 
ATOM      7  C   UNL     1     -36.586  26.043   5.523  0.00  0.00    +0.026 C 
ATOM      8  C   UNL     1     -40.116  24.720   2.474  0.00  0.00    +0.049 C 
ATOM      9  H   UNL     1     -38.662  26.032   4.078  0.00  0.00    +0.147 HD
ENDROOT
BRANCH   2  10
ATOM     10  C   UNL     1     -35.662  22.923   1.969  0.00  0.00    +0.005 C 
ATOM     11  C   UNL     1     -34.971  21.765   1.626  0.00  0.00    +0.071 C 
ATOM     12  C   UNL     1     -35.455  24.104   1.264  0.00  0.00    -0.000 C 
ATOM     13  C   UNL     1     -34.064  21.788   0.567  0.00  0.00    +0.004 C 
ATOM     14  C   UNL     1     -34.547  24.129   0.205  0.00  0.00    -0.000 C 
ATOM     15  C   UNL     1     -33.851  22.971  -0.143  0.00  0.00    -0.000 C 
BRANCH  11  19
ATOM     16  F   UNL     1     -35.071  20.623   3.726  0.00  0.00    -0.166 F 
ATOM     17  F   UNL     1     -36.411  19.933   2.166  0.00  0.00    -0.166 F 
ATOM     18  F   UNL     1     -34.280  19.524   2.024  0.00  0.00    -0.166 F 
ATOM     19  C   UNL     1     -35.182  20.488   2.372  0.00  0.00    +0.419 C 
ENDBRANCH  11  19
ENDBRANCH   2  10
BRANCH   4  22
ATOM     20  O   UNL     1     -38.468  22.408   0.528  0.00  0.00    -0.126 OA
ATOM     21  O   UNL     1     -39.261  21.351   2.290  0.00  0.00    -0.126 OA
ATOM     22  N   UNL     1     -38.629  22.267   1.748  0.00  0.00    +0.059 N 
ENDBRANCH   4  22
BRANCH   3  24
ATOM     23  O   UNL     1     -34.911  22.909   5.901  0.00  0.00    -0.245 OA
ATOM     24  C   UNL     1     -34.949  23.599   4.899  0.00  0.00    +0.339 C 
BRANCH  24  25
ATOM     25  O   UNL     1     -33.921  24.195   4.249  0.00  0.00    -0.448 OA
BRANCH  25  26
ATOM     26  C   UNL     1     -33.532  25.470   4.771  0.00  0.00    +0.185 C 
BRANCH  26  27
ATOM     27  C   UNL     1     -33.384  26.447   3.615  0.00  0.00    -0.038 C 
BRANCH  27  28
ATOM     28  N   UNL     1     -33.851  27.771   3.998  0.00  0.00    +0.383 N 
ATOM     29  H   UNL     1     -33.205  28.176   4.675  0.00  0.00    -0.089 HD
ATOM     30  H   UNL     1     -34.779  27.697   4.415  0.00  0.00    -0.089 HD
ATOM     31  H   UNL     1     -33.896  28.367   3.172  0.00  0.00    -0.089 HD
ENDBRANCH  27  28
ENDBRANCH  26  27
ENDBRANCH  25  26
ENDBRANCH  24  25
ENDBRANCH   3  24
TORSDOF 8
ENDMDL
MODEL 5
REMARK VINA RESULT:      -5.4      2.602      4.762
REMARK  Name = 195021
REMARK  8 active torsions:
REMARK  status: ('A' for Active; 'I' for Inactive)
REMARK    1  A    between atoms: C_2  and  C_10
REMARK    2  A    between atoms: C_3  and  C_24
REMARK    3  A    between atoms: C_4  and  N_22
REMARK    4  A    between atoms: C_11  and  C_19
REMARK    5  A    between atoms: C_24  and  O_25
REMARK    6  A    between atoms: O_25  and  C_26
REMARK    7  A    between atoms: C_26  and  C_27
REMARK    8  A    between atoms: C_27  and  N_28
REMARK                            x       y       z     vdW  Elec       q    Type
REMARK                         _______ _______ _______ _____ _____    ______ ____
ROOT
ATOM      1  N   UNL     1     -37.392  26.842   1.060  0.00  0.00    -0.332 N 
ATOM      2  C   UNL     1     -36.765  24.936   3.085  0.00  0.00    +0.027 C 
ATOM      3  C   UNL     1     -35.764  25.980   2.562  0.00  0.00    +0.073 C 
ATOM      4  C   UNL     1     -38.139  25.138   2.481  0.00  0.00    +0.152 C 
ATOM      5  C   UNL     1     -36.106  26.858   1.587  0.00  0.00    +0.098 C 
ATOM      6  C   UNL     1     -38.423  26.030   1.514  0.00  0.00    +0.045 C 
ATOM      7  C   UNL     1     -35.190  27.891   0.989  0.00  0.00    +0.026 C 
ATOM      8  C   UNL     1     -39.756  26.264   0.856  0.00  0.00    +0.049 C 
ATOM      9  H   UNL     1     -37.587  27.450   0.311  0.00  0.00    +0.147 HD
ENDROOT
BRANCH   2  10
ATOM     10  C   UNL     1     -36.260  23.552   2.793  0.00  0.00    +0.005 C 
ATOM     11  C   UNL     1     -35.756  22.750   3.811  0.00  0.00    +0.071 C 
ATOM     12  C   UNL     1     -36.310  23.084   1.483  0.00  0.00    -0.000 C 
ATOM     13  C   UNL     1     -35.295  21.467   3.518  0.00  0.00    +0.004 C 
ATOM     14  C   UNL     1     -35.848  21.801   1.189  0.00  0.00    -0.000 C 
ATOM     15  C   UNL     1     -35.340  20.993   2.206  0.00  0.00    -0.000 C 
BRANCH  11  19
ATOM     16  F   UNL     1     -34.456  23.663   5.600  0.00  0.00    -0.166 F 
ATOM     17  F   UNL     1     -36.529  24.289   5.471  0.00  0.00    -0.166 F 
ATOM     18  F   UNL     1     -36.045  22.272   6.123  0.00  0.00    -0.166 F 
ATOM     19  C   UNL     1     -35.697  23.237   5.222  0.00  0.00    +0.419 C 
ENDBRANCH  11  19
ENDBRANCH   2  10
BRANCH   4  22
ATOM     20  O   UNL     1     -39.711  24.786   4.085  0.00  0.00    -0.126 OA
ATOM     21  O   UNL     1     -39.497  23.314   2.462  0.00  0.00    -0.126 OA
ATOM     22  N   UNL     1     -39.187  24.360   3.048  0.00  0.00    +0.059 N 
ENDBRANCH   4  22
BRANCH   3  24
ATOM     23  O   UNL     1     -33.463  25.454   2.779  0.00  0.00    -0.245 OA
ATOM     24  C   UNL     1     -34.448  26.018   3.221  0.00  0.00    +0.339 C 
BRANCH  24  25
ATOM     25  O   UNL     1     -34.556  26.761   4.349  0.00  0.00    -0.448 OA
BRANCH  25  26
ATOM     26  C   UNL     1     -33.314  27.080   4.985  0.00  0.00    +0.185 C 
BRANCH  26  27
ATOM     27  C   UNL     1     -33.357  26.577   6.420  0.00  0.00    -0.038 C 
BRANCH  27  28
ATOM     28  N   UNL     1     -32.543  27.419   7.284  0.00  0.00    +0.383 N 
ATOM     29  H   UNL     1     -32.890  27.359   8.241  0.00  0.00    -0.089 HD
ATOM     30  H   UNL     1     -32.594  28.386   6.963  0.00  0.00    -0.089 HD
ATOM     31  H   UNL     1     -31.575  27.101   7.252  0.00  0.00    -0.089 HD
ENDBRANCH  27  28
ENDBRANCH  26  27
ENDBRANCH  25  26
ENDBRANCH  24  25
ENDBRANCH   3  24
TORSDOF 8
ENDMDL
MODEL 6
REMARK VINA RESULT:      -5.3      2.500      5.711
REMARK  Name = 195021
REMARK  8 active torsions:
REMARK  status: ('A' for Active; 'I' for Inactive)
REMARK    1  A    between atoms: C_2  and  C_10
REMARK    2  A    between atoms: C_3  and  C_24
REMARK    3  A    between atoms: C_4  and  N_22
REMARK    4  A    between atoms: C_11  and  C_19
REMARK    5  A    between atoms: C_24  and  O_25
REMARK    6  A    between atoms: O_25  and  C_26
REMARK    7  A    between atoms: C_26  and  C_27
REMARK    8  A    between atoms: C_27  and  N_28
REMARK                            x       y       z     vdW  Elec       q    Type
REMARK                         _______ _______ _______ _____ _____    ______ ____
ROOT
ATOM      1  N   UNL     1     -37.715  25.138   4.199  0.00  0.00    -0.332 N 
ATOM      2  C   UNL     1     -35.901  24.331   2.154  0.00  0.00    +0.027 C 
ATOM      3  C   UNL     1     -37.428  24.352   1.974  0.00  0.00    +0.073 C 
ATOM      4  C   UNL     1     -35.495  24.907   3.494  0.00  0.00    +0.152 C 
ATOM      5  C   UNL     1     -38.251  24.732   2.982  0.00  0.00    +0.098 C 
ATOM      6  C   UNL     1     -36.359  25.271   4.460  0.00  0.00    +0.045 C 
ATOM      7  C   UNL     1     -39.754  24.754   2.914  0.00  0.00    +0.026 C 
ATOM      8  C   UNL     1     -36.023  25.825   5.818  0.00  0.00    +0.049 C 
ATOM      9  H   UNL     1     -38.343  25.345   4.928  0.00  0.00    +0.147 HD
ENDROOT
BRANCH   2  10
ATOM     10  C   UNL     1     -35.388  22.927   2.007  0.00  0.00    +0.005 C 
ATOM     11  C   UNL     1     -34.543  22.586   0.956  0.00  0.00    +0.071 C 
ATOM     12  C   UNL     1     -35.770  21.974   2.945  0.00  0.00    -0.000 C 
ATOM     13  C   UNL     1     -34.076  21.277   0.841  0.00  0.00    +0.004 C 
ATOM     14  C   UNL     1     -35.304  20.664   2.830  0.00  0.00    -0.000 C 
ATOM     15  C   UNL     1     -34.458  20.316   1.777  0.00  0.00    -0.000 C 
BRANCH  11  19
ATOM     16  F   UNL     1     -35.168  24.167  -0.727  0.00  0.00    -0.166 F 
ATOM     17  F   UNL     1     -33.424  24.644   0.471  0.00  0.00    -0.166 F 
ATOM     18  F   UNL     1     -33.315  23.067  -1.023  0.00  0.00    -0.166 F 
ATOM     19  C   UNL     1     -34.122  23.598  -0.059  0.00  0.00    +0.419 C 
ENDBRANCH  11  19
ENDBRANCH   2  10
BRANCH   4  22
ATOM     20  O   UNL     1     -33.519  24.400   4.499  0.00  0.00    -0.126 OA
ATOM     21  O   UNL     1     -33.574  26.022   3.010  0.00  0.00    -0.126 OA
ATOM     22  N   UNL     1     -34.101  25.125   3.680  0.00  0.00    +0.059 N 
ENDBRANCH   4  22
BRANCH   3  24
ATOM     23  O   UNL     1     -38.192  24.838  -0.216  0.00  0.00    -0.245 OA
ATOM     24  C   UNL     1     -37.938  24.007   0.636  0.00  0.00    +0.339 C 
BRANCH  24  25
ATOM     25  O   UNL     1     -38.058  22.659   0.559  0.00  0.00    -0.448 OA
BRANCH  25  26
ATOM     26  C   UNL     1     -39.302  22.191   0.027  0.00  0.00    +0.185 C 
BRANCH  26  27
ATOM     27  C   UNL     1     -40.048  21.441   1.118  0.00  0.00    -0.038 C 
BRANCH  27  28
ATOM     28  N   UNL     1     -39.136  21.029   2.175  0.00  0.00    +0.383 N 
ATOM     29  H   UNL     1     -39.660  20.560   2.913  0.00  0.00    -0.089 HD
ATOM     30  H   UNL     1     -38.668  21.850   2.558  0.00  0.00    -0.089 HD
ATOM     31  H   UNL     1     -38.440  20.389   1.792  0.00  0.00    -0.089 HD
ENDBRANCH  27  28
ENDBRANCH  26  27
ENDBRANCH  25  26
ENDBRANCH  24  25
ENDBRANCH   3  24
TORSDOF 8
ENDMDL
MODEL 7
REMARK VINA RESULT:      -5.3      2.201      3.017
REMARK  Name = 195021
REMARK  8 active torsions:
REMARK  status: ('A' for Active; 'I' for Inactive)
REMARK    1  A    between atoms: C_2  and  C_10
REMARK    2  A    between atoms: C_3  and  C_24
REMARK    3  A    between atoms: C_4  and  N_22
REMARK    4  A    between atoms: C_11  and  C_19
REMARK    5  A    between atoms: C_24  and  O_25
REMARK    6  A    between atoms: O_25  and  C_26
REMARK    7  A    between atoms: C_26  and  C_27
REMARK    8  A    between atoms: C_27  and  N_28
REMARK                            x       y       z     vdW  Elec       q    Type
REMARK                         _______ _______ _______ _____ _____    ______ ____
ROOT
ATOM      1  N   UNL     1     -34.715  24.182   5.776  0.00  0.00    -0.332 N 
ATOM      2  C   UNL     1     -35.209  24.584   2.998  0.00  0.00    +0.027 C 
ATOM      3  C   UNL     1     -34.522  25.625   3.897  0.00  0.00    +0.073 C 
ATOM      4  C   UNL     1     -35.466  23.292   3.746  0.00  0.00    +0.152 C 
ATOM      5  C   UNL     1     -34.321  25.393   5.217  0.00  0.00    +0.098 C 
ATOM      6  C   UNL     1     -35.244  23.117   5.062  0.00  0.00    +0.045 C 
ATOM      7  C   UNL     1     -33.690  26.359   6.182  0.00  0.00    +0.026 C 
ATOM      8  C   UNL     1     -35.500  21.872   5.869  0.00  0.00    +0.049 C 
ATOM      9  H   UNL     1     -34.612  24.073   6.749  0.00  0.00    +0.147 HD
ENDROOT
BRANCH   2  10
ATOM     10  C   UNL     1     -36.493  25.142   2.456  0.00  0.00    +0.005 C 
ATOM     11  C   UNL     1     -36.667  25.327   1.089  0.00  0.00    +0.071 C 
ATOM     12  C   UNL     1     -37.510  25.469   3.348  0.00  0.00    -0.000 C 
ATOM     13  C   UNL     1     -37.869  25.845   0.607  0.00  0.00    +0.004 C 
ATOM     14  C   UNL     1     -38.712  25.988   2.868  0.00  0.00    -0.000 C 
ATOM     15  C   UNL     1     -38.891  26.177   1.497  0.00  0.00    -0.000 C 
BRANCH  11  19
ATOM     16  F   UNL     1     -34.520  25.831   0.162  0.00  0.00    -0.166 F 
ATOM     17  F   UNL     1     -35.060  23.736   0.309  0.00  0.00    -0.166 F 
ATOM     18  F   UNL     1     -36.020  25.001  -1.177  0.00  0.00    -0.166 F 
ATOM     19  C   UNL     1     -35.586  24.980   0.118  0.00  0.00    +0.419 C 
ENDBRANCH  11  19
ENDBRANCH   2  10
BRANCH   4  22
ATOM     20  O   UNL     1     -37.132  22.040   2.836  0.00  0.00    -0.126 OA
ATOM     21  O   UNL     1     -35.039  21.474   2.449  0.00  0.00    -0.126 OA
ATOM     22  N   UNL     1     -35.909  22.194   2.956  0.00  0.00    +0.059 N 
ENDBRANCH   4  22
BRANCH   3  24
ATOM     23  O   UNL     1     -33.026  26.884   2.558  0.00  0.00    -0.245 OA
ATOM     24  C   UNL     1     -34.037  26.848   3.235  0.00  0.00    +0.339 C 
BRANCH  24  25
ATOM     25  O   UNL     1     -34.894  27.857   3.520  0.00  0.00    -0.448 OA
BRANCH  25  26
ATOM     26  C   UNL     1     -35.225  28.702   2.413  0.00  0.00    +0.185 C 
BRANCH  26  27
ATOM     27  C   UNL     1     -34.655  30.088   2.669  0.00  0.00    -0.038 C 
BRANCH  27  28
ATOM     28  N   UNL     1     -35.512  30.837   3.576  0.00  0.00    +0.383 N 
ATOM     29  H   UNL     1     -35.183  30.715   4.533  0.00  0.00    -0.089 HD
ATOM     30  H   UNL     1     -36.470  30.495   3.499  0.00  0.00    -0.089 HD
ATOM     31  H   UNL     1     -35.483  31.826   3.330  0.00  0.00    -0.089 HD
ENDBRANCH  27  28
ENDBRANCH  26  27
ENDBRANCH  25  26
ENDBRANCH  24  25
ENDBRANCH   3  24
TORSDOF 8
ENDMDL
MODEL 8
REMARK VINA RESULT:      -5.3      3.381      5.399
REMARK  Name = 195021
REMARK  8 active torsions:
REMARK  status: ('A' for Active; 'I' for Inactive)
REMARK    1  A    between atoms: C_2  and  C_10
REMARK    2  A    between atoms: C_3  and  C_24
REMARK    3  A    between atoms: C_4  and  N_22
REMARK    4  A    between atoms: C_11  and  C_19
REMARK    5  A    between atoms: C_24  and  O_25
REMARK    6  A    between atoms: O_25  and  C_26
REMARK    7  A    between atoms: C_26  and  C_27
REMARK    8  A    between atoms: C_27  and  N_28
REMARK                            x       y       z     vdW  Elec       q    Type
REMARK                         _______ _______ _______ _____ _____    ______ ____
ROOT
ATOM      1  N   UNL     1     -37.957  24.299   0.685  0.00  0.00    -0.332 N 
ATOM      2  C   UNL     1     -36.105  22.203   1.235  0.00  0.00    +0.027 C 
ATOM      3  C   UNL     1     -36.175  23.508   2.046  0.00  0.00    +0.073 C 
ATOM      4  C   UNL     1     -37.216  22.131   0.208  0.00  0.00    +0.152 C 
ATOM      5  C   UNL     1     -37.066  24.482   1.737  0.00  0.00    +0.098 C 
ATOM      6  C   UNL     1     -38.076  23.132  -0.056  0.00  0.00    +0.045 C 
ATOM      7  C   UNL     1     -37.189  25.803   2.447  0.00  0.00    +0.026 C 
ATOM      8  C   UNL     1     -39.182  23.134  -1.077  0.00  0.00    +0.049 C 
ATOM      9  H   UNL     1     -38.546  25.052   0.449  0.00  0.00    +0.147 HD
ENDROOT
BRANCH   2  10
ATOM     10  C   UNL     1     -34.764  22.085   0.569  0.00  0.00    +0.005 C 
ATOM     11  C   UNL     1     -33.973  20.957   0.761  0.00  0.00    +0.071 C 
ATOM     12  C   UNL     1     -34.328  23.124  -0.245  0.00  0.00    -0.000 C 
ATOM     13  C   UNL     1     -32.732  20.868   0.131  0.00  0.00    +0.004 C 
ATOM     14  C   UNL     1     -33.087  23.036  -0.875  0.00  0.00    -0.000 C 
ATOM     15  C   UNL     1     -32.288  21.908  -0.686  0.00  0.00    -0.000 C 
BRANCH  11  19
ATOM     16  F   UNL     1     -34.914  20.240   2.840  0.00  0.00    -0.166 F 
ATOM     17  F   UNL     1     -35.423  19.081   1.078  0.00  0.00    -0.166 F 
ATOM     18  F   UNL     1     -33.421  18.954   1.918  0.00  0.00    -0.166 F 
ATOM     19  C   UNL     1     -34.427  19.832   1.632  0.00  0.00    +0.419 C 
ENDBRANCH  11  19
ENDBRANCH   2  10
BRANCH   4  22
ATOM     20  O   UNL     1     -38.095  20.037   0.089  0.00  0.00    -0.126 OA
ATOM     21  O   UNL     1     -36.765  20.728  -1.524  0.00  0.00    -0.126 OA
ATOM     22  N   UNL     1     -37.369  20.880  -0.455  0.00  0.00    +0.059 N 
ENDBRANCH   4  22
BRANCH   3  24
ATOM     23  O   UNL     1     -34.242  24.250   3.197  0.00  0.00    -0.245 OA
ATOM     24  C   UNL     1     -35.277  23.610   3.208  0.00  0.00    +0.339 C 
BRANCH  24  25
ATOM     25  O   UNL     1     -35.809  22.888   4.224  0.00  0.00    -0.448 OA
BRANCH  25  26
ATOM     26  C   UNL     1     -35.488  23.362   5.536  0.00  0.00    +0.185 C 
BRANCH  26  27
ATOM     27  C   UNL     1     -35.527  22.188   6.502  0.00  0.00    -0.038 C 
BRANCH  27  28
ATOM     28  N   UNL     1     -35.070  20.970   5.850  0.00  0.00    +0.383 N 
ATOM     29  H   UNL     1     -35.291  20.167   6.437  0.00  0.00    -0.089 HD
ATOM     30  H   UNL     1     -34.061  21.020   5.706  0.00  0.00    -0.089 HD
ATOM     31  H   UNL     1     -35.537  20.872   4.949  0.00  0.00    -0.089 HD
ENDBRANCH  27  28
ENDBRANCH  26  27
ENDBRANCH  25  26
ENDBRANCH  24  25
ENDBRANCH   3  24
TORSDOF 8
ENDMDL
MODEL 9
REMARK VINA RESULT:      -5.3      2.902      4.510
REMARK  Name = 195021
REMARK  8 active torsions:
REMARK  status: ('A' for Active; 'I' for Inactive)
REMARK    1  A    between atoms: C_2  and  C_10
REMARK    2  A    between atoms: C_3  and  C_24
REMARK    3  A    between atoms: C_4  and  N_22
REMARK    4  A    between atoms: C_11  and  C_19
REMARK    5  A    between atoms: C_24  and  O_25
REMARK    6  A    between atoms: O_25  and  C_26
REMARK    7  A    between atoms: C_26  and  C_27
REMARK    8  A    between atoms: C_27  and  N_28
REMARK                            x       y       z     vdW  Elec       q    Type
REMARK                         _______ _______ _______ _____ _____    ______ ____
ROOT
ATOM      1  N   UNL     1     -38.097  21.296   0.650  0.00  0.00    -0.332 N 
ATOM      2  C   UNL     1     -36.682  22.650   2.721  0.00  0.00    +0.027 C 
ATOM      3  C   UNL     1     -37.987  23.176   2.100  0.00  0.00    +0.073 C 
ATOM      4  C   UNL     1     -36.328  21.279   2.182  0.00  0.00    +0.152 C 
ATOM      5  C   UNL     1     -38.617  22.501   1.106  0.00  0.00    +0.098 C 
ATOM      6  C   UNL     1     -36.992  20.654   1.193  0.00  0.00    +0.045 C 
ATOM      7  C   UNL     1     -39.875  22.950   0.415  0.00  0.00    +0.026 C 
ATOM      8  C   UNL     1     -36.679  19.309   0.596  0.00  0.00    +0.049 C 
ATOM      9  H   UNL     1     -38.544  20.866  -0.115  0.00  0.00    +0.147 HD
ENDROOT
BRANCH   2  10
ATOM     10  C   UNL     1     -35.566  23.620   2.465  0.00  0.00    +0.005 C 
ATOM     11  C   UNL     1     -35.010  24.355   3.507  0.00  0.00    +0.071 C 
ATOM     12  C   UNL     1     -35.094  23.770   1.165  0.00  0.00    -0.000 C 
ATOM     13  C   UNL     1     -33.972  25.249   3.247  0.00  0.00    +0.004 C 
ATOM     14  C   UNL     1     -34.056  24.665   0.904  0.00  0.00    -0.000 C 
ATOM     15  C   UNL     1     -33.496  25.405   1.945  0.00  0.00    -0.000 C 
BRANCH  11  19
ATOM     16  F   UNL     1     -34.583  24.558   5.853  0.00  0.00    -0.166 F 
ATOM     17  F   UNL     1     -36.605  24.965   5.182  0.00  0.00    -0.166 F 
ATOM     18  F   UNL     1     -35.861  22.922   5.205  0.00  0.00    -0.166 F 
ATOM     19  C   UNL     1     -35.505  24.206   4.909  0.00  0.00    +0.419 C 
ENDBRANCH  11  19
ENDBRANCH   2  10
BRANCH   4  22
ATOM     20  O   UNL     1     -34.362  20.138   2.124  0.00  0.00    -0.126 OA
ATOM     21  O   UNL     1     -35.295  20.556   4.074  0.00  0.00    -0.126 OA
ATOM     22  N   UNL     1     -35.255  20.612   2.839  0.00  0.00    +0.059 N 
ENDBRANCH   4  22
BRANCH   3  24
ATOM     23  O   UNL     1     -39.166  24.423   3.734  0.00  0.00    -0.245 OA
ATOM     24  C   UNL     1     -38.546  24.405   2.686  0.00  0.00    +0.339 C 
BRANCH  24  25
ATOM     25  O   UNL     1     -38.247  25.444   1.870  0.00  0.00    -0.448 OA
BRANCH  25  26
ATOM     26  C   UNL     1     -37.607  26.553   2.510  0.00  0.00    +0.185 C 
BRANCH  26  27
ATOM     27  C   UNL     1     -36.794  27.312   1.473  0.00  0.00    -0.038 C 
BRANCH  27  28
ATOM     28  N   UNL     1     -36.042  28.390   2.097  0.00  0.00    +0.383 N 
ATOM     29  H   UNL     1     -35.089  28.394   1.735  0.00  0.00    -0.089 HD
ATOM     30  H   UNL     1     -36.022  28.249   3.108  0.00  0.00    -0.089 HD
ATOM     31  H   UNL     1     -36.490  29.282   1.888  0.00  0.00    -0.089 HD
ENDBRANCH  27  28
ENDBRANCH  26  27
ENDBRANCH  25  26
ENDBRANCH  24  25
ENDBRANCH   3  24
TORSDOF 8
ENDMDL
