MODEL 1
REMARK VINA RESULT:      -6.1      0.000      0.000
REMARK  Name = 5280544
REMARK  6 active torsions:
REMARK  status: ('A' for Active; 'I' for Inactive)
REMARK    1  A    between atoms: C_5  and  C_12
REMARK    2  A    between atoms: C_7  and  O_20
REMARK    3  A    between atoms: C_8  and  O_22
REMARK    4  A    between atoms: C_9  and  O_24
REMARK    5  A    between atoms: C_10  and  O_26
REMARK    6  A    between atoms: C_17  and  O_18
REMARK                            x       y       z     vdW  Elec       q    Type
REMARK                         _______ _______ _______ _____ _____    ______ ____
ROOT
ATOM      1  O   UNL     1     -35.791  23.408   3.186  0.00  0.00    -0.447 OA
ATOM      2  O   UNL     1     -39.689  24.558   2.901  0.00  0.00    -0.283 OA
ATOM      3  C   UNL     1     -38.065  22.894   2.509  0.00  0.00    +0.113 A 
ATOM      4  C   UNL     1     -36.718  22.562   2.633  0.00  0.00    +0.188 A 
ATOM      5  C   UNL     1     -36.216  24.642   3.651  0.00  0.00    +0.182 A 
ATOM      6  C   UNL     1     -38.520  24.209   2.988  0.00  0.00    +0.238 A 
ATOM      7  C   UNL     1     -37.484  25.087   3.582  0.00  0.00    +0.208 A 
ATOM      8  C   UNL     1     -38.965  21.991   1.937  0.00  0.00    +0.143 C 
ATOM      9  C   UNL     1     -36.261  21.322   2.184  0.00  0.00    +0.203 C 
ATOM     10  C   UNL     1     -37.157  20.419   1.613  0.00  0.00    +0.174 C 
ATOM     11  C   UNL     1     -38.506  20.753   1.489  0.00  0.00    +0.077 C 
ENDROOT
BRANCH   5  12
ATOM     12  C   UNL     1     -35.122  25.451   4.217  0.00  0.00    +0.038 C 
ATOM     13  C   UNL     1     -34.302  26.202   3.376  0.00  0.00    +0.006 C 
ATOM     14  C   UNL     1     -34.910  25.467   5.596  0.00  0.00    +0.006 C 
ATOM     15  C   UNL     1     -33.268  26.968   3.913  0.00  0.00    +0.037 C 
ATOM     16  C   UNL     1     -33.876  26.235   6.132  0.00  0.00    +0.037 C 
ATOM     17  C   UNL     1     -33.055  26.986   5.291  0.00  0.00    +0.134 C 
BRANCH  17  18
ATOM     18  O   UNL     1     -32.046  27.734   5.815  0.00  0.00    -0.506 OA
ATOM     19  H   UNL     1     -31.169  27.621   5.504  0.00  0.00    +0.292 HD
ENDBRANCH  17  18
ENDBRANCH   5  12
BRANCH   7  20
ATOM     20  O   UNL     1     -37.868  26.335   4.024  0.00  0.00    -0.501 OA
ATOM     21  H   UNL     1     -37.232  26.922   4.381  0.00  0.00    +0.292 HD
ENDBRANCH   7  20
BRANCH   8  22
ATOM     22  O   UNL     1     -40.291  22.267   1.794  0.00  0.00    -0.505 OA
ATOM     23  H   UNL     1     -40.639  22.477   0.949  0.00  0.00    +0.292 HD
ENDBRANCH   8  22
BRANCH   9  24
ATOM     24  O   UNL     1     -34.944  20.991   2.302  0.00  0.00    -0.501 OA
ATOM     25  H   UNL     1     -34.314  21.356   1.712  0.00  0.00    +0.292 HD
ENDBRANCH   9  24
BRANCH  10  26
ATOM     26  O   UNL     1     -36.726  19.204   1.169  0.00  0.00    -0.503 OA
ATOM     27  H   UNL     1     -36.854  18.960   0.273  0.00  0.00    +0.292 HD
ENDBRANCH  10  26
TORSDOF 6
ENDMDL
MODEL 2
REMARK VINA RESULT:      -6.1      2.933      6.259
REMARK  Name = 5280544
REMARK  6 active torsions:
REMARK  status: ('A' for Active; 'I' for Inactive)
REMARK    1  A    between atoms: C_5  and  C_12
REMARK    2  A    between atoms: C_7  and  O_20
REMARK    3  A    between atoms: C_8  and  O_22
REMARK    4  A    between atoms: C_9  and  O_24
REMARK    5  A    between atoms: C_10  and  O_26
REMARK    6  A    between atoms: C_17  and  O_18
REMARK                            x       y       z     vdW  Elec       q    Type
REMARK                         _______ _______ _______ _____ _____    ______ ____
ROOT
ATOM      1  O   UNL     1     -38.464  25.622   3.543  0.00  0.00    -0.447 OA
ATOM      2  O   UNL     1     -38.345  21.768   2.225  0.00  0.00    -0.283 OA
ATOM      3  C   UNL     1     -37.299  23.494   3.444  0.00  0.00    +0.113 A 
ATOM      4  C   UNL     1     -37.399  24.820   3.861  0.00  0.00    +0.188 A 
ATOM      5  C   UNL     1     -39.491  25.086   2.783  0.00  0.00    +0.182 A 
ATOM      6  C   UNL     1     -38.380  22.924   2.625  0.00  0.00    +0.238 A 
ATOM      7  C   UNL     1     -39.513  23.826   2.310  0.00  0.00    +0.208 A 
ATOM      8  C   UNL     1     -36.188  22.724   3.800  0.00  0.00    +0.143 C 
ATOM      9  C   UNL     1     -36.386  25.385   4.638  0.00  0.00    +0.203 C 
ATOM     10  C   UNL     1     -35.277  24.619   4.994  0.00  0.00    +0.174 C 
ATOM     11  C   UNL     1     -35.178  23.291   4.576  0.00  0.00    +0.077 C 
ENDROOT
BRANCH   5  12
ATOM     12  C   UNL     1     -40.571  26.052   2.512  0.00  0.00    +0.038 C 
ATOM     13  C   UNL     1     -41.488  26.371   3.513  0.00  0.00    +0.006 C 
ATOM     14  C   UNL     1     -40.674  26.648   1.255  0.00  0.00    +0.006 C 
ATOM     15  C   UNL     1     -42.509  27.285   3.256  0.00  0.00    +0.037 C 
ATOM     16  C   UNL     1     -41.695  27.563   1.000  0.00  0.00    +0.037 C 
ATOM     17  C   UNL     1     -42.613  27.883   2.000  0.00  0.00    +0.134 C 
BRANCH  17  18
ATOM     18  O   UNL     1     -43.609  28.776   1.750  0.00  0.00    -0.506 OA
ATOM     19  H   UNL     1     -44.498  28.485   1.702  0.00  0.00    +0.292 HD
ENDBRANCH  17  18
ENDBRANCH   5  12
BRANCH   7  20
ATOM     20  O   UNL     1     -40.535  23.334   1.528  0.00  0.00    -0.501 OA
ATOM     21  H   UNL     1     -41.271  22.914   1.928  0.00  0.00    +0.292 HD
ENDBRANCH   7  20
BRANCH   8  22
ATOM     22  O   UNL     1     -36.044  21.425   3.418  0.00  0.00    -0.505 OA
ATOM     23  H   UNL     1     -36.378  21.138   2.592  0.00  0.00    +0.292 HD
ENDBRANCH   8  22
BRANCH   9  24
ATOM     24  O   UNL     1     -36.477  26.682   5.049  0.00  0.00    -0.501 OA
ATOM     25  H   UNL     1     -35.727  27.113   5.409  0.00  0.00    +0.292 HD
ENDBRANCH   9  24
BRANCH  10  26
ATOM     26  O   UNL     1     -34.279  25.157   5.751  0.00  0.00    -0.503 OA
ATOM     27  H   UNL     1     -34.487  25.728   6.464  0.00  0.00    +0.292 HD
ENDBRANCH  10  26
TORSDOF 6
ENDMDL
MODEL 3
REMARK VINA RESULT:      -6.1      3.041      8.187
REMARK  Name = 5280544
REMARK  6 active torsions:
REMARK  status: ('A' for Active; 'I' for Inactive)
REMARK    1  A    between atoms: C_5  and  C_12
REMARK    2  A    between atoms: C_7  and  O_20
REMARK    3  A    between atoms: C_8  and  O_22
REMARK    4  A    between atoms: C_9  and  O_24
REMARK    5  A    between atoms: C_10  and  O_26
REMARK    6  A    between atoms: C_17  and  O_18
REMARK                            x       y       z     vdW  Elec       q    Type
REMARK                         _______ _______ _______ _____ _____    ______ ____
ROOT
ATOM      1  O   UNL     1     -32.575  27.324   5.088  0.00  0.00    -0.447 OA
ATOM      2  O   UNL     1     -33.710  30.503   2.805  0.00  0.00    -0.283 OA
ATOM      3  C   UNL     1     -32.169  29.600   4.345  0.00  0.00    +0.113 A 
ATOM      4  C   UNL     1     -31.837  28.480   5.103  0.00  0.00    +0.188 A 
ATOM      5  C   UNL     1     -33.694  27.266   4.273  0.00  0.00    +0.182 A 
ATOM      6  C   UNL     1     -33.365  29.549   3.489  0.00  0.00    +0.238 A 
ATOM      7  C   UNL     1     -34.129  28.279   3.501  0.00  0.00    +0.208 A 
ATOM      8  C   UNL     1     -31.379  30.751   4.402  0.00  0.00    +0.143 C 
ATOM      9  C   UNL     1     -30.708  28.503   5.925  0.00  0.00    +0.203 C 
ATOM     10  C   UNL     1     -29.918  29.650   5.984  0.00  0.00    +0.174 C 
ATOM     11  C   UNL     1     -30.252  30.772   5.224  0.00  0.00    +0.077 C 
ENDROOT
BRANCH   5  12
ATOM     12  C   UNL     1     -34.396  25.973   4.351  0.00  0.00    +0.038 C 
ATOM     13  C   UNL     1     -34.181  25.003   3.372  0.00  0.00    +0.006 C 
ATOM     14  C   UNL     1     -35.273  25.718   5.406  0.00  0.00    +0.006 C 
ATOM     15  C   UNL     1     -34.845  23.779   3.446  0.00  0.00    +0.037 C 
ATOM     16  C   UNL     1     -35.935  24.492   5.480  0.00  0.00    +0.037 C 
ATOM     17  C   UNL     1     -35.721  23.522   4.500  0.00  0.00    +0.134 C 
BRANCH  17  18
ATOM     18  O   UNL     1     -36.368  22.327   4.574  0.00  0.00    -0.506 OA
ATOM     19  H   UNL     1     -36.139  21.634   3.986  0.00  0.00    +0.292 HD
ENDBRANCH  17  18
ENDBRANCH   5  12
BRANCH   7  20
ATOM     20  O   UNL     1     -35.266  28.200   2.727  0.00  0.00    -0.501 OA
ATOM     21  H   UNL     1     -36.111  28.266   3.127  0.00  0.00    +0.292 HD
ENDBRANCH   7  20
BRANCH   8  22
ATOM     22  O   UNL     1     -31.661  31.871   3.680  0.00  0.00    -0.505 OA
ATOM     23  H   UNL     1     -31.108  32.624   3.747  0.00  0.00    +0.292 HD
ENDBRANCH   8  22
BRANCH   9  24
ATOM     24  O   UNL     1     -30.378  27.411   6.671  0.00  0.00    -0.501 OA
ATOM     25  H   UNL     1     -29.757  27.489   7.368  0.00  0.00    +0.292 HD
ENDBRANCH   9  24
BRANCH  10  26
ATOM     26  O   UNL     1     -28.814  29.690   6.782  0.00  0.00    -0.503 OA
ATOM     27  H   UNL     1     -28.384  30.506   6.948  0.00  0.00    +0.292 HD
ENDBRANCH  10  26
TORSDOF 6
ENDMDL
MODEL 4
REMARK VINA RESULT:      -5.9      2.768      6.262
REMARK  Name = 5280544
REMARK  6 active torsions:
REMARK  status: ('A' for Active; 'I' for Inactive)
REMARK    1  A    between atoms: C_5  and  C_12
REMARK    2  A    between atoms: C_7  and  O_20
REMARK    3  A    between atoms: C_8  and  O_22
REMARK    4  A    between atoms: C_9  and  O_24
REMARK    5  A    between atoms: C_10  and  O_26
REMARK    6  A    between atoms: C_17  and  O_18
REMARK                            x       y       z     vdW  Elec       q    Type
REMARK                         _______ _______ _______ _____ _____    ______ ____
ROOT
ATOM      1  O   UNL     1     -34.849  26.334   3.501  0.00  0.00    -0.447 OA
ATOM      2  O   UNL     1     -38.097  27.383   1.277  0.00  0.00    -0.283 OA
ATOM      3  C   UNL     1     -35.995  27.995   2.152  0.00  0.00    +0.113 A 
ATOM      4  C   UNL     1     -34.915  27.576   2.925  0.00  0.00    +0.188 A 
ATOM      5  C   UNL     1     -35.899  25.453   3.296  0.00  0.00    +0.182 A 
ATOM      6  C   UNL     1     -37.119  27.069   1.941  0.00  0.00    +0.238 A 
ATOM      7  C   UNL     1     -37.002  25.736   2.579  0.00  0.00    +0.208 A 
ATOM      8  C   UNL     1     -36.007  29.274   1.590  0.00  0.00    +0.143 C 
ATOM      9  C   UNL     1     -33.836  28.436   3.142  0.00  0.00    +0.203 C 
ATOM     10  C   UNL     1     -33.846  29.713   2.582  0.00  0.00    +0.174 C 
ATOM     11  C   UNL     1     -34.929  30.131   1.807  0.00  0.00    +0.077 C 
ENDROOT
BRANCH   5  12
ATOM     12  C   UNL     1     -35.703  24.157   3.969  0.00  0.00    +0.038 C 
ATOM     13  C   UNL     1     -35.624  24.100   5.361  0.00  0.00    +0.006 C 
ATOM     14  C   UNL     1     -35.599  22.988   3.215  0.00  0.00    +0.006 C 
ATOM     15  C   UNL     1     -35.440  22.873   5.998  0.00  0.00    +0.037 C 
ATOM     16  C   UNL     1     -35.416  21.762   3.854  0.00  0.00    +0.037 C 
ATOM     17  C   UNL     1     -35.337  21.703   5.245  0.00  0.00    +0.134 C 
BRANCH  17  18
ATOM     18  O   UNL     1     -35.158  20.506   5.867  0.00  0.00    -0.506 OA
ATOM     19  H   UNL     1     -34.395  20.360   6.391  0.00  0.00    +0.292 HD
ENDBRANCH  17  18
ENDBRANCH   5  12
BRANCH   7  20
ATOM     20  O   UNL     1     -38.044  24.849   2.421  0.00  0.00    -0.501 OA
ATOM     21  H   UNL     1     -38.024  24.019   2.856  0.00  0.00    +0.292 HD
ENDBRANCH   7  20
BRANCH   8  22
ATOM     22  O   UNL     1     -37.038  29.730   0.826  0.00  0.00    -0.505 OA
ATOM     23  H   UNL     1     -37.885  29.854   1.206  0.00  0.00    +0.292 HD
ENDBRANCH   8  22
BRANCH   9  24
ATOM     24  O   UNL     1     -32.776  28.033   3.899  0.00  0.00    -0.501 OA
ATOM     25  H   UNL     1     -32.047  27.608   3.494  0.00  0.00    +0.292 HD
ENDBRANCH   9  24
BRANCH  10  26
ATOM     26  O   UNL     1     -32.801  30.565   2.785  0.00  0.00    -0.503 OA
ATOM     27  H   UNL     1     -32.528  31.143   2.099  0.00  0.00    +0.292 HD
ENDBRANCH  10  26
TORSDOF 6
ENDMDL
MODEL 5
REMARK VINA RESULT:      -5.9      2.756      6.692
REMARK  Name = 5280544
REMARK  6 active torsions:
REMARK  status: ('A' for Active; 'I' for Inactive)
REMARK    1  A    between atoms: C_5  and  C_12
REMARK    2  A    between atoms: C_7  and  O_20
REMARK    3  A    between atoms: C_8  and  O_22
REMARK    4  A    between atoms: C_9  and  O_24
REMARK    5  A    between atoms: C_10  and  O_26
REMARK    6  A    between atoms: C_17  and  O_18
REMARK                            x       y       z     vdW  Elec       q    Type
REMARK                         _______ _______ _______ _____ _____    ______ ____
ROOT
ATOM      1  O   UNL     1     -34.006  26.410   3.953  0.00  0.00    -0.447 OA
ATOM      2  O   UNL     1     -36.864  28.127   1.612  0.00  0.00    -0.283 OA
ATOM      3  C   UNL     1     -34.767  28.326   2.672  0.00  0.00    +0.113 A 
ATOM      4  C   UNL     1     -33.830  27.684   3.478  0.00  0.00    +0.188 A 
ATOM      5  C   UNL     1     -35.162  25.729   3.608  0.00  0.00    +0.182 A 
ATOM      6  C   UNL     1     -36.002  27.613   2.312  0.00  0.00    +0.238 A 
ATOM      7  C   UNL     1     -36.148  26.237   2.845  0.00  0.00    +0.208 A 
ATOM      8  C   UNL     1     -34.533  29.626   2.216  0.00  0.00    +0.143 C 
ATOM      9  C   UNL     1     -32.650  28.340   3.835  0.00  0.00    +0.203 C 
ATOM     10  C   UNL     1     -32.414  29.637   3.382  0.00  0.00    +0.174 C 
ATOM     11  C   UNL     1     -33.354  30.279   2.574  0.00  0.00    +0.077 C 
ENDROOT
BRANCH   5  12
ATOM     12  C   UNL     1     -35.226  24.374   4.184  0.00  0.00    +0.038 C 
ATOM     13  C   UNL     1     -35.235  24.206   5.569  0.00  0.00    +0.006 C 
ATOM     14  C   UNL     1     -35.280  23.261   3.346  0.00  0.00    +0.006 C 
ATOM     15  C   UNL     1     -35.297  22.924   6.115  0.00  0.00    +0.037 C 
ATOM     16  C   UNL     1     -35.343  21.979   3.892  0.00  0.00    +0.037 C 
ATOM     17  C   UNL     1     -35.351  21.810   5.277  0.00  0.00    +0.134 C 
BRANCH  17  18
ATOM     18  O   UNL     1     -35.412  20.559   5.810  0.00  0.00    -0.506 OA
ATOM     19  H   UNL     1     -34.705  20.238   6.333  0.00  0.00    +0.292 HD
ENDBRANCH  17  18
ENDBRANCH   5  12
BRANCH   7  20
ATOM     20  O   UNL     1     -37.301  25.545   2.547  0.00  0.00    -0.501 OA
ATOM     21  H   UNL     1     -37.907  25.328   3.227  0.00  0.00    +0.292 HD
ENDBRANCH   7  20
BRANCH   8  22
ATOM     22  O   UNL     1     -35.417  30.297   1.426  0.00  0.00    -0.505 OA
ATOM     23  H   UNL     1     -35.141  31.058   0.954  0.00  0.00    +0.292 HD
ENDBRANCH   8  22
BRANCH   9  24
ATOM     24  O   UNL     1     -31.729  27.717   4.624  0.00  0.00    -0.501 OA
ATOM     25  H   UNL     1     -31.303  28.191   5.310  0.00  0.00    +0.292 HD
ENDBRANCH   9  24
BRANCH  10  26
ATOM     26  O   UNL     1     -31.268  30.291   3.722  0.00  0.00    -0.503 OA
ATOM     27  H   UNL     1     -30.969  31.014   3.205  0.00  0.00    +0.292 HD
ENDBRANCH  10  26
TORSDOF 6
ENDMDL
MODEL 6
REMARK VINA RESULT:      -5.9      2.584      5.789
REMARK  Name = 5280544
REMARK  6 active torsions:
REMARK  status: ('A' for Active; 'I' for Inactive)
REMARK    1  A    between atoms: C_5  and  C_12
REMARK    2  A    between atoms: C_7  and  O_20
REMARK    3  A    between atoms: C_8  and  O_22
REMARK    4  A    between atoms: C_9  and  O_24
REMARK    5  A    between atoms: C_10  and  O_26
REMARK    6  A    between atoms: C_17  and  O_18
REMARK                            x       y       z     vdW  Elec       q    Type
REMARK                         _______ _______ _______ _____ _____    ______ ____
ROOT
ATOM      1  O   UNL     1     -35.321  22.217   2.178  0.00  0.00    -0.447 OA
ATOM      2  O   UNL     1     -38.974  20.975   0.870  0.00  0.00    -0.283 OA
ATOM      3  C   UNL     1     -37.725  22.548   2.104  0.00  0.00    +0.113 A 
ATOM      4  C   UNL     1     -36.448  22.919   2.521  0.00  0.00    +0.188 A 
ATOM      5  C   UNL     1     -35.458  21.098   1.373  0.00  0.00    +0.182 A 
ATOM      6  C   UNL     1     -37.878  21.353   1.261  0.00  0.00    +0.238 A 
ATOM      7  C   UNL     1     -36.632  20.629   0.912  0.00  0.00    +0.208 A 
ATOM      8  C   UNL     1     -38.838  23.302   2.485  0.00  0.00    +0.143 C 
ATOM      9  C   UNL     1     -36.276  24.048   3.323  0.00  0.00    +0.203 C 
ATOM     10  C   UNL     1     -37.385  24.802   3.705  0.00  0.00    +0.174 C 
ATOM     11  C   UNL     1     -38.663  24.430   3.287  0.00  0.00    +0.077 C 
ENDROOT
BRANCH   5  12
ATOM     12  C   UNL     1     -34.173  20.438   1.082  0.00  0.00    +0.038 C 
ATOM     13  C   UNL     1     -33.248  21.053   0.239  0.00  0.00    +0.006 C 
ATOM     14  C   UNL     1     -33.881  19.198   1.652  0.00  0.00    +0.006 C 
ATOM     15  C   UNL     1     -32.032  20.429  -0.036  0.00  0.00    +0.037 C 
ATOM     16  C   UNL     1     -32.664  18.575   1.377  0.00  0.00    +0.037 C 
ATOM     17  C   UNL     1     -31.738  19.190   0.533  0.00  0.00    +0.134 C 
BRANCH  17  18
ATOM     18  O   UNL     1     -30.551  18.581   0.266  0.00  0.00    -0.506 OA
ATOM     19  H   UNL     1     -30.167  18.656  -0.586  0.00  0.00    +0.292 HD
ENDBRANCH  17  18
ENDBRANCH   5  12
BRANCH   7  20
ATOM     20  O   UNL     1     -36.738  19.492   0.140  0.00  0.00    -0.501 OA
ATOM     21  H   UNL     1     -36.954  19.561  -0.769  0.00  0.00    +0.292 HD
ENDBRANCH   7  20
BRANCH   8  22
ATOM     22  O   UNL     1     -40.106  22.983   2.104  0.00  0.00    -0.505 OA
ATOM     23  H   UNL     1     -40.839  23.373   2.537  0.00  0.00    +0.292 HD
ENDBRANCH   8  22
BRANCH   9  24
ATOM     24  O   UNL     1     -35.029  24.416   3.735  0.00  0.00    -0.501 OA
ATOM     25  H   UNL     1     -34.704  24.122   4.562  0.00  0.00    +0.292 HD
ENDBRANCH   9  24
BRANCH  10  26
ATOM     26  O   UNL     1     -37.234  25.907   4.488  0.00  0.00    -0.503 OA
ATOM     27  H   UNL     1     -36.395  26.110   4.856  0.00  0.00    +0.292 HD
ENDBRANCH  10  26
TORSDOF 6
ENDMDL
MODEL 7
REMARK VINA RESULT:      -5.9      2.186      7.030
REMARK  Name = 5280544
REMARK  6 active torsions:
REMARK  status: ('A' for Active; 'I' for Inactive)
REMARK    1  A    between atoms: C_5  and  C_12
REMARK    2  A    between atoms: C_7  and  O_20
REMARK    3  A    between atoms: C_8  and  O_22
REMARK    4  A    between atoms: C_9  and  O_24
REMARK    5  A    between atoms: C_10  and  O_26
REMARK    6  A    between atoms: C_17  and  O_18
REMARK                            x       y       z     vdW  Elec       q    Type
REMARK                         _______ _______ _______ _____ _____    ______ ____
ROOT
ATOM      1  O   UNL     1     -37.835  23.456   2.340  0.00  0.00    -0.447 OA
ATOM      2  O   UNL     1     -35.270  20.640   3.787  0.00  0.00    -0.283 OA
ATOM      3  C   UNL     1     -36.140  22.825   3.959  0.00  0.00    +0.113 A 
ATOM      4  C   UNL     1     -37.035  23.743   3.416  0.00  0.00    +0.188 A 
ATOM      5  C   UNL     1     -37.755  22.192   1.776  0.00  0.00    +0.182 A 
ATOM      6  C   UNL     1     -36.041  21.486   3.357  0.00  0.00    +0.238 A 
ATOM      7  C   UNL     1     -36.927  21.219   2.199  0.00  0.00    +0.208 A 
ATOM      8  C   UNL     1     -35.350  23.174   5.058  0.00  0.00    +0.143 C 
ATOM      9  C   UNL     1     -37.147  25.020   3.969  0.00  0.00    +0.203 C 
ATOM     10  C   UNL     1     -36.359  25.372   5.064  0.00  0.00    +0.174 C 
ATOM     11  C   UNL     1     -35.463  24.451   5.608  0.00  0.00    +0.077 C 
ENDROOT
BRANCH   5  12
ATOM     12  C   UNL     1     -38.664  22.016   0.629  0.00  0.00    +0.038 C 
ATOM     13  C   UNL     1     -38.256  22.400  -0.648  0.00  0.00    +0.006 C 
ATOM     14  C   UNL     1     -39.930  21.463   0.821  0.00  0.00    +0.006 C 
ATOM     15  C   UNL     1     -39.116  22.233  -1.734  0.00  0.00    +0.037 C 
ATOM     16  C   UNL     1     -40.788  21.294  -0.266  0.00  0.00    +0.037 C 
ATOM     17  C   UNL     1     -40.381  21.679  -1.543  0.00  0.00    +0.134 C 
BRANCH  17  18
ATOM     18  O   UNL     1     -41.220  21.514  -2.603  0.00  0.00    -0.506 OA
ATOM     19  H   UNL     1     -41.500  22.258  -3.099  0.00  0.00    +0.292 HD
ENDBRANCH  17  18
ENDBRANCH   5  12
BRANCH   7  20
ATOM     20  O   UNL     1     -36.849  19.983   1.594  0.00  0.00    -0.501 OA
ATOM     21  H   UNL     1     -37.395  19.786   0.859  0.00  0.00    +0.292 HD
ENDBRANCH   7  20
BRANCH   8  22
ATOM     22  O   UNL     1     -34.461  22.313   5.626  0.00  0.00    -0.505 OA
ATOM     23  H   UNL     1     -34.523  22.108   6.538  0.00  0.00    +0.292 HD
ENDBRANCH   8  22
BRANCH   9  24
ATOM     24  O   UNL     1     -38.020  25.924   3.441  0.00  0.00    -0.501 OA
ATOM     25  H   UNL     1     -37.705  26.742   3.110  0.00  0.00    +0.292 HD
ENDBRANCH   9  24
BRANCH  10  26
ATOM     26  O   UNL     1     -36.455  26.615   5.615  0.00  0.00    -0.503 OA
ATOM     27  H   UNL     1     -37.162  27.182   5.372  0.00  0.00    +0.292 HD
ENDBRANCH  10  26
TORSDOF 6
ENDMDL
MODEL 8
REMARK VINA RESULT:      -5.8      1.257      1.877
REMARK  Name = 5280544
REMARK  6 active torsions:
REMARK  status: ('A' for Active; 'I' for Inactive)
REMARK    1  A    between atoms: C_5  and  C_12
REMARK    2  A    between atoms: C_7  and  O_20
REMARK    3  A    between atoms: C_8  and  O_22
REMARK    4  A    between atoms: C_9  and  O_24
REMARK    5  A    between atoms: C_10  and  O_26
REMARK    6  A    between atoms: C_17  and  O_18
REMARK                            x       y       z     vdW  Elec       q    Type
REMARK                         _______ _______ _______ _____ _____    ______ ____
ROOT
ATOM      1  O   UNL     1     -36.371  22.712   2.282  0.00  0.00    -0.447 OA
ATOM      2  O   UNL     1     -40.430  23.053   2.224  0.00  0.00    -0.283 OA
ATOM      3  C   UNL     1     -38.511  21.920   1.455  0.00  0.00    +0.113 A 
ATOM      4  C   UNL     1     -37.121  21.857   1.516  0.00  0.00    +0.188 A 
ATOM      5  C   UNL     1     -37.026  23.672   3.036  0.00  0.00    +0.182 A 
ATOM      6  C   UNL     1     -39.212  22.946   2.242  0.00  0.00    +0.238 A 
ATOM      7  C   UNL     1     -38.360  23.844   3.058  0.00  0.00    +0.208 A 
ATOM      8  C   UNL     1     -39.224  21.022   0.655  0.00  0.00    +0.143 C 
ATOM      9  C   UNL     1     -36.433  20.894   0.776  0.00  0.00    +0.203 C 
ATOM     10  C   UNL     1     -37.141  19.996  -0.022  0.00  0.00    +0.174 C 
ATOM     11  C   UNL     1     -38.534  20.060  -0.082  0.00  0.00    +0.077 C 
ENDROOT
BRANCH   5  12
ATOM     12  C   UNL     1     -36.105  24.523   3.809  0.00  0.00    +0.038 C 
ATOM     13  C   UNL     1     -35.679  24.119   5.074  0.00  0.00    +0.006 C 
ATOM     14  C   UNL     1     -35.657  25.732   3.275  0.00  0.00    +0.006 C 
ATOM     15  C   UNL     1     -34.806  24.925   5.806  0.00  0.00    +0.037 C 
ATOM     16  C   UNL     1     -34.784  26.536   4.007  0.00  0.00    +0.037 C 
ATOM     17  C   UNL     1     -34.358  26.133   5.273  0.00  0.00    +0.134 C 
BRANCH  17  18
ATOM     18  O   UNL     1     -33.506  26.918   5.987  0.00  0.00    -0.506 OA
ATOM     19  H   UNL     1     -32.760  27.301   5.568  0.00  0.00    +0.292 HD
ENDBRANCH  17  18
ENDBRANCH   5  12
BRANCH   7  20
ATOM     20  O   UNL     1     -38.979  24.831   3.794  0.00  0.00    -0.501 OA
ATOM     21  H   UNL     1     -39.199  24.678   4.692  0.00  0.00    +0.292 HD
ENDBRANCH   7  20
BRANCH   8  22
ATOM     22  O   UNL     1     -40.582  21.041   0.562  0.00  0.00    -0.505 OA
ATOM     23  H   UNL     1     -41.028  21.839   0.357  0.00  0.00    +0.292 HD
ENDBRANCH   8  22
BRANCH   9  24
ATOM     24  O   UNL     1     -35.072  20.828   0.831  0.00  0.00    -0.501 OA
ATOM     25  H   UNL     1     -34.624  21.043   1.625  0.00  0.00    +0.292 HD
ENDBRANCH   9  24
BRANCH  10  26
ATOM     26  O   UNL     1     -36.484  19.051  -0.750  0.00  0.00    -0.503 OA
ATOM     27  H   UNL     1     -36.217  19.238  -1.629  0.00  0.00    +0.292 HD
ENDBRANCH  10  26
TORSDOF 6
ENDMDL
MODEL 9
REMARK VINA RESULT:      -5.8      2.525      6.028
REMARK  Name = 5280544
REMARK  6 active torsions:
REMARK  status: ('A' for Active; 'I' for Inactive)
REMARK    1  A    between atoms: C_5  and  C_12
REMARK    2  A    between atoms: C_7  and  O_20
REMARK    3  A    between atoms: C_8  and  O_22
REMARK    4  A    between atoms: C_9  and  O_24
REMARK    5  A    between atoms: C_10  and  O_26
REMARK    6  A    between atoms: C_17  and  O_18
REMARK                            x       y       z     vdW  Elec       q    Type
REMARK                         _______ _______ _______ _____ _____    ______ ____
ROOT
ATOM      1  O   UNL     1     -34.659  22.833   2.742  0.00  0.00    -0.447 OA
ATOM      2  O   UNL     1     -38.721  22.777   2.425  0.00  0.00    -0.283 OA
ATOM      3  C   UNL     1     -36.802  23.817   3.318  0.00  0.00    +0.113 A 
ATOM      4  C   UNL     1     -35.412  23.780   3.388  0.00  0.00    +0.188 A 
ATOM      5  C   UNL     1     -35.311  21.879   1.978  0.00  0.00    +0.182 A 
ATOM      6  C   UNL     1     -37.501  22.798   2.519  0.00  0.00    +0.238 A 
ATOM      7  C   UNL     1     -36.647  21.798   1.835  0.00  0.00    +0.208 A 
ATOM      8  C   UNL     1     -37.517  24.806   3.999  0.00  0.00    +0.143 C 
ATOM      9  C   UNL     1     -34.725  24.734   4.141  0.00  0.00    +0.203 C 
ATOM     10  C   UNL     1     -35.435  25.722   4.822  0.00  0.00    +0.174 C 
ATOM     11  C   UNL     1     -36.829  25.758   4.751  0.00  0.00    +0.077 C 
ENDROOT
BRANCH   5  12
ATOM     12  C   UNL     1     -34.388  20.924   1.340  0.00  0.00    +0.038 C 
ATOM     13  C   UNL     1     -34.213  19.653   1.887  0.00  0.00    +0.006 C 
ATOM     14  C   UNL     1     -33.691  21.290   0.189  0.00  0.00    +0.006 C 
ATOM     15  C   UNL     1     -33.340  18.748   1.282  0.00  0.00    +0.037 C 
ATOM     16  C   UNL     1     -32.819  20.384  -0.416  0.00  0.00    +0.037 C 
ATOM     17  C   UNL     1     -32.644  19.113   0.131  0.00  0.00    +0.134 C 
BRANCH  17  18
ATOM     18  O   UNL     1     -31.792  18.230  -0.459  0.00  0.00    -0.506 OA
ATOM     19  H   UNL     1     -30.940  18.510  -0.729  0.00  0.00    +0.292 HD
ENDBRANCH  17  18
ENDBRANCH   5  12
BRANCH   7  20
ATOM     20  O   UNL     1     -37.267  20.816   1.094  0.00  0.00    -0.501 OA
ATOM     21  H   UNL     1     -36.874  20.511   0.299  0.00  0.00    +0.292 HD
ENDBRANCH   7  20
BRANCH   8  22
ATOM     22  O   UNL     1     -38.876  24.887   3.962  0.00  0.00    -0.505 OA
ATOM     23  H   UNL     1     -39.396  24.120   4.105  0.00  0.00    +0.292 HD
ENDBRANCH   8  22
BRANCH   9  24
ATOM     24  O   UNL     1     -33.364  24.703   4.215  0.00  0.00    -0.501 OA
ATOM     25  H   UNL     1     -32.868  25.482   4.059  0.00  0.00    +0.292 HD
ENDBRANCH   9  24
BRANCH  10  26
ATOM     26  O   UNL     1     -34.780  26.660   5.562  0.00  0.00    -0.503 OA
ATOM     27  H   UNL     1     -34.878  26.674   6.494  0.00  0.00    +0.292 HD
ENDBRANCH  10  26
TORSDOF 6
ENDMDL
