MODEL 1
REMARK VINA RESULT:      -5.9      0.000      0.000
REMARK  Name = 56970640
REMARK  10 active torsions:
REMARK  status: ('A' for Active; 'I' for Inactive)
REMARK    1  A    between atoms: C_3  and  O_19
REMARK    2  A    between atoms: C_13  and  O_31
REMARK    3  A    between atoms: C_14  and  O_21
REMARK    4  A    between atoms: C_15  and  O_23
REMARK    5  A    between atoms: C_16  and  O_25
REMARK    6  A    between atoms: C_17  and  O_29
REMARK    7  A    between atoms: C_18  and  O_27
REMARK    8  A    between atoms: O_31  and  C_33
REMARK    9  A    between atoms: C_33  and  C_34
REMARK   10  A    between atoms: C_34  and  C_36
REMARK                            x       y       z     vdW  Elec       q    Type
REMARK                         _______ _______ _______ _____ _____    ______ ____
ROOT
ATOM      1  C   UNL     1     -40.070  25.728   1.797  0.00  0.00    +0.031 C 
ATOM      2  C   UNL     1     -39.583  26.894   0.883  0.00  0.00    +0.007 C 
ATOM      3  C   UNL     1     -39.082  25.373   2.947  0.00  0.00    +0.133 C 
ATOM      4  C   UNL     1     -38.210  26.680   0.215  0.00  0.00    +0.027 C 
ATOM      5  C   UNL     1     -37.934  24.440   2.580  0.00  0.00    +0.010 C 
ATOM      6  C   UNL     1     -37.077  27.191   1.082  0.00  0.00    -0.016 C 
ATOM      7  C   UNL     1     -40.547  24.492   1.019  0.00  0.00    +0.003 C 
ATOM      8  C   UNL     1     -40.626  27.242  -0.191  0.00  0.00    +0.000 C 
ATOM      9  C   UNL     1     -36.683  24.928   2.134  0.00  0.00    +0.038 C 
ATOM     10  C   UNL     1     -36.389  26.365   1.993  0.00  0.00    +0.037 C 
ATOM     11  C   UNL     1     -38.114  23.044   2.684  0.00  0.00    +0.038 C 
ATOM     12  C   UNL     1     -36.739  28.556   0.992  0.00  0.00    +0.036 C 
ATOM     13  C   UNL     1     -35.371  26.939   2.783  0.00  0.00    +0.185 C 
ATOM     14  C   UNL     1     -35.668  24.001   1.808  0.00  0.00    +0.175 C 
ATOM     15  C   UNL     1     -35.729  29.099   1.782  0.00  0.00    +0.175 C 
ATOM     16  C   UNL     1     -35.044  28.290   2.679  0.00  0.00    +0.207 C 
ATOM     17  C   UNL     1     -37.097  22.148   2.356  0.00  0.00    +0.171 C 
ATOM     18  C   UNL     1     -35.873  22.627   1.918  0.00  0.00    +0.206 C 
ENDROOT
BRANCH   3  19
ATOM     19  O   UNL     1     -39.828  24.781   4.022  0.00  0.00    -0.380 OA
ATOM     20  H   UNL     1     -40.654  24.408   3.676  0.00  0.00    +0.211 HD
ENDBRANCH   3  19
BRANCH  14  21
ATOM     21  O   UNL     1     -34.461  24.429   1.323  0.00  0.00    -0.468 OA
ATOM     22  C   UNL     1     -34.390  24.693  -0.074  0.00  0.00    +0.253 C 
ENDBRANCH  14  21
BRANCH  15  23
ATOM     23  O   UNL     1     -35.429  30.423   1.669  0.00  0.00    -0.468 OA
ATOM     24  C   UNL     1     -36.515  31.344   1.754  0.00  0.00    +0.253 C 
ENDBRANCH  15  23
BRANCH  16  25
ATOM     25  O   UNL     1     -34.062  28.821   3.461  0.00  0.00    -0.465 OA
ATOM     26  C   UNL     1     -32.737  28.805   2.935  0.00  0.00    +0.253 C 
ENDBRANCH  16  25
BRANCH  18  27
ATOM     27  O   UNL     1     -34.878  21.756   1.586  0.00  0.00    -0.465 OA
ATOM     28  C   UNL     1     -34.952  21.150   0.297  0.00  0.00    +0.253 C 
ENDBRANCH  18  27
BRANCH  17  29
ATOM     29  O   UNL     1     -37.321  20.810   2.469  0.00  0.00    -0.503 OA
ATOM     30  H   UNL     1     -38.013  20.495   3.017  0.00  0.00    +0.292 HD
ENDBRANCH  17  29
BRANCH  13  31
ATOM     31  O   UNL     1     -34.703  26.188   3.714  0.00  0.00    -0.421 OA
BRANCH  31  33
ATOM     32  O   UNL     1     -36.332  26.677   5.318  0.00  0.00    -0.250 OA
ATOM     33  C   UNL     1     -35.433  25.964   4.891  0.00  0.00    +0.321 C 
BRANCH  33  34
ATOM     34  C   UNL     1     -34.920  24.711   5.584  0.00  0.00    +0.099 C 
ATOM     35  C   UNL     1     -33.679  24.227   4.840  0.00  0.00    +0.012 C 
BRANCH  34  36
ATOM     36  C   UNL     1     -35.996  23.618   5.629  0.00  0.00    +0.011 C 
ATOM     37  C   UNL     1     -35.431  22.258   6.021  0.00  0.00    +0.001 C 
ENDBRANCH  34  36
ENDBRANCH  33  34
ENDBRANCH  31  33
ENDBRANCH  13  31
TORSDOF 10
ENDMDL
MODEL 2
REMARK VINA RESULT:      -5.6      1.638      2.063
REMARK  Name = 56970640
REMARK  10 active torsions:
REMARK  status: ('A' for Active; 'I' for Inactive)
REMARK    1  A    between atoms: C_3  and  O_19
REMARK    2  A    between atoms: C_13  and  O_31
REMARK    3  A    between atoms: C_14  and  O_21
REMARK    4  A    between atoms: C_15  and  O_23
REMARK    5  A    between atoms: C_16  and  O_25
REMARK    6  A    between atoms: C_17  and  O_29
REMARK    7  A    between atoms: C_18  and  O_27
REMARK    8  A    between atoms: O_31  and  C_33
REMARK    9  A    between atoms: C_33  and  C_34
REMARK   10  A    between atoms: C_34  and  C_36
REMARK                            x       y       z     vdW  Elec       q    Type
REMARK                         _______ _______ _______ _____ _____    ______ ____
ROOT
ATOM      1  C   UNL     1     -40.190  23.237   0.268  0.00  0.00    +0.031 C 
ATOM      2  C   UNL     1     -39.849  24.543  -0.513  0.00  0.00    +0.007 C 
ATOM      3  C   UNL     1     -39.384  23.063   1.589  0.00  0.00    +0.133 C 
ATOM      4  C   UNL     1     -38.365  24.715  -0.894  0.00  0.00    +0.027 C 
ATOM      5  C   UNL     1     -37.989  22.464   1.447  0.00  0.00    +0.010 C 
ATOM      6  C   UNL     1     -37.585  25.431   0.189  0.00  0.00    -0.016 C 
ATOM      7  C   UNL     1     -40.183  21.974  -0.607  0.00  0.00    +0.003 C 
ATOM      8  C   UNL     1     -40.721  24.693  -1.769  0.00  0.00    +0.000 C 
ATOM      9  C   UNL     1     -36.841  23.270   1.268  0.00  0.00    +0.038 C 
ATOM     10  C   UNL     1     -36.897  24.742   1.209  0.00  0.00    +0.037 C 
ATOM     11  C   UNL     1     -37.827  21.062   1.493  0.00  0.00    +0.038 C 
ATOM     12  C   UNL     1     -37.592  26.840   0.188  0.00  0.00    +0.036 C 
ATOM     13  C   UNL     1     -36.227  25.496   2.195  0.00  0.00    +0.185 C 
ATOM     14  C   UNL     1     -35.581  22.643   1.139  0.00  0.00    +0.175 C 
ATOM     15  C   UNL     1     -36.922  27.562   1.172  0.00  0.00    +0.175 C 
ATOM     16  C   UNL     1     -36.239  26.890   2.177  0.00  0.00    +0.207 C 
ATOM     17  C   UNL     1     -36.574  20.466   1.364  0.00  0.00    +0.171 C 
ATOM     18  C   UNL     1     -35.449  21.257   1.187  0.00  0.00    +0.206 C 
ENDROOT
BRANCH   3  19
ATOM     19  O   UNL     1     -40.147  22.238   2.484  0.00  0.00    -0.380 OA
ATOM     20  H   UNL     1     -39.987  22.519   3.399  0.00  0.00    +0.211 HD
ENDBRANCH   3  19
BRANCH  14  21
ATOM     21  O   UNL     1     -34.451  23.383   0.913  0.00  0.00    -0.468 OA
ATOM     22  C   UNL     1     -34.180  23.738  -0.438  0.00  0.00    +0.253 C 
ENDBRANCH  14  21
BRANCH  15  23
ATOM     23  O   UNL     1     -36.950  28.924   1.140  0.00  0.00    -0.468 OA
ATOM     24  C   UNL     1     -36.223  29.563   0.092  0.00  0.00    +0.253 C 
ENDBRANCH  15  23
BRANCH  16  25
ATOM     25  O   UNL     1     -35.591  27.594   3.148  0.00  0.00    -0.465 OA
ATOM     26  C   UNL     1     -34.239  27.965   2.884  0.00  0.00    +0.253 C 
ENDBRANCH  16  25
BRANCH  18  27
ATOM     27  O   UNL     1     -34.222  20.679   1.050  0.00  0.00    -0.465 OA
ATOM     28  C   UNL     1     -33.897  20.148  -0.234  0.00  0.00    +0.253 C 
ENDBRANCH  18  27
BRANCH  17  29
ATOM     29  O   UNL     1     -36.470  19.109   1.411  0.00  0.00    -0.503 OA
ATOM     30  H   UNL     1     -36.022  18.698   2.125  0.00  0.00    +0.292 HD
ENDBRANCH  17  29
BRANCH  13  31
ATOM     31  O   UNL     1     -35.582  24.873   3.231  0.00  0.00    -0.421 OA
BRANCH  31  33
ATOM     32  O   UNL     1     -37.624  24.623   4.340  0.00  0.00    -0.250 OA
ATOM     33  C   UNL     1     -36.400  24.630   4.345  0.00  0.00    +0.321 C 
BRANCH  33  34
ATOM     34  C   UNL     1     -35.538  24.405   5.576  0.00  0.00    +0.099 C 
ATOM     35  C   UNL     1     -34.538  25.554   5.677  0.00  0.00    +0.012 C 
BRANCH  34  36
ATOM     36  C   UNL     1     -34.817  23.052   5.514  0.00  0.00    +0.011 C 
ATOM     37  C   UNL     1     -35.512  21.981   6.346  0.00  0.00    +0.001 C 
ENDBRANCH  34  36
ENDBRANCH  33  34
ENDBRANCH  31  33
ENDBRANCH  13  31
TORSDOF 10
ENDMDL
MODEL 3
REMARK VINA RESULT:      -5.4      3.080      5.982
REMARK  Name = 56970640
REMARK  10 active torsions:
REMARK  status: ('A' for Active; 'I' for Inactive)
REMARK    1  A    between atoms: C_3  and  O_19
REMARK    2  A    between atoms: C_13  and  O_31
REMARK    3  A    between atoms: C_14  and  O_21
REMARK    4  A    between atoms: C_15  and  O_23
REMARK    5  A    between atoms: C_16  and  O_25
REMARK    6  A    between atoms: C_17  and  O_29
REMARK    7  A    between atoms: C_18  and  O_27
REMARK    8  A    between atoms: O_31  and  C_33
REMARK    9  A    between atoms: C_33  and  C_34
REMARK   10  A    between atoms: C_34  and  C_36
REMARK                            x       y       z     vdW  Elec       q    Type
REMARK                         _______ _______ _______ _____ _____    ______ ____
ROOT
ATOM      1  C   UNL     1     -35.782  18.781  -0.845  0.00  0.00    +0.031 C 
ATOM      2  C   UNL     1     -37.136  19.458  -1.222  0.00  0.00    +0.007 C 
ATOM      3  C   UNL     1     -35.126  19.358   0.443  0.00  0.00    +0.133 C 
ATOM      4  C   UNL     1     -37.076  20.985  -1.423  0.00  0.00    +0.027 C 
ATOM      5  C   UNL     1     -34.297  20.625   0.262  0.00  0.00    +0.010 C 
ATOM      6  C   UNL     1     -37.325  21.733  -0.129  0.00  0.00    -0.016 C 
ATOM      7  C   UNL     1     -34.798  18.672  -2.019  0.00  0.00    +0.003 C 
ATOM      8  C   UNL     1     -37.767  18.804  -2.461  0.00  0.00    +0.000 C 
ATOM      9  C   UNL     1     -34.860  21.916   0.397  0.00  0.00    +0.038 C 
ATOM     10  C   UNL     1     -36.280  22.140   0.724  0.00  0.00    +0.037 C 
ATOM     11  C   UNL     1     -32.925  20.518  -0.051  0.00  0.00    +0.038 C 
ATOM     12  C   UNL     1     -38.660  21.986   0.242  0.00  0.00    +0.036 C 
ATOM     13  C   UNL     1     -36.612  22.800   1.926  0.00  0.00    +0.185 C 
ATOM     14  C   UNL     1     -34.030  23.043   0.210  0.00  0.00    +0.175 C 
ATOM     15  C   UNL     1     -38.963  22.641   1.433  0.00  0.00    +0.175 C 
ATOM     16  C   UNL     1     -37.938  23.048   2.277  0.00  0.00    +0.207 C 
ATOM     17  C   UNL     1     -32.125  21.646  -0.231  0.00  0.00    +0.171 C 
ATOM     18  C   UNL     1     -32.678  22.910  -0.100  0.00  0.00    +0.206 C 
ENDROOT
BRANCH   3  19
ATOM     19  O   UNL     1     -34.291  18.344   1.023  0.00  0.00    -0.380 OA
ATOM     20  H   UNL     1     -34.825  17.774   1.599  0.00  0.00    +0.211 HD
ENDBRANCH   3  19
BRANCH  14  21
ATOM     21  O   UNL     1     -34.546  24.310   0.280  0.00  0.00    -0.468 OA
ATOM     22  C   UNL     1     -35.150  24.821  -0.903  0.00  0.00    +0.253 C 
ENDBRANCH  14  21
BRANCH  15  23
ATOM     23  O   UNL     1     -40.266  22.869   1.760  0.00  0.00    -0.468 OA
ATOM     24  C   UNL     1     -40.951  23.883   1.025  0.00  0.00    +0.253 C 
ENDBRANCH  15  23
BRANCH  16  25
ATOM     25  O   UNL     1     -38.232  23.680   3.448  0.00  0.00    -0.465 OA
ATOM     26  C   UNL     1     -38.426  25.092   3.391  0.00  0.00    +0.253 C 
ENDBRANCH  16  25
BRANCH  18  27
ATOM     27  O   UNL     1     -31.903  24.016  -0.285  0.00  0.00    -0.465 OA
ATOM     28  C   UNL     1     -31.644  24.406  -1.632  0.00  0.00    +0.253 C 
ENDBRANCH  18  27
BRANCH  17  29
ATOM     29  O   UNL     1     -30.807  21.490  -0.536  0.00  0.00    -0.503 OA
ATOM     30  H   UNL     1     -30.512  21.620  -1.415  0.00  0.00    +0.292 HD
ENDBRANCH  17  29
BRANCH  13  31
ATOM     31  O   UNL     1     -35.634  23.176   2.809  0.00  0.00    -0.421 OA
BRANCH  31  33
ATOM     32  O   UNL     1     -35.543  21.024   3.717  0.00  0.00    -0.250 OA
ATOM     33  C   UNL     1     -35.391  22.234   3.821  0.00  0.00    +0.321 C 
BRANCH  33  34
ATOM     34  C   UNL     1     -34.937  22.944   5.086  0.00  0.00    +0.099 C 
ATOM     35  C   UNL     1     -35.397  22.123   6.287  0.00  0.00    +0.012 C 
BRANCH  34  36
ATOM     36  C   UNL     1     -35.489  24.374   5.153  0.00  0.00    +0.011 C 
ATOM     37  C   UNL     1     -34.431  25.390   5.566  0.00  0.00    +0.001 C 
ENDBRANCH  34  36
ENDBRANCH  33  34
ENDBRANCH  31  33
ENDBRANCH  13  31
TORSDOF 10
ENDMDL
MODEL 4
REMARK VINA RESULT:      -5.3      2.015      6.348
REMARK  Name = 56970640
REMARK  10 active torsions:
REMARK  status: ('A' for Active; 'I' for Inactive)
REMARK    1  A    between atoms: C_3  and  O_19
REMARK    2  A    between atoms: C_13  and  O_31
REMARK    3  A    between atoms: C_14  and  O_21
REMARK    4  A    between atoms: C_15  and  O_23
REMARK    5  A    between atoms: C_16  and  O_25
REMARK    6  A    between atoms: C_17  and  O_29
REMARK    7  A    between atoms: C_18  and  O_27
REMARK    8  A    between atoms: O_31  and  C_33
REMARK    9  A    between atoms: C_33  and  C_34
REMARK   10  A    between atoms: C_34  and  C_36
REMARK                            x       y       z     vdW  Elec       q    Type
REMARK                         _______ _______ _______ _____ _____    ______ ____
ROOT
ATOM      1  C   UNL     1     -35.688  24.418   5.367  0.00  0.00    +0.031 C 
ATOM      2  C   UNL     1     -35.816  22.965   4.814  0.00  0.00    +0.007 C 
ATOM      3  C   UNL     1     -36.369  25.496   4.472  0.00  0.00    +0.133 C 
ATOM      4  C   UNL     1     -35.262  22.750   3.391  0.00  0.00    +0.027 C 
ATOM      5  C   UNL     1     -35.545  26.006   3.296  0.00  0.00    +0.010 C 
ATOM      6  C   UNL     1     -36.317  23.002   2.332  0.00  0.00    -0.016 C 
ATOM      7  C   UNL     1     -34.257  24.799   5.776  0.00  0.00    +0.003 C 
ATOM      8  C   UNL     1     -35.185  21.940   5.768  0.00  0.00    +0.000 C 
ATOM      9  C   UNL     1     -35.616  25.409   2.015  0.00  0.00    +0.038 C 
ATOM     10  C   UNL     1     -36.486  24.258   1.716  0.00  0.00    +0.037 C 
ATOM     11  C   UNL     1     -34.681  27.107   3.478  0.00  0.00    +0.038 C 
ATOM     12  C   UNL     1     -37.179  21.941   1.993  0.00  0.00    +0.036 C 
ATOM     13  C   UNL     1     -37.519  24.406   0.766  0.00  0.00    +0.185 C 
ATOM     14  C   UNL     1     -34.819  25.935   0.974  0.00  0.00    +0.175 C 
ATOM     15  C   UNL     1     -38.191  22.111   1.051  0.00  0.00    +0.175 C 
ATOM     16  C   UNL     1     -38.361  23.345   0.437  0.00  0.00    +0.207 C 
ATOM     17  C   UNL     1     -33.904  27.609   2.435  0.00  0.00    +0.171 C 
ATOM     18  C   UNL     1     -33.973  27.022   1.181  0.00  0.00    +0.206 C 
ENDROOT
BRANCH   3  19
ATOM     19  O   UNL     1     -36.727  26.614   5.300  0.00  0.00    -0.380 OA
ATOM     20  H   UNL     1     -37.078  27.328   4.744  0.00  0.00    +0.211 HD
ENDBRANCH   3  19
BRANCH  14  21
ATOM     21  O   UNL     1     -34.818  25.354  -0.267  0.00  0.00    -0.468 OA
ATOM     22  C   UNL     1     -33.849  24.337  -0.496  0.00  0.00    +0.253 C 
ENDBRANCH  14  21
BRANCH  15  23
ATOM     23  O   UNL     1     -39.007  21.063   0.748  0.00  0.00    -0.468 OA
ATOM     24  C   UNL     1     -38.483  20.065  -0.126  0.00  0.00    +0.253 C 
ENDBRANCH  15  23
BRANCH  16  25
ATOM     25  O   UNL     1     -39.357  23.517  -0.478  0.00  0.00    -0.465 OA
ATOM     26  C   UNL     1     -39.016  23.323  -1.849  0.00  0.00    +0.253 C 
ENDBRANCH  16  25
BRANCH  18  27
ATOM     27  O   UNL     1     -33.208  27.502   0.160  0.00  0.00    -0.465 OA
ATOM     28  C   UNL     1     -33.781  28.527  -0.651  0.00  0.00    +0.253 C 
ENDBRANCH  18  27
BRANCH  17  29
ATOM     29  O   UNL     1     -33.083  28.671   2.662  0.00  0.00    -0.503 OA
ATOM     30  H   UNL     1     -32.344  28.579   3.231  0.00  0.00    +0.292 HD
ENDBRANCH  17  29
BRANCH  13  31
ATOM     31  O   UNL     1     -37.752  25.617   0.171  0.00  0.00    -0.421 OA
BRANCH  31  33
ATOM     32  O   UNL     1     -37.953  27.559   1.458  0.00  0.00    -0.250 OA
ATOM     33  C   UNL     1     -38.429  26.531   0.993  0.00  0.00    +0.321 C 
BRANCH  33  34
ATOM     34  C   UNL     1     -39.845  26.040   1.251  0.00  0.00    +0.099 C 
ATOM     35  C   UNL     1     -40.807  26.909   0.446  0.00  0.00    +0.012 C 
BRANCH  34  36
ATOM     36  C   UNL     1     -40.186  26.080   2.746  0.00  0.00    +0.011 C 
ATOM     37  C   UNL     1     -39.818  24.787   3.464  0.00  0.00    +0.001 C 
ENDBRANCH  34  36
ENDBRANCH  33  34
ENDBRANCH  31  33
ENDBRANCH  13  31
TORSDOF 10
ENDMDL
MODEL 5
REMARK VINA RESULT:      -5.2      1.490      1.706
REMARK  Name = 56970640
REMARK  10 active torsions:
REMARK  status: ('A' for Active; 'I' for Inactive)
REMARK    1  A    between atoms: C_3  and  O_19
REMARK    2  A    between atoms: C_13  and  O_31
REMARK    3  A    between atoms: C_14  and  O_21
REMARK    4  A    between atoms: C_15  and  O_23
REMARK    5  A    between atoms: C_16  and  O_25
REMARK    6  A    between atoms: C_17  and  O_29
REMARK    7  A    between atoms: C_18  and  O_27
REMARK    8  A    between atoms: O_31  and  C_33
REMARK    9  A    between atoms: C_33  and  C_34
REMARK   10  A    between atoms: C_34  and  C_36
REMARK                            x       y       z     vdW  Elec       q    Type
REMARK                         _______ _______ _______ _____ _____    ______ ____
ROOT
ATOM      1  C   UNL     1     -40.755  26.567   1.389  0.00  0.00    +0.031 C 
ATOM      2  C   UNL     1     -39.919  27.418   0.384  0.00  0.00    +0.007 C 
ATOM      3  C   UNL     1     -39.903  25.884   2.499  0.00  0.00    +0.133 C 
ATOM      4  C   UNL     1     -38.795  26.658  -0.348  0.00  0.00    +0.027 C 
ATOM      5  C   UNL     1     -39.247  24.562   2.120  0.00  0.00    +0.010 C 
ATOM      6  C   UNL     1     -37.491  26.703   0.422  0.00  0.00    -0.016 C 
ATOM      7  C   UNL     1     -41.737  25.600   0.711  0.00  0.00    +0.003 C 
ATOM      8  C   UNL     1     -40.818  28.119  -0.646  0.00  0.00    +0.000 C 
ATOM      9  C   UNL     1     -37.942  24.500   1.576  0.00  0.00    +0.038 C 
ATOM     10  C   UNL     1     -37.117  25.698   1.337  0.00  0.00    +0.037 C 
ATOM     11  C   UNL     1     -39.953  23.355   2.312  0.00  0.00    +0.038 C 
ATOM     12  C   UNL     1     -36.651  27.818   0.235  0.00  0.00    +0.036 C 
ATOM     13  C   UNL     1     -35.899  25.844   2.034  0.00  0.00    +0.185 C 
ATOM     14  C   UNL     1     -37.401  23.238   1.245  0.00  0.00    +0.175 C 
ATOM     15  C   UNL     1     -35.452  27.939   0.934  0.00  0.00    +0.175 C 
ATOM     16  C   UNL     1     -35.076  26.951   1.835  0.00  0.00    +0.207 C 
ATOM     17  C   UNL     1     -39.399  22.121   1.978  0.00  0.00    +0.171 C 
ATOM     18  C   UNL     1     -38.121  22.062   1.444  0.00  0.00    +0.206 C 
ENDROOT
BRANCH   3  19
ATOM     19  O   UNL     1     -40.739  25.668   3.647  0.00  0.00    -0.380 OA
ATOM     20  H   UNL     1     -41.551  25.211   3.374  0.00  0.00    +0.211 HD
ENDBRANCH   3  19
BRANCH  14  21
ATOM     21  O   UNL     1     -36.163  23.137   0.668  0.00  0.00    -0.468 OA
ATOM     22  C   UNL     1     -36.118  23.144  -0.755  0.00  0.00    +0.253 C 
ENDBRANCH  14  21
BRANCH  15  23
ATOM     23  O   UNL     1     -34.665  29.032   0.730  0.00  0.00    -0.468 OA
ATOM     24  C   UNL     1     -35.064  30.247   1.362  0.00  0.00    +0.253 C 
ENDBRANCH  15  23
BRANCH  16  25
ATOM     25  O   UNL     1     -33.908  27.072   2.528  0.00  0.00    -0.465 OA
ATOM     26  C   UNL     1     -32.768  26.402   1.995  0.00  0.00    +0.253 C 
ENDBRANCH  16  25
BRANCH  18  27
ATOM     27  O   UNL     1     -37.577  20.858   1.105  0.00  0.00    -0.465 OA
ATOM     28  C   UNL     1     -36.639  20.293   2.019  0.00  0.00    +0.253 C 
ENDBRANCH  18  27
BRANCH  17  29
ATOM     29  O   UNL     1     -40.122  20.985   2.179  0.00  0.00    -0.503 OA
ATOM     30  H   UNL     1     -40.197  20.350   1.494  0.00  0.00    +0.292 HD
ENDBRANCH  17  29
BRANCH  13  31
ATOM     31  O   UNL     1     -35.513  24.917   2.966  0.00  0.00    -0.421 OA
BRANCH  31  33
ATOM     32  O   UNL     1     -36.899  25.979   4.521  0.00  0.00    -0.250 OA
ATOM     33  C   UNL     1     -36.058  25.133   4.240  0.00  0.00    +0.321 C 
BRANCH  33  34
ATOM     34  C   UNL     1     -35.426  24.177   5.239  0.00  0.00    +0.099 C 
ATOM     35  C   UNL     1     -33.942  24.511   5.348  0.00  0.00    +0.012 C 
BRANCH  34  36
ATOM     36  C   UNL     1     -35.633  22.715   4.820  0.00  0.00    +0.011 C 
ATOM     37  C   UNL     1     -35.242  21.732   5.917  0.00  0.00    +0.001 C 
ENDBRANCH  34  36
ENDBRANCH  33  34
ENDBRANCH  31  33
ENDBRANCH  13  31
TORSDOF 10
ENDMDL
MODEL 6
REMARK VINA RESULT:      -5.2      2.696      4.067
REMARK  Name = 56970640
REMARK  10 active torsions:
REMARK  status: ('A' for Active; 'I' for Inactive)
REMARK    1  A    between atoms: C_3  and  O_19
REMARK    2  A    between atoms: C_13  and  O_31
REMARK    3  A    between atoms: C_14  and  O_21
REMARK    4  A    between atoms: C_15  and  O_23
REMARK    5  A    between atoms: C_16  and  O_25
REMARK    6  A    between atoms: C_17  and  O_29
REMARK    7  A    between atoms: C_18  and  O_27
REMARK    8  A    between atoms: O_31  and  C_33
REMARK    9  A    between atoms: C_33  and  C_34
REMARK   10  A    between atoms: C_34  and  C_36
REMARK                            x       y       z     vdW  Elec       q    Type
REMARK                         _______ _______ _______ _____ _____    ______ ____
ROOT
ATOM      1  C   UNL     1     -36.323  29.233   1.023  0.00  0.00    +0.031 C 
ATOM      2  C   UNL     1     -35.162  30.227   1.333  0.00  0.00    +0.007 C 
ATOM      3  C   UNL     1     -36.257  27.910   1.841  0.00  0.00    +0.133 C 
ATOM      4  C   UNL     1     -33.740  29.667   1.124  0.00  0.00    +0.027 C 
ATOM      5  C   UNL     1     -35.346  26.823   1.283  0.00  0.00    +0.010 C 
ATOM      6  C   UNL     1     -33.205  29.007   2.378  0.00  0.00    -0.016 C 
ATOM      7  C   UNL     1     -36.548  28.996  -0.478  0.00  0.00    +0.003 C 
ATOM      8  C   UNL     1     -35.316  31.538   0.547  0.00  0.00    +0.000 C 
ATOM      9  C   UNL     1     -33.988  26.712   1.665  0.00  0.00    +0.038 C 
ATOM     10  C   UNL     1     -33.350  27.627   2.628  0.00  0.00    +0.037 C 
ATOM     11  C   UNL     1     -35.861  25.894   0.354  0.00  0.00    +0.038 C 
ATOM     12  C   UNL     1     -32.577  29.823   3.339  0.00  0.00    +0.036 C 
ATOM     13  C   UNL     1     -32.849  27.109   3.841  0.00  0.00    +0.185 C 
ATOM     14  C   UNL     1     -33.204  25.680   1.101  0.00  0.00    +0.175 C 
ATOM     15  C   UNL     1     -32.090  29.288   4.528  0.00  0.00    +0.175 C 
ATOM     16  C   UNL     1     -32.227  27.929   4.780  0.00  0.00    +0.207 C 
ATOM     17  C   UNL     1     -35.069  24.884  -0.188  0.00  0.00    +0.171 C 
ATOM     18  C   UNL     1     -33.738  24.777   0.185  0.00  0.00    +0.206 C 
ENDROOT
BRANCH   3  19
ATOM     19  O   UNL     1     -37.586  27.379   1.956  0.00  0.00    -0.380 OA
ATOM     20  H   UNL     1     -38.218  27.999   1.560  0.00  0.00    +0.211 HD
ENDBRANCH   3  19
BRANCH  14  21
ATOM     21  O   UNL     1     -31.873  25.569   1.405  0.00  0.00    -0.468 OA
ATOM     22  C   UNL     1     -30.978  26.396   0.668  0.00  0.00    +0.253 C 
ENDBRANCH  14  21
BRANCH  15  23
ATOM     23  O   UNL     1     -31.489  30.107   5.436  0.00  0.00    -0.468 OA
ATOM     24  C   UNL     1     -31.138  31.418   4.993  0.00  0.00    +0.253 C 
ENDBRANCH  15  23
BRANCH  16  25
ATOM     25  O   UNL     1     -31.759  27.404   5.948  0.00  0.00    -0.465 OA
ATOM     26  C   UNL     1     -32.600  27.525   7.094  0.00  0.00    +0.253 C 
ENDBRANCH  16  25
BRANCH  18  27
ATOM     27  O   UNL     1     -32.955  23.798  -0.350  0.00  0.00    -0.465 OA
ATOM     28  C   UNL     1     -32.428  24.032  -1.654  0.00  0.00    +0.253 C 
ENDBRANCH  18  27
BRANCH  17  29
ATOM     29  O   UNL     1     -35.612  24.014  -1.084  0.00  0.00    -0.503 OA
ATOM     30  H   UNL     1     -35.093  23.684  -1.791  0.00  0.00    +0.292 HD
ENDBRANCH  17  29
BRANCH  13  31
ATOM     31  O   UNL     1     -33.005  25.783   4.151  0.00  0.00    -0.421 OA
BRANCH  31  33
ATOM     32  O   UNL     1     -35.078  26.278   5.112  0.00  0.00    -0.250 OA
ATOM     33  C   UNL     1     -34.266  25.469   4.681  0.00  0.00    +0.321 C 
BRANCH  33  34
ATOM     34  C   UNL     1     -34.467  23.962   4.670  0.00  0.00    +0.099 C 
ATOM     35  C   UNL     1     -35.165  23.582   3.367  0.00  0.00    +0.012 C 
BRANCH  34  36
ATOM     36  C   UNL     1     -35.281  23.499   5.885  0.00  0.00    +0.011 C 
ATOM     37  C   UNL     1     -35.161  22.000   6.132  0.00  0.00    +0.001 C 
ENDBRANCH  34  36
ENDBRANCH  33  34
ENDBRANCH  31  33
ENDBRANCH  13  31
TORSDOF 10
ENDMDL
MODEL 7
REMARK VINA RESULT:      -5.2      1.933      6.485
REMARK  Name = 56970640
REMARK  10 active torsions:
REMARK  status: ('A' for Active; 'I' for Inactive)
REMARK    1  A    between atoms: C_3  and  O_19
REMARK    2  A    between atoms: C_13  and  O_31
REMARK    3  A    between atoms: C_14  and  O_21
REMARK    4  A    between atoms: C_15  and  O_23
REMARK    5  A    between atoms: C_16  and  O_25
REMARK    6  A    between atoms: C_17  and  O_29
REMARK    7  A    between atoms: C_18  and  O_27
REMARK    8  A    between atoms: O_31  and  C_33
REMARK    9  A    between atoms: C_33  and  C_34
REMARK   10  A    between atoms: C_34  and  C_36
REMARK                            x       y       z     vdW  Elec       q    Type
REMARK                         _______ _______ _______ _____ _____    ______ ____
ROOT
ATOM      1  C   UNL     1     -35.648  24.471   5.437  0.00  0.00    +0.031 C 
ATOM      2  C   UNL     1     -35.911  23.019   4.933  0.00  0.00    +0.007 C 
ATOM      3  C   UNL     1     -36.236  25.576   4.510  0.00  0.00    +0.133 C 
ATOM      4  C   UNL     1     -35.389  22.708   3.515  0.00  0.00    +0.027 C 
ATOM      5  C   UNL     1     -35.378  25.972   3.314  0.00  0.00    +0.010 C 
ATOM      6  C   UNL     1     -36.425  23.019   2.454  0.00  0.00    -0.016 C 
ATOM      7  C   UNL     1     -34.186  24.735   5.827  0.00  0.00    +0.003 C 
ATOM      8  C   UNL     1     -35.368  21.973   5.918  0.00  0.00    +0.000 C 
ATOM      9  C   UNL     1     -35.512  25.342   2.054  0.00  0.00    +0.038 C 
ATOM     10  C   UNL     1     -36.485  24.265   1.797  0.00  0.00    +0.037 C 
ATOM     11  C   UNL     1     -34.417  26.995   3.456  0.00  0.00    +0.038 C 
ATOM     12  C   UNL     1     -37.382  22.030   2.154  0.00  0.00    +0.036 C 
ATOM     13  C   UNL     1     -37.507  24.474   0.847  0.00  0.00    +0.185 C 
ATOM     14  C   UNL     1     -34.678  25.759   0.992  0.00  0.00    +0.175 C 
ATOM     15  C   UNL     1     -38.381  22.260   1.211  0.00  0.00    +0.175 C 
ATOM     16  C   UNL     1     -38.444  23.484   0.557  0.00  0.00    +0.207 C 
ATOM     17  C   UNL     1     -33.606  27.391   2.393  0.00  0.00    +0.171 C 
ATOM     18  C   UNL     1     -33.736  26.772   1.160  0.00  0.00    +0.206 C 
ENDROOT
BRANCH   3  19
ATOM     19  O   UNL     1     -36.486  26.749   5.302  0.00  0.00    -0.380 OA
ATOM     20  H   UNL     1     -35.713  27.335   5.265  0.00  0.00    +0.211 HD
ENDBRANCH   3  19
BRANCH  14  21
ATOM     21  O   UNL     1     -34.739  25.140  -0.229  0.00  0.00    -0.468 OA
ATOM     22  C   UNL     1     -33.870  24.031  -0.427  0.00  0.00    +0.253 C 
ENDBRANCH  14  21
BRANCH  15  23
ATOM     23  O   UNL     1     -39.291  21.282   0.947  0.00  0.00    -0.468 OA
ATOM     24  C   UNL     1     -38.956  20.346  -0.077  0.00  0.00    +0.253 C 
ENDBRANCH  15  23
BRANCH  16  25
ATOM     25  O   UNL     1     -39.427  23.716  -0.358  0.00  0.00    -0.465 OA
ATOM     26  C   UNL     1     -40.718  24.046   0.149  0.00  0.00    +0.253 C 
ENDBRANCH  16  25
BRANCH  18  27
ATOM     27  O   UNL     1     -32.939  27.147   0.120  0.00  0.00    -0.465 OA
ATOM     28  C   UNL     1     -33.429  28.182  -0.731  0.00  0.00    +0.253 C 
ENDBRANCH  18  27
BRANCH  17  29
ATOM     29  O   UNL     1     -32.690  28.381   2.581  0.00  0.00    -0.503 OA
ATOM     30  H   UNL     1     -32.961  29.211   2.922  0.00  0.00    +0.292 HD
ENDBRANCH  17  29
BRANCH  13  31
ATOM     31  O   UNL     1     -37.634  25.682   0.214  0.00  0.00    -0.421 OA
BRANCH  31  33
ATOM     32  O   UNL     1     -38.850  26.455   2.055  0.00  0.00    -0.250 OA
ATOM     33  C   UNL     1     -38.366  26.631   0.944  0.00  0.00    +0.321 C 
BRANCH  33  34
ATOM     34  C   UNL     1     -38.501  27.911   0.134  0.00  0.00    +0.099 C 
ATOM     35  C   UNL     1     -39.244  27.584  -1.158  0.00  0.00    +0.012 C 
BRANCH  34  36
ATOM     36  C   UNL     1     -37.129  28.531  -0.161  0.00  0.00    +0.011 C 
ATOM     37  C   UNL     1     -36.537  29.245   1.048  0.00  0.00    +0.001 C 
ENDBRANCH  34  36
ENDBRANCH  33  34
ENDBRANCH  31  33
ENDBRANCH  13  31
TORSDOF 10
ENDMDL
MODEL 8
REMARK VINA RESULT:      -5.2      2.936      4.989
REMARK  Name = 56970640
REMARK  10 active torsions:
REMARK  status: ('A' for Active; 'I' for Inactive)
REMARK    1  A    between atoms: C_3  and  O_19
REMARK    2  A    between atoms: C_13  and  O_31
REMARK    3  A    between atoms: C_14  and  O_21
REMARK    4  A    between atoms: C_15  and  O_23
REMARK    5  A    between atoms: C_16  and  O_25
REMARK    6  A    between atoms: C_17  and  O_29
REMARK    7  A    between atoms: C_18  and  O_27
REMARK    8  A    between atoms: O_31  and  C_33
REMARK    9  A    between atoms: C_33  and  C_34
REMARK   10  A    between atoms: C_34  and  C_36
REMARK                            x       y       z     vdW  Elec       q    Type
REMARK                         _______ _______ _______ _____ _____    ______ ____
ROOT
ATOM      1  C   UNL     1     -40.307  22.431   0.383  0.00  0.00    +0.031 C 
ATOM      2  C   UNL     1     -40.201  23.704   1.278  0.00  0.00    +0.007 C 
ATOM      3  C   UNL     1     -39.087  21.471   0.505  0.00  0.00    +0.133 C 
ATOM      4  C   UNL     1     -38.949  24.573   1.043  0.00  0.00    +0.027 C 
ATOM      5  C   UNL     1     -37.874  21.818  -0.351  0.00  0.00    +0.010 C 
ATOM      6  C   UNL     1     -37.791  24.140   1.919  0.00  0.00    -0.016 C 
ATOM      7  C   UNL     1     -40.687  22.731  -1.075  0.00  0.00    +0.003 C 
ATOM      8  C   UNL     1     -41.459  24.579   1.166  0.00  0.00    +0.000 C 
ATOM      9  C   UNL     1     -36.826  22.638   0.130  0.00  0.00    +0.038 C 
ATOM     10  C   UNL     1     -36.820  23.215   1.486  0.00  0.00    +0.037 C 
ATOM     11  C   UNL     1     -37.784  21.312  -1.666  0.00  0.00    +0.038 C 
ATOM     12  C   UNL     1     -37.720  24.659   3.226  0.00  0.00    +0.036 C 
ATOM     13  C   UNL     1     -35.797  22.845   2.385  0.00  0.00    +0.185 C 
ATOM     14  C   UNL     1     -35.736  22.919  -0.723  0.00  0.00    +0.175 C 
ATOM     15  C   UNL     1     -36.700  24.280   4.095  0.00  0.00    +0.175 C 
ATOM     16  C   UNL     1     -35.738  23.371   3.675  0.00  0.00    +0.207 C 
ATOM     17  C   UNL     1     -36.698  21.603  -2.489  0.00  0.00    +0.171 C 
ATOM     18  C   UNL     1     -35.672  22.408  -2.018  0.00  0.00    +0.206 C 
ENDROOT
BRANCH   3  19
ATOM     19  O   UNL     1     -39.518  20.142   0.170  0.00  0.00    -0.380 OA
ATOM     20  H   UNL     1     -40.437  20.019   0.456  0.00  0.00    +0.211 HD
ENDBRANCH   3  19
BRANCH  14  21
ATOM     21  O   UNL     1     -34.726  23.750  -0.316  0.00  0.00    -0.468 OA
ATOM     22  C   UNL     1     -34.873  25.133  -0.622  0.00  0.00    +0.253 C 
ENDBRANCH  14  21
BRANCH  15  23
ATOM     23  O   UNL     1     -36.663  24.802   5.353  0.00  0.00    -0.468 OA
ATOM     24  C   UNL     1     -35.930  26.013   5.531  0.00  0.00    +0.253 C 
ENDBRANCH  15  23
BRANCH  16  25
ATOM     25  O   UNL     1     -34.744  22.991   4.526  0.00  0.00    -0.465 OA
ATOM     26  C   UNL     1     -35.076  22.018   5.515  0.00  0.00    +0.253 C 
ENDBRANCH  16  25
BRANCH  18  27
ATOM     27  O   UNL     1     -34.612  22.705  -2.822  0.00  0.00    -0.465 OA
ATOM     28  C   UNL     1     -33.492  21.824  -2.767  0.00  0.00    +0.253 C 
ENDBRANCH  18  27
BRANCH  17  29
ATOM     29  O   UNL     1     -36.659  21.095  -3.752  0.00  0.00    -0.503 OA
ATOM     30  H   UNL     1     -35.851  20.774  -4.103  0.00  0.00    +0.292 HD
ENDBRANCH  17  29
BRANCH  13  31
ATOM     31  O   UNL     1     -34.855  21.917   2.028  0.00  0.00    -0.421 OA
BRANCH  31  33
ATOM     32  O   UNL     1     -36.163  20.135   2.789  0.00  0.00    -0.250 OA
ATOM     33  C   UNL     1     -35.335  20.598   2.016  0.00  0.00    +0.321 C 
BRANCH  33  34
ATOM     34  C   UNL     1     -34.647  19.811   0.912  0.00  0.00    +0.099 C 
ATOM     35  C   UNL     1     -35.686  18.914   0.245  0.00  0.00    +0.012 C 
BRANCH  34  36
ATOM     36  C   UNL     1     -33.477  18.984   1.461  0.00  0.00    +0.011 C 
ATOM     37  C   UNL     1     -32.174  19.247   0.715  0.00  0.00    +0.001 C 
ENDBRANCH  34  36
ENDBRANCH  33  34
ENDBRANCH  31  33
ENDBRANCH  13  31
TORSDOF 10
ENDMDL
MODEL 9
REMARK VINA RESULT:      -5.1      1.962      5.309
REMARK  Name = 56970640
REMARK  10 active torsions:
REMARK  status: ('A' for Active; 'I' for Inactive)
REMARK    1  A    between atoms: C_3  and  O_19
REMARK    2  A    between atoms: C_13  and  O_31
REMARK    3  A    between atoms: C_14  and  O_21
REMARK    4  A    between atoms: C_15  and  O_23
REMARK    5  A    between atoms: C_16  and  O_25
REMARK    6  A    between atoms: C_17  and  O_29
REMARK    7  A    between atoms: C_18  and  O_27
REMARK    8  A    between atoms: O_31  and  C_33
REMARK    9  A    between atoms: C_33  and  C_34
REMARK   10  A    between atoms: C_34  and  C_36
REMARK                            x       y       z     vdW  Elec       q    Type
REMARK                         _______ _______ _______ _____ _____    ______ ____
ROOT
ATOM      1  C   UNL     1     -33.823  25.214  -1.297  0.00  0.00    +0.031 C 
ATOM      2  C   UNL     1     -35.050  26.031  -1.806  0.00  0.00    +0.007 C 
ATOM      3  C   UNL     1     -33.938  24.764   0.189  0.00  0.00    +0.133 C 
ATOM      4  C   UNL     1     -35.375  27.304  -0.999  0.00  0.00    +0.027 C 
ATOM      5  C   UNL     1     -33.526  25.795   1.234  0.00  0.00    +0.010 C 
ATOM      6  C   UNL     1     -36.329  27.018   0.142  0.00  0.00    -0.016 C 
ATOM      7  C   UNL     1     -32.470  25.866  -1.620  0.00  0.00    +0.003 C 
ATOM      8  C   UNL     1     -34.910  26.390  -3.294  0.00  0.00    +0.000 C 
ATOM      9  C   UNL     1     -34.454  26.697   1.806  0.00  0.00    +0.038 C 
ATOM     10  C   UNL     1     -35.883  26.711   1.443  0.00  0.00    +0.037 C 
ATOM     11  C   UNL     1     -32.179  25.861   1.651  0.00  0.00    +0.038 C 
ATOM     12  C   UNL     1     -37.711  27.022  -0.133  0.00  0.00    +0.036 C 
ATOM     13  C   UNL     1     -36.845  26.425   2.434  0.00  0.00    +0.185 C 
ATOM     14  C   UNL     1     -33.997  27.627   2.765  0.00  0.00    +0.175 C 
ATOM     15  C   UNL     1     -38.643  26.737   0.862  0.00  0.00    +0.175 C 
ATOM     16  C   UNL     1     -38.209  26.437   2.147  0.00  0.00    +0.207 C 
ATOM     17  C   UNL     1     -31.751  26.788   2.601  0.00  0.00    +0.171 C 
ATOM     18  C   UNL     1     -32.661  27.672   3.159  0.00  0.00    +0.206 C 
ENDROOT
BRANCH   3  19
ATOM     19  O   UNL     1     -33.139  23.584   0.371  0.00  0.00    -0.380 OA
ATOM     20  H   UNL     1     -33.554  23.012   1.037  0.00  0.00    +0.211 HD
ENDBRANCH   3  19
BRANCH  14  21
ATOM     21  O   UNL     1     -34.851  28.552   3.305  0.00  0.00    -0.468 OA
ATOM     22  C   UNL     1     -34.957  29.797   2.624  0.00  0.00    +0.253 C 
ENDBRANCH  14  21
BRANCH  15  23
ATOM     23  O   UNL     1     -39.971  26.750   0.560  0.00  0.00    -0.468 OA
ATOM     24  C   UNL     1     -40.489  27.939  -0.034  0.00  0.00    +0.253 C 
ENDBRANCH  15  23
BRANCH  16  25
ATOM     25  O   UNL     1     -39.119  26.148   3.121  0.00  0.00    -0.465 OA
ATOM     26  C   UNL     1     -39.664  24.830   3.125  0.00  0.00    +0.253 C 
ENDBRANCH  16  25
BRANCH  18  27
ATOM     27  O   UNL     1     -32.247  28.587   4.080  0.00  0.00    -0.465 OA
ATOM     28  C   UNL     1     -32.163  28.149   5.435  0.00  0.00    +0.253 C 
ENDBRANCH  18  27
BRANCH  17  29
ATOM     29  O   UNL     1     -30.440  26.814   2.968  0.00  0.00    -0.503 OA
ATOM     30  H   UNL     1     -30.101  27.548   3.442  0.00  0.00    +0.292 HD
ENDBRANCH  17  29
BRANCH  13  31
ATOM     31  O   UNL     1     -36.460  26.077   3.702  0.00  0.00    -0.421 OA
BRANCH  31  33
ATOM     32  O   UNL     1     -36.257  23.865   2.975  0.00  0.00    -0.250 OA
ATOM     33  C   UNL     1     -36.149  24.717   3.848  0.00  0.00    +0.321 C 
BRANCH  33  34
ATOM     34  C   UNL     1     -35.683  24.446   5.269  0.00  0.00    +0.099 C 
ATOM     35  C   UNL     1     -34.863  25.643   5.741  0.00  0.00    +0.012 C 
BRANCH  34  36
ATOM     36  C   UNL     1     -34.864  23.150   5.351  0.00  0.00    +0.011 C 
ATOM     37  C   UNL     1     -35.478  22.130   6.301  0.00  0.00    +0.001 C 
ENDBRANCH  34  36
ENDBRANCH  33  34
ENDBRANCH  31  33
ENDBRANCH  13  31
TORSDOF 10
ENDMDL
