MODEL 1
REMARK VINA RESULT:      -5.9      0.000      0.000
REMARK  Name = 54751361
REMARK  8 active torsions:
REMARK  status: ('A' for Active; 'I' for Inactive)
REMARK    1  A    between atoms: C_4  and  N_14
REMARK    2  A    between atoms: C_5  and  C_31
REMARK    3  A    between atoms: C_8  and  O_32
REMARK    4  A    between atoms: C_10  and  O_34
REMARK    5  A    between atoms: C_15  and  C_17
REMARK    6  A    between atoms: C_17  and  N_20
REMARK    7  A    between atoms: C_21  and  C_23
REMARK    8  A    between atoms: C_23  and  N_25
REMARK                            x       y       z     vdW  Elec       q    Type
REMARK                         _______ _______ _______ _____ _____    ______ ____
ROOT
ATOM      1  O   UNL     1     -32.753  25.941   3.581  0.00  0.00    -0.449 OA
ATOM      2  O   UNL     1     -31.047  25.799   2.134  0.00  0.00    -0.245 OA
ATOM      3  C   UNL     1     -34.700  25.562   1.515  0.00  0.00    +0.055 C 
ATOM      4  C   UNL     1     -35.068  25.340   2.990  0.00  0.00    +0.115 C 
ATOM      5  C   UNL     1     -34.150  26.187   3.892  0.00  0.00    +0.181 C 
ATOM      6  C   UNL     1     -35.612  24.758   0.570  0.00  0.00    +0.036 C 
ATOM      7  C   UNL     1     -33.229  25.318   1.281  0.00  0.00    +0.084 C 
ATOM      8  C   UNL     1     -35.113  24.867  -0.867  0.00  0.00    +0.118 C 
ATOM      9  C   UNL     1     -33.691  24.320  -0.980  0.00  0.00    +0.093 C 
ATOM     10  C   UNL     1     -32.782  24.734   0.148  0.00  0.00    +0.116 C 
ATOM     11  C   UNL     1     -34.396  27.696   3.720  0.00  0.00    +0.048 C 
ATOM     12  C   UNL     1     -32.254  25.712   2.339  0.00  0.00    +0.340 C 
ENDROOT
BRANCH   4  14
ATOM     13  O   UNL     1     -37.240  23.697   3.916  0.00  0.00    -0.273 OA
ATOM     14  N   UNL     1     -35.006  23.934   3.341  0.00  0.00    -0.301 N 
ATOM     15  C   UNL     1     -36.112  23.228   3.779  0.00  0.00    +0.240 C 
ATOM     16  H   UNL     1     -34.144  23.464   3.266  0.00  0.00    +0.150 HD
BRANCH  15  17
ATOM     17  C   UNL     1     -35.787  21.762   4.034  0.00  0.00    +0.149 C 
ATOM     18  C   UNL     1     -35.058  21.589   5.357  0.00  0.00    +0.031 C 
BRANCH  17  20
ATOM     19  O   UNL     1     -36.502  19.693   2.167  0.00  0.00    -0.277 OA
ATOM     20  N   UNL     1     -34.996  21.284   2.932  0.00  0.00    -0.300 N 
ATOM     21  C   UNL     1     -35.423  20.275   2.077  0.00  0.00    +0.202 C 
ATOM     22  H   UNL     1     -34.112  21.690   2.776  0.00  0.00    +0.150 HD
BRANCH  21  23
ATOM     23  C   UNL     1     -34.418  19.993   0.967  0.00  0.00    +0.013 C 
ATOM     24  C   UNL     1     -33.430  18.917   1.388  0.00  0.00    -0.015 C 
BRANCH  23  25
ATOM     25  N   UNL     1     -33.747  21.227   0.652  0.00  0.00    +0.387 N 
ATOM     26  H   UNL     1     -32.820  21.024   0.278  0.00  0.00    -0.089 HD
ATOM     27  H   UNL     1     -33.656  21.790   1.497  0.00  0.00    -0.089 HD
ATOM     28  H   UNL     1     -34.289  21.741  -0.043  0.00  0.00    -0.089 HD
ENDBRANCH  23  25
ENDBRANCH  21  23
ENDBRANCH  17  20
ENDBRANCH  15  17
ENDBRANCH   4  14
BRANCH   5  31
ATOM     29 CL   UNL     1     -36.014  26.128   5.858  0.00  0.00    -0.093 Cl
ATOM     30 CL   UNL     1     -33.233  26.832   6.359  0.00  0.00    -0.093 Cl
ATOM     31  C   UNL     1     -34.331  25.844   5.379  0.00  0.00    +0.196 C 
ENDBRANCH   5  31
BRANCH   8  32
ATOM     32  O   UNL     1     -35.961  24.117  -1.730  0.00  0.00    -0.384 OA
ATOM     33  H   UNL     1     -36.889  24.298  -1.509  0.00  0.00    +0.210 HD
ENDBRANCH   8  32
BRANCH  10  34
ATOM     34  O   UNL     1     -31.444  24.461  -0.067  0.00  0.00    -0.510 OA
ATOM     35  H   UNL     1     -31.158  23.575  -0.175  0.00  0.00    +0.292 HD
ENDBRANCH  10  34
TORSDOF 8
ENDMDL
MODEL 2
REMARK VINA RESULT:      -5.7      3.531      5.551
REMARK  Name = 54751361
REMARK  8 active torsions:
REMARK  status: ('A' for Active; 'I' for Inactive)
REMARK    1  A    between atoms: C_4  and  N_14
REMARK    2  A    between atoms: C_5  and  C_31
REMARK    3  A    between atoms: C_8  and  O_32
REMARK    4  A    between atoms: C_10  and  O_34
REMARK    5  A    between atoms: C_15  and  C_17
REMARK    6  A    between atoms: C_17  and  N_20
REMARK    7  A    between atoms: C_21  and  C_23
REMARK    8  A    between atoms: C_23  and  N_25
REMARK                            x       y       z     vdW  Elec       q    Type
REMARK                         _______ _______ _______ _____ _____    ______ ____
ROOT
ATOM      1  O   UNL     1     -33.087  30.781   3.592  0.00  0.00    -0.449 OA
ATOM      2  O   UNL     1     -31.330  31.735   4.604  0.00  0.00    -0.245 OA
ATOM      3  C   UNL     1     -31.520  28.562   2.686  0.00  0.00    +0.055 C 
ATOM      4  C   UNL     1     -33.052  28.471   2.737  0.00  0.00    +0.115 C 
ATOM      5  C   UNL     1     -33.664  29.879   2.611  0.00  0.00    +0.181 C 
ATOM      6  C   UNL     1     -30.860  27.173   2.778  0.00  0.00    +0.036 C 
ATOM      7  C   UNL     1     -31.001  29.541   3.712  0.00  0.00    +0.084 C 
ATOM      8  C   UNL     1     -29.346  27.312   2.897  0.00  0.00    +0.118 C 
ATOM      9  C   UNL     1     -28.982  28.108   4.149  0.00  0.00    +0.093 C 
ATOM     10  C   UNL     1     -29.853  29.315   4.386  0.00  0.00    +0.116 C 
ATOM     11  C   UNL     1     -33.422  30.499   1.224  0.00  0.00    +0.048 C 
ATOM     12  C   UNL     1     -31.792  30.773   3.999  0.00  0.00    +0.340 C 
ENDROOT
BRANCH   4  14
ATOM     13  O   UNL     1     -34.358  25.913   2.909  0.00  0.00    -0.273 OA
ATOM     14  N   UNL     1     -33.500  27.803   3.944  0.00  0.00    -0.301 N 
ATOM     15  C   UNL     1     -34.122  26.567   3.922  0.00  0.00    +0.240 C 
ATOM     16  H   UNL     1     -33.357  28.247   4.811  0.00  0.00    +0.150 HD
BRANCH  15  17
ATOM     17  C   UNL     1     -34.447  26.070   5.325  0.00  0.00    +0.149 C 
ATOM     18  C   UNL     1     -33.459  26.623   6.340  0.00  0.00    +0.031 C 
BRANCH  17  20
ATOM     19  O   UNL     1     -36.705  24.321   4.986  0.00  0.00    -0.277 OA
ATOM     20  N   UNL     1     -34.427  24.632   5.303  0.00  0.00    -0.300 N 
ATOM     21  C   UNL     1     -35.573  23.863   5.133  0.00  0.00    +0.202 C 
ATOM     22  H   UNL     1     -33.564  24.171   5.412  0.00  0.00    +0.150 HD
BRANCH  21  23
ATOM     23  C   UNL     1     -35.269  22.372   5.099  0.00  0.00    +0.013 C 
ATOM     24  C   UNL     1     -35.684  21.762   3.768  0.00  0.00    -0.015 C 
BRANCH  23  25
ATOM     25  N   UNL     1     -35.961  21.751   6.198  0.00  0.00    +0.387 N 
ATOM     26  H   UNL     1     -36.740  22.343   6.488  0.00  0.00    -0.089 HD
ATOM     27  H   UNL     1     -35.318  21.629   6.979  0.00  0.00    -0.089 HD
ATOM     28  H   UNL     1     -36.318  20.841   5.904  0.00  0.00    -0.089 HD
ENDBRANCH  23  25
ENDBRANCH  21  23
ENDBRANCH  17  20
ENDBRANCH  15  17
ENDBRANCH   4  14
BRANCH   5  31
ATOM     29 CL   UNL     1     -35.978  28.803   1.699  0.00  0.00    -0.093 Cl
ATOM     30 CL   UNL     1     -35.817  31.520   2.737  0.00  0.00    -0.093 Cl
ATOM     31  C   UNL     1     -35.180  29.871   2.867  0.00  0.00    +0.196 C 
ENDBRANCH   5  31
BRANCH   8  32
ATOM     32  O   UNL     1     -28.749  26.024   2.984  0.00  0.00    -0.384 OA
ATOM     33  H   UNL     1     -28.266  25.946   3.823  0.00  0.00    +0.210 HD
ENDBRANCH   8  32
BRANCH  10  34
ATOM     34  O   UNL     1     -29.384  30.175   5.360  0.00  0.00    -0.510 OA
ATOM     35  H   UNL     1     -29.223  29.859   6.228  0.00  0.00    +0.292 HD
ENDBRANCH  10  34
TORSDOF 8
ENDMDL
MODEL 3
REMARK VINA RESULT:      -5.7      2.774      6.217
REMARK  Name = 54751361
REMARK  8 active torsions:
REMARK  status: ('A' for Active; 'I' for Inactive)
REMARK    1  A    between atoms: C_4  and  N_14
REMARK    2  A    between atoms: C_5  and  C_31
REMARK    3  A    between atoms: C_8  and  O_32
REMARK    4  A    between atoms: C_10  and  O_34
REMARK    5  A    between atoms: C_15  and  C_17
REMARK    6  A    between atoms: C_17  and  N_20
REMARK    7  A    between atoms: C_21  and  C_23
REMARK    8  A    between atoms: C_23  and  N_25
REMARK                            x       y       z     vdW  Elec       q    Type
REMARK                         _______ _______ _______ _____ _____    ______ ____
ROOT
ATOM      1  O   UNL     1     -37.055  23.788   4.042  0.00  0.00    -0.449 OA
ATOM      2  O   UNL     1     -39.105  24.619   3.680  0.00  0.00    -0.245 OA
ATOM      3  C   UNL     1     -36.071  24.793   1.547  0.00  0.00    +0.055 C 
ATOM      4  C   UNL     1     -35.101  24.390   2.668  0.00  0.00    +0.115 C 
ATOM      5  C   UNL     1     -35.758  23.332   3.573  0.00  0.00    +0.181 C 
ATOM      6  C   UNL     1     -35.446  25.830   0.594  0.00  0.00    +0.036 C 
ATOM      7  C   UNL     1     -37.402  25.224   2.112  0.00  0.00    +0.084 C 
ATOM      8  C   UNL     1     -36.489  26.332  -0.399  0.00  0.00    +0.118 C 
ATOM      9  C   UNL     1     -37.654  26.989   0.340  0.00  0.00    +0.093 C 
ATOM     10  C   UNL     1     -38.107  26.238   1.566  0.00  0.00    +0.116 C 
ATOM     11  C   UNL     1     -35.982  21.997   2.843  0.00  0.00    +0.048 C 
ATOM     12  C   UNL     1     -37.936  24.524   3.317  0.00  0.00    +0.340 C 
ENDROOT
BRANCH   4  14
ATOM     13  O   UNL     1     -32.444  25.488   2.774  0.00  0.00    -0.273 OA
ATOM     14  N   UNL     1     -34.668  25.546   3.430  0.00  0.00    -0.301 N 
ATOM     15  C   UNL     1     -33.360  25.998   3.415  0.00  0.00    +0.240 C 
ATOM     16  H   UNL     1     -35.329  26.026   3.978  0.00  0.00    +0.150 HD
BRANCH  15  17
ATOM     17  C   UNL     1     -33.183  27.253   4.261  0.00  0.00    +0.149 C 
ATOM     18  C   UNL     1     -33.299  26.931   5.742  0.00  0.00    +0.031 C 
BRANCH  17  20
ATOM     19  O   UNL     1     -32.948  29.186   2.144  0.00  0.00    -0.277 OA
ATOM     20  N   UNL     1     -34.178  28.208   3.851  0.00  0.00    -0.300 N 
ATOM     21  C   UNL     1     -33.977  29.110   2.813  0.00  0.00    +0.202 C 
ATOM     22  H   UNL     1     -35.040  28.224   4.328  0.00  0.00    +0.150 HD
BRANCH  21  23
ATOM     23  C   UNL     1     -35.204  29.975   2.553  0.00  0.00    +0.013 C 
ATOM     24  C   UNL     1     -35.014  30.828   1.308  0.00  0.00    -0.015 C 
BRANCH  23  25
ATOM     25  N   UNL     1     -35.428  30.790   3.718  0.00  0.00    +0.387 N 
ATOM     26  H   UNL     1     -35.532  30.191   4.537  0.00  0.00    -0.089 HD
ATOM     27  H   UNL     1     -36.276  31.340   3.589  0.00  0.00    -0.089 HD
ATOM     28  H   UNL     1     -34.633  31.415   3.853  0.00  0.00    -0.089 HD
ENDBRANCH  23  25
ENDBRANCH  21  23
ENDBRANCH  17  20
ENDBRANCH  15  17
ENDBRANCH   4  14
BRANCH   5  31
ATOM     29 CL   UNL     1     -35.082  21.343   5.285  0.00  0.00    -0.093 Cl
ATOM     30 CL   UNL     1     -35.449  24.099   6.154  0.00  0.00    -0.093 Cl
ATOM     31  C   UNL     1     -34.918  23.048   4.829  0.00  0.00    +0.196 C 
ENDBRANCH   5  31
BRANCH   8  32
ATOM     32  O   UNL     1     -35.902  27.291  -1.271  0.00  0.00    -0.384 OA
ATOM     33  H   UNL     1     -36.462  28.084  -1.305  0.00  0.00    +0.210 HD
ENDBRANCH   8  32
BRANCH  10  34
ATOM     34  O   UNL     1     -39.306  26.678   2.094  0.00  0.00    -0.510 OA
ATOM     35  H   UNL     1     -39.811  26.112   2.644  0.00  0.00    +0.292 HD
ENDBRANCH  10  34
TORSDOF 8
ENDMDL
MODEL 4
REMARK VINA RESULT:      -5.7      3.224      6.565
REMARK  Name = 54751361
REMARK  8 active torsions:
REMARK  status: ('A' for Active; 'I' for Inactive)
REMARK    1  A    between atoms: C_4  and  N_14
REMARK    2  A    between atoms: C_5  and  C_31
REMARK    3  A    between atoms: C_8  and  O_32
REMARK    4  A    between atoms: C_10  and  O_34
REMARK    5  A    between atoms: C_15  and  C_17
REMARK    6  A    between atoms: C_17  and  N_20
REMARK    7  A    between atoms: C_21  and  C_23
REMARK    8  A    between atoms: C_23  and  N_25
REMARK                            x       y       z     vdW  Elec       q    Type
REMARK                         _______ _______ _______ _____ _____    ______ ____
ROOT
ATOM      1  O   UNL     1     -37.725  24.027   1.381  0.00  0.00    -0.449 OA
ATOM      2  O   UNL     1     -37.020  22.127   0.424  0.00  0.00    -0.245 OA
ATOM      3  C   UNL     1     -36.867  23.185   3.980  0.00  0.00    +0.055 C 
ATOM      4  C   UNL     1     -37.138  24.668   3.686  0.00  0.00    +0.115 C 
ATOM      5  C   UNL     1     -38.155  24.796   2.536  0.00  0.00    +0.181 C 
ATOM      6  C   UNL     1     -35.877  23.005   5.146  0.00  0.00    +0.036 C 
ATOM      7  C   UNL     1     -36.457  22.451   2.726  0.00  0.00    +0.084 C 
ATOM      8  C   UNL     1     -35.500  21.534   5.298  0.00  0.00    +0.118 C 
ATOM      9  C   UNL     1     -34.844  21.019   4.018  0.00  0.00    +0.093 C 
ATOM     10  C   UNL     1     -35.521  21.478   2.752  0.00  0.00    +0.116 C 
ATOM     11  C   UNL     1     -39.550  24.283   2.931  0.00  0.00    +0.048 C 
ATOM     12  C   UNL     1     -37.088  22.829   1.428  0.00  0.00    +0.340 C 
ENDROOT
BRANCH   4  14
ATOM     13  O   UNL     1     -35.837  26.625   5.345  0.00  0.00    -0.273 OA
ATOM     14  N   UNL     1     -35.909  25.380   3.390  0.00  0.00    -0.301 N 
ATOM     15  C   UNL     1     -35.361  26.308   4.257  0.00  0.00    +0.240 C 
ATOM     16  H   UNL     1     -35.449  25.196   2.539  0.00  0.00    +0.150 HD
BRANCH  15  17
ATOM     17  C   UNL     1     -34.048  26.872   3.730  0.00  0.00    +0.149 C 
ATOM     18  C   UNL     1     -33.309  25.838   2.894  0.00  0.00    +0.031 C 
BRANCH  17  20
ATOM     19  O   UNL     1     -32.302  29.155   3.852  0.00  0.00    -0.277 OA
ATOM     20  N   UNL     1     -33.261  27.295   4.857  0.00  0.00    -0.300 N 
ATOM     21  C   UNL     1     -32.440  28.417   4.827  0.00  0.00    +0.202 C 
ATOM     22  H   UNL     1     -33.306  26.768   5.687  0.00  0.00    +0.150 HD
BRANCH  21  23
ATOM     23  C   UNL     1     -31.757  28.670   6.164  0.00  0.00    +0.013 C 
ATOM     24  C   UNL     1     -30.249  28.510   6.044  0.00  0.00    -0.015 C 
BRANCH  23  25
ATOM     25  N   UNL     1     -32.307  27.750   7.125  0.00  0.00    +0.387 N 
ATOM     26  H   UNL     1     -32.737  28.272   7.888  0.00  0.00    -0.089 HD
ATOM     27  H   UNL     1     -31.563  27.160   7.494  0.00  0.00    -0.089 HD
ATOM     28  H   UNL     1     -33.012  27.167   6.673  0.00  0.00    -0.089 HD
ENDBRANCH  23  25
ENDBRANCH  21  23
ENDBRANCH  17  20
ENDBRANCH  15  17
ENDBRANCH   4  14
BRANCH   5  31
ATOM     29 CL   UNL     1     -40.015  26.613   1.773  0.00  0.00    -0.093 Cl
ATOM     30 CL   UNL     1     -37.361  26.493   0.578  0.00  0.00    -0.093 Cl
ATOM     31  C   UNL     1     -38.303  26.250   2.059  0.00  0.00    +0.196 C 
ENDBRANCH   5  31
BRANCH   8  32
ATOM     32  O   UNL     1     -34.583  21.381   6.375  0.00  0.00    -0.384 OA
ATOM     33  H   UNL     1     -34.821  20.596   6.894  0.00  0.00    +0.210 HD
ENDBRANCH   8  32
BRANCH  10  34
ATOM     34  O   UNL     1     -35.099  20.824   1.610  0.00  0.00    -0.510 OA
ATOM     35  H   UNL     1     -35.005  19.892   1.610  0.00  0.00    +0.292 HD
ENDBRANCH  10  34
TORSDOF 8
ENDMDL
MODEL 5
REMARK VINA RESULT:      -5.6      3.420      5.697
REMARK  Name = 54751361
REMARK  8 active torsions:
REMARK  status: ('A' for Active; 'I' for Inactive)
REMARK    1  A    between atoms: C_4  and  N_14
REMARK    2  A    between atoms: C_5  and  C_31
REMARK    3  A    between atoms: C_8  and  O_32
REMARK    4  A    between atoms: C_10  and  O_34
REMARK    5  A    between atoms: C_15  and  C_17
REMARK    6  A    between atoms: C_17  and  N_20
REMARK    7  A    between atoms: C_21  and  C_23
REMARK    8  A    between atoms: C_23  and  N_25
REMARK                            x       y       z     vdW  Elec       q    Type
REMARK                         _______ _______ _______ _____ _____    ______ ____
ROOT
ATOM      1  O   UNL     1     -34.438  26.876   1.731  0.00  0.00    -0.449 OA
ATOM      2  O   UNL     1     -34.831  27.945   3.661  0.00  0.00    -0.245 OA
ATOM      3  C   UNL     1     -34.617  24.302   2.975  0.00  0.00    +0.055 C 
ATOM      4  C   UNL     1     -34.755  24.449   1.452  0.00  0.00    +0.115 C 
ATOM      5  C   UNL     1     -34.008  25.710   0.978  0.00  0.00    +0.181 C 
ATOM      6  C   UNL     1     -35.322  23.035   3.494  0.00  0.00    +0.036 C 
ATOM      7  C   UNL     1     -35.052  25.564   3.681  0.00  0.00    +0.084 C 
ATOM      8  C   UNL     1     -35.313  23.012   5.019  0.00  0.00    +0.118 C 
ATOM      9  C   UNL     1     -36.038  24.236   5.575  0.00  0.00    +0.093 C 
ATOM     10  C   UNL     1     -35.715  25.521   4.857  0.00  0.00    +0.116 C 
ATOM     11  C   UNL     1     -32.485  25.589   1.156  0.00  0.00    +0.048 C 
ATOM     12  C   UNL     1     -34.759  26.883   3.050  0.00  0.00    +0.340 C 
ENDROOT
BRANCH   4  14
ATOM     13  O   UNL     1     -36.117  22.496  -0.162  0.00  0.00    -0.273 OA
ATOM     14  N   UNL     1     -36.148  24.474   1.050  0.00  0.00    -0.301 N 
ATOM     15  C   UNL     1     -36.713  23.481   0.267  0.00  0.00    +0.240 C 
ATOM     16  H   UNL     1     -36.712  25.224   1.343  0.00  0.00    +0.150 HD
BRANCH  15  17
ATOM     17  C   UNL     1     -38.198  23.722   0.030  0.00  0.00    +0.149 C 
ATOM     18  C   UNL     1     -38.420  24.571  -1.212  0.00  0.00    +0.031 C 
BRANCH  17  20
ATOM     19  O   UNL     1     -40.618  23.010   1.413  0.00  0.00    -0.277 OA
ATOM     20  N   UNL     1     -38.739  24.356   1.203  0.00  0.00    -0.300 N 
ATOM     21  C   UNL     1     -39.921  23.943   1.807  0.00  0.00    +0.202 C 
ATOM     22  H   UNL     1     -38.250  25.115   1.595  0.00  0.00    +0.150 HD
BRANCH  21  23
ATOM     23  C   UNL     1     -40.243  24.750   3.058  0.00  0.00    +0.013 C 
ATOM     24  C   UNL     1     -40.858  26.093   2.696  0.00  0.00    -0.015 C 
BRANCH  23  25
ATOM     25  N   UNL     1     -39.024  24.916   3.806  0.00  0.00    +0.387 N 
ATOM     26  H   UNL     1     -38.851  24.080   4.364  0.00  0.00    -0.089 HD
ATOM     27  H   UNL     1     -39.110  25.724   4.421  0.00  0.00    -0.089 HD
ATOM     28  H   UNL     1     -38.247  25.061   3.160  0.00  0.00    -0.089 HD
ENDBRANCH  23  25
ENDBRANCH  21  23
ENDBRANCH  17  20
ENDBRANCH  15  17
ENDBRANCH   4  14
BRANCH   5  31
ATOM     29 CL   UNL     1     -33.685  24.700  -1.515  0.00  0.00    -0.093 Cl
ATOM     30 CL   UNL     1     -33.512  27.551  -0.948  0.00  0.00    -0.093 Cl
ATOM     31  C   UNL     1     -34.289  26.022  -0.501  0.00  0.00    +0.196 C 
ENDBRANCH   5  31
BRANCH   8  32
ATOM     32  O   UNL     1     -35.969  21.839   5.487  0.00  0.00    -0.384 OA
ATOM     33  H   UNL     1     -35.453  21.445   6.208  0.00  0.00    +0.210 HD
ENDBRANCH   8  32
BRANCH  10  34
ATOM     34  O   UNL     1     -36.162  26.661   5.498  0.00  0.00    -0.510 OA
ATOM     35  H   UNL     1     -35.621  27.081   6.138  0.00  0.00    +0.292 HD
ENDBRANCH  10  34
TORSDOF 8
ENDMDL
MODEL 6
REMARK VINA RESULT:      -5.6      2.261      4.936
REMARK  Name = 54751361
REMARK  8 active torsions:
REMARK  status: ('A' for Active; 'I' for Inactive)
REMARK    1  A    between atoms: C_4  and  N_14
REMARK    2  A    between atoms: C_5  and  C_31
REMARK    3  A    between atoms: C_8  and  O_32
REMARK    4  A    between atoms: C_10  and  O_34
REMARK    5  A    between atoms: C_15  and  C_17
REMARK    6  A    between atoms: C_17  and  N_20
REMARK    7  A    between atoms: C_21  and  C_23
REMARK    8  A    between atoms: C_23  and  N_25
REMARK                            x       y       z     vdW  Elec       q    Type
REMARK                         _______ _______ _______ _____ _____    ______ ____
ROOT
ATOM      1  O   UNL     1     -34.597  24.319   0.153  0.00  0.00    -0.449 OA
ATOM      2  O   UNL     1     -32.679  23.992  -0.959  0.00  0.00    -0.245 OA
ATOM      3  C   UNL     1     -34.984  21.511   0.564  0.00  0.00    +0.055 C 
ATOM      4  C   UNL     1     -35.731  22.540   1.425  0.00  0.00    +0.115 C 
ATOM      5  C   UNL     1     -35.883  23.861   0.648  0.00  0.00    +0.181 C 
ATOM      6  C   UNL     1     -34.833  20.160   1.288  0.00  0.00    +0.036 C 
ATOM      7  C   UNL     1     -33.675  22.073   0.064  0.00  0.00    +0.084 C 
ATOM      8  C   UNL     1     -33.943  19.222   0.478  0.00  0.00    +0.118 C 
ATOM      9  C   UNL     1     -32.555  19.833   0.294  0.00  0.00    +0.093 C 
ATOM     10  C   UNL     1     -32.569  21.303  -0.038  0.00  0.00    +0.116 C 
ATOM     11  C   UNL     1     -36.814  23.719  -0.568  0.00  0.00    +0.048 C 
ATOM     12  C   UNL     1     -33.601  23.517  -0.304  0.00  0.00    +0.340 C 
ENDROOT
BRANCH   4  14
ATOM     13  O   UNL     1     -36.982  22.849   3.997  0.00  0.00    -0.273 OA
ATOM     14  N   UNL     1     -35.064  22.746   2.697  0.00  0.00    -0.301 N 
ATOM     15  C   UNL     1     -35.758  22.884   3.886  0.00  0.00    +0.240 C 
ATOM     16  H   UNL     1     -34.081  22.789   2.714  0.00  0.00    +0.150 HD
BRANCH  15  17
ATOM     17  C   UNL     1     -34.820  23.040   5.076  0.00  0.00    +0.149 C 
ATOM     18  C   UNL     1     -35.354  22.295   6.290  0.00  0.00    +0.031 C 
BRANCH  17  20
ATOM     19  O   UNL     1     -33.197  24.915   3.618  0.00  0.00    -0.277 OA
ATOM     20  N   UNL     1     -34.674  24.446   5.346  0.00  0.00    -0.300 N 
ATOM     21  C   UNL     1     -33.863  25.280   4.585  0.00  0.00    +0.202 C 
ATOM     22  H   UNL     1     -35.170  24.834   6.103  0.00  0.00    +0.150 HD
BRANCH  21  23
ATOM     23  C   UNL     1     -33.925  26.728   5.052  0.00  0.00    +0.013 C 
ATOM     24  C   UNL     1     -33.077  27.624   4.161  0.00  0.00    -0.015 C 
BRANCH  23  25
ATOM     25  N   UNL     1     -33.477  26.774   6.419  0.00  0.00    +0.387 N 
ATOM     26  H   UNL     1     -34.275  26.936   7.033  0.00  0.00    -0.089 HD
ATOM     27  H   UNL     1     -32.804  27.532   6.531  0.00  0.00    -0.089 HD
ATOM     28  H   UNL     1     -33.035  25.887   6.662  0.00  0.00    -0.089 HD
ENDBRANCH  23  25
ENDBRANCH  21  23
ENDBRANCH  17  20
ENDBRANCH  15  17
ENDBRANCH   4  14
BRANCH   5  31
ATOM     29 CL   UNL     1     -38.122  25.318   1.106  0.00  0.00    -0.093 Cl
ATOM     30 CL   UNL     1     -35.446  26.447   1.331  0.00  0.00    -0.093 Cl
ATOM     31  C   UNL     1     -36.434  24.990   1.536  0.00  0.00    +0.196 C 
ENDBRANCH   5  31
BRANCH   8  32
ATOM     32  O   UNL     1     -33.809  17.979   1.158  0.00  0.00    -0.384 OA
ATOM     33  H   UNL     1     -33.952  17.251   0.532  0.00  0.00    +0.210 HD
ENDBRANCH   8  32
BRANCH  10  34
ATOM     34  O   UNL     1     -31.350  21.807  -0.451  0.00  0.00    -0.510 OA
ATOM     35  H   UNL     1     -30.564  21.551  -0.011  0.00  0.00    +0.292 HD
ENDBRANCH  10  34
TORSDOF 8
ENDMDL
MODEL 7
REMARK VINA RESULT:      -5.6      2.821      4.437
REMARK  Name = 54751361
REMARK  8 active torsions:
REMARK  status: ('A' for Active; 'I' for Inactive)
REMARK    1  A    between atoms: C_4  and  N_14
REMARK    2  A    between atoms: C_5  and  C_31
REMARK    3  A    between atoms: C_8  and  O_32
REMARK    4  A    between atoms: C_10  and  O_34
REMARK    5  A    between atoms: C_15  and  C_17
REMARK    6  A    between atoms: C_17  and  N_20
REMARK    7  A    between atoms: C_21  and  C_23
REMARK    8  A    between atoms: C_23  and  N_25
REMARK                            x       y       z     vdW  Elec       q    Type
REMARK                         _______ _______ _______ _____ _____    ______ ____
ROOT
ATOM      1  O   UNL     1     -36.113  25.667   2.617  0.00  0.00    -0.449 OA
ATOM      2  O   UNL     1     -37.461  26.734   1.179  0.00  0.00    -0.245 OA
ATOM      3  C   UNL     1     -37.870  23.413   2.788  0.00  0.00    +0.055 C 
ATOM      4  C   UNL     1     -36.402  23.297   3.222  0.00  0.00    +0.115 C 
ATOM      5  C   UNL     1     -35.873  24.677   3.653  0.00  0.00    +0.181 C 
ATOM      6  C   UNL     1     -38.455  22.049   2.375  0.00  0.00    +0.036 C 
ATOM      7  C   UNL     1     -38.041  24.481   1.735  0.00  0.00    +0.084 C 
ATOM      8  C   UNL     1     -39.853  22.227   1.791  0.00  0.00    +0.118 C 
ATOM      9  C   UNL     1     -39.803  23.128   0.558  0.00  0.00    +0.093 C 
ATOM     10  C   UNL     1     -38.911  24.333   0.713  0.00  0.00    +0.116 C 
ATOM     11  C   UNL     1     -36.551  25.188   4.936  0.00  0.00    +0.048 C 
ATOM     12  C   UNL     1     -37.209  25.717   1.818  0.00  0.00    +0.340 C 
ENDROOT
BRANCH   4  14
ATOM     13  O   UNL     1     -35.304  20.638   3.153  0.00  0.00    -0.273 OA
ATOM     14  N   UNL     1     -35.586  22.720   2.170  0.00  0.00    -0.301 N 
ATOM     15  C   UNL     1     -35.103  21.425   2.230  0.00  0.00    +0.240 C 
ATOM     16  H   UNL     1     -35.367  23.272   1.385  0.00  0.00    +0.150 HD
BRANCH  15  17
ATOM     17  C   UNL     1     -34.317  21.053   0.979  0.00  0.00    +0.149 C 
ATOM     18  C   UNL     1     -35.217  21.045  -0.246  0.00  0.00    +0.031 C 
BRANCH  17  20
ATOM     19  O   UNL     1     -31.683  20.221   0.176  0.00  0.00    -0.277 OA
ATOM     20  N   UNL     1     -33.716  19.765   1.198  0.00  0.00    -0.300 N 
ATOM     21  C   UNL     1     -32.431  19.448   0.773  0.00  0.00    +0.202 C 
ATOM     22  H   UNL     1     -34.238  19.076   1.670  0.00  0.00    +0.150 HD
BRANCH  21  23
ATOM     23  C   UNL     1     -32.020  18.038   1.173  0.00  0.00    +0.013 C 
ATOM     24  C   UNL     1     -30.571  17.766   0.800  0.00  0.00    -0.015 C 
BRANCH  23  25
ATOM     25  N   UNL     1     -32.911  17.113   0.521  0.00  0.00    +0.387 N 
ATOM     26  H   UNL     1     -32.366  16.398   0.040  0.00  0.00    -0.089 HD
ATOM     27  H   UNL     1     -33.485  17.615  -0.156  0.00  0.00    -0.089 HD
ATOM     28  H   UNL     1     -33.512  16.673   1.217  0.00  0.00    -0.089 HD
ENDBRANCH  23  25
ENDBRANCH  21  23
ENDBRANCH  17  20
ENDBRANCH  15  17
ENDBRANCH   4  14
BRANCH   5  31
ATOM     29 CL   UNL     1     -33.985  25.474   5.426  0.00  0.00    -0.093 Cl
ATOM     30 CL   UNL     1     -33.526  25.466   2.550  0.00  0.00    -0.093 Cl
ATOM     31  C   UNL     1     -34.355  24.662   3.895  0.00  0.00    +0.196 C 
ENDBRANCH   5  31
BRANCH   8  32
ATOM     32  O   UNL     1     -40.381  20.961   1.411  0.00  0.00    -0.384 OA
ATOM     33  H   UNL     1     -41.026  21.081   0.695  0.00  0.00    +0.210 HD
ENDBRANCH   8  32
BRANCH  10  34
ATOM     34  O   UNL     1     -39.051  25.278  -0.286  0.00  0.00    -0.510 OA
ATOM     35  H   UNL     1     -39.139  26.184  -0.065  0.00  0.00    +0.292 HD
ENDBRANCH  10  34
TORSDOF 8
ENDMDL
MODEL 8
REMARK VINA RESULT:      -5.5      2.799      5.081
REMARK  Name = 54751361
REMARK  8 active torsions:
REMARK  status: ('A' for Active; 'I' for Inactive)
REMARK    1  A    between atoms: C_4  and  N_14
REMARK    2  A    between atoms: C_5  and  C_31
REMARK    3  A    between atoms: C_8  and  O_32
REMARK    4  A    between atoms: C_10  and  O_34
REMARK    5  A    between atoms: C_15  and  C_17
REMARK    6  A    between atoms: C_17  and  N_20
REMARK    7  A    between atoms: C_21  and  C_23
REMARK    8  A    between atoms: C_23  and  N_25
REMARK                            x       y       z     vdW  Elec       q    Type
REMARK                         _______ _______ _______ _____ _____    ______ ____
ROOT
ATOM      1  O   UNL     1     -35.106  23.704   0.820  0.00  0.00    -0.449 OA
ATOM      2  O   UNL     1     -36.550  21.993   0.714  0.00  0.00    -0.245 OA
ATOM      3  C   UNL     1     -37.147  25.540   1.636  0.00  0.00    +0.055 C 
ATOM      4  C   UNL     1     -35.663  25.869   1.857  0.00  0.00    +0.115 C 
ATOM      5  C   UNL     1     -34.802  25.124   0.818  0.00  0.00    +0.181 C 
ATOM      6  C   UNL     1     -38.053  26.287   2.633  0.00  0.00    +0.036 C 
ATOM      7  C   UNL     1     -37.375  24.048   1.619  0.00  0.00    +0.084 C 
ATOM      8  C   UNL     1     -39.495  25.809   2.499  0.00  0.00    +0.118 C 
ATOM      9  C   UNL     1     -39.588  24.311   2.783  0.00  0.00    +0.093 C 
ATOM     10  C   UNL     1     -38.482  23.497   2.162  0.00  0.00    +0.116 C 
ATOM     11  C   UNL     1     -35.039  25.638  -0.612  0.00  0.00    +0.048 C 
ATOM     12  C   UNL     1     -36.338  23.165   1.009  0.00  0.00    +0.340 C 
ENDROOT
BRANCH   4  14
ATOM     13  O   UNL     1     -34.891  27.740   3.901  0.00  0.00    -0.273 OA
ATOM     14  N   UNL     1     -35.250  25.554   3.211  0.00  0.00    -0.301 N 
ATOM     15  C   UNL     1     -34.895  26.531   4.125  0.00  0.00    +0.240 C 
ATOM     16  H   UNL     1     -35.220  24.611   3.490  0.00  0.00    +0.150 HD
BRANCH  15  17
ATOM     17  C   UNL     1     -34.550  25.938   5.485  0.00  0.00    +0.149 C 
ATOM     18  C   UNL     1     -33.355  26.648   6.101  0.00  0.00    +0.031 C 
BRANCH  17  20
ATOM     19  O   UNL     1     -36.496  23.820   5.422  0.00  0.00    -0.277 OA
ATOM     20  N   UNL     1     -34.291  24.534   5.306  0.00  0.00    -0.300 N 
ATOM     21  C   UNL     1     -35.298  23.576   5.289  0.00  0.00    +0.202 C 
ATOM     22  H   UNL     1     -33.359  24.239   5.189  0.00  0.00    +0.150 HD
BRANCH  21  23
ATOM     23  C   UNL     1     -34.759  22.175   5.034  0.00  0.00    +0.013 C 
ATOM     24  C   UNL     1     -35.563  21.471   3.952  0.00  0.00    -0.015 C 
BRANCH  23  25
ATOM     25  N   UNL     1     -34.805  21.449   6.276  0.00  0.00    +0.387 N 
ATOM     26  H   UNL     1     -35.058  20.478   6.094  0.00  0.00    -0.089 HD
ATOM     27  H   UNL     1     -35.499  21.871   6.892  0.00  0.00    -0.089 HD
ATOM     28  H   UNL     1     -33.888  21.483   6.723  0.00  0.00    -0.089 HD
ENDBRANCH  23  25
ENDBRANCH  21  23
ENDBRANCH  17  20
ENDBRANCH  15  17
ENDBRANCH   4  14
BRANCH   5  31
ATOM     29 CL   UNL     1     -32.816  26.951   1.061  0.00  0.00    -0.093 Cl
ATOM     30 CL   UNL     1     -32.372  24.296  -0.050  0.00  0.00    -0.093 Cl
ATOM     31  C   UNL     1     -33.300  25.247   1.122  0.00  0.00    +0.196 C 
ENDBRANCH   5  31
BRANCH   8  32
ATOM     32  O   UNL     1     -40.321  26.502   3.427  0.00  0.00    -0.384 OA
ATOM     33  H   UNL     1     -39.776  26.843   4.154  0.00  0.00    +0.210 HD
ENDBRANCH   8  32
BRANCH  10  34
ATOM     34  O   UNL     1     -38.689  22.131   2.197  0.00  0.00    -0.510 OA
ATOM     35  H   UNL     1     -39.330  21.769   2.777  0.00  0.00    +0.292 HD
ENDBRANCH  10  34
TORSDOF 8
ENDMDL
MODEL 9
REMARK VINA RESULT:      -5.5      2.794      6.129
REMARK  Name = 54751361
REMARK  8 active torsions:
REMARK  status: ('A' for Active; 'I' for Inactive)
REMARK    1  A    between atoms: C_4  and  N_14
REMARK    2  A    between atoms: C_5  and  C_31
REMARK    3  A    between atoms: C_8  and  O_32
REMARK    4  A    between atoms: C_10  and  O_34
REMARK    5  A    between atoms: C_15  and  C_17
REMARK    6  A    between atoms: C_17  and  N_20
REMARK    7  A    between atoms: C_21  and  C_23
REMARK    8  A    between atoms: C_23  and  N_25
REMARK                            x       y       z     vdW  Elec       q    Type
REMARK                         _______ _______ _______ _____ _____    ______ ____
ROOT
ATOM      1  O   UNL     1     -37.005  23.976   4.166  0.00  0.00    -0.449 OA
ATOM      2  O   UNL     1     -39.083  24.378   3.427  0.00  0.00    -0.245 OA
ATOM      3  C   UNL     1     -35.877  24.312   1.555  0.00  0.00    +0.055 C 
ATOM      4  C   UNL     1     -34.993  24.396   2.808  0.00  0.00    +0.115 C 
ATOM      5  C   UNL     1     -35.625  23.579   3.951  0.00  0.00    +0.181 C 
ATOM      6  C   UNL     1     -35.270  25.090   0.373  0.00  0.00    +0.036 C 
ATOM      7  C   UNL     1     -37.299  24.709   1.868  0.00  0.00    +0.084 C 
ATOM      8  C   UNL     1     -36.250  25.128  -0.795  0.00  0.00    +0.118 C 
ATOM      9  C   UNL     1     -37.550  25.812  -0.377  0.00  0.00    +0.093 C 
ATOM     10  C   UNL     1     -38.047  25.409   0.988  0.00  0.00    +0.116 C 
ATOM     11  C   UNL     1     -35.626  22.069   3.656  0.00  0.00    +0.048 C 
ATOM     12  C   UNL     1     -37.879  24.336   3.191  0.00  0.00    +0.340 C 
ENDROOT
BRANCH   4  14
ATOM     13  O   UNL     1     -32.457  25.739   3.016  0.00  0.00    -0.273 OA
ATOM     14  N   UNL     1     -34.769  25.774   3.202  0.00  0.00    -0.301 N 
ATOM     15  C   UNL     1     -33.504  26.331   3.273  0.00  0.00    +0.240 C 
ATOM     16  H   UNL     1     -35.546  26.334   3.429  0.00  0.00    +0.150 HD
BRANCH  15  17
ATOM     17  C   UNL     1     -33.552  27.802   3.664  0.00  0.00    +0.149 C 
ATOM     18  C   UNL     1     -34.057  28.655   2.511  0.00  0.00    +0.031 C 
BRANCH  17  20
ATOM     19  O   UNL     1     -32.581  28.068   6.359  0.00  0.00    -0.277 OA
ATOM     20  N   UNL     1     -32.229  28.198   4.069  0.00  0.00    -0.300 N 
ATOM     21  C   UNL     1     -31.846  28.300   5.401  0.00  0.00    +0.202 C 
ATOM     22  H   UNL     1     -31.565  28.405   3.371  0.00  0.00    +0.150 HD
BRANCH  21  23
ATOM     23  C   UNL     1     -30.381  28.690   5.553  0.00  0.00    +0.013 C 
ATOM     24  C   UNL     1     -29.583  28.298   4.319  0.00  0.00    -0.015 C 
BRANCH  23  25
ATOM     25  N   UNL     1     -29.870  28.045   6.734  0.00  0.00    +0.387 N 
ATOM     26  H   UNL     1     -29.610  27.084   6.511  0.00  0.00    -0.089 HD
ATOM     27  H   UNL     1     -30.587  28.044   7.458  0.00  0.00    -0.089 HD
ATOM     28  H   UNL     1     -29.050  28.551   7.068  0.00  0.00    -0.089 HD
ENDBRANCH  23  25
ENDBRANCH  21  23
ENDBRANCH  17  20
ENDBRANCH  15  17
ENDBRANCH   4  14
BRANCH   5  31
ATOM     29 CL   UNL     1     -35.135  22.392   6.337  0.00  0.00    -0.093 Cl
ATOM     30 CL   UNL     1     -35.510  25.268   6.067  0.00  0.00    -0.093 Cl
ATOM     31  C   UNL     1     -34.896  23.800   5.287  0.00  0.00    +0.196 C 
ENDBRANCH   5  31
BRANCH   8  32
ATOM     32  O   UNL     1     -35.680  25.852  -1.880  0.00  0.00    -0.384 OA
ATOM     33  H   UNL     1     -36.053  26.748  -1.902  0.00  0.00    +0.210 HD
ENDBRANCH   8  32
BRANCH  10  34
ATOM     34  O   UNL     1     -39.335  25.821   1.271  0.00  0.00    -0.510 OA
ATOM     35  H   UNL     1     -40.056  25.241   1.126  0.00  0.00    +0.292 HD
ENDBRANCH  10  34
TORSDOF 8
ENDMDL
