MODEL 1
REMARK VINA RESULT:      -7.0      0.000      0.000
REMARK  Name = 5311005
REMARK  4 active torsions:
REMARK  status: ('A' for Active; 'I' for Inactive)
REMARK    1  A    between atoms: C_6  and  O_18
REMARK    2  A    between atoms: C_7  and  C_22
REMARK    3  A    between atoms: C_12  and  O_20
REMARK    4  A    between atoms: C_23  and  C_26
REMARK                            x       y       z     vdW  Elec       q    Type
REMARK                         _______ _______ _______ _____ _____    ______ ____
ROOT
ATOM      1  O   UNL     1     -39.022  24.722   3.725  0.00  0.00    -0.270 OA
ATOM      2  N   UNL     1     -36.768  24.255   3.680  0.00  0.00    -0.251 N 
ATOM      3  N   UNL     1     -36.701  21.308   2.803  0.00  0.00    -0.308 N 
ATOM      4  C   UNL     1     -35.593  23.473   3.264  0.00  0.00    +0.131 C 
ATOM      5  C   UNL     1     -34.404  24.142   3.992  0.00  0.00    +0.052 C 
ATOM      6  C   UNL     1     -35.771  22.010   3.657  0.00  0.00    +0.205 C 
ATOM      7  C   UNL     1     -35.069  25.212   4.802  0.00  0.00    -0.005 C 
ATOM      8  C   UNL     1     -36.386  25.222   4.580  0.00  0.00    +0.064 C 
ATOM      9  C   UNL     1     -38.076  24.073   3.276  0.00  0.00    +0.254 C 
ATOM     10  C   UNL     1     -37.763  21.808   2.077  0.00  0.00    +0.085 C 
ATOM     11  C   UNL     1     -38.374  23.068   2.217  0.00  0.00    +0.070 C 
ATOM     12  C   UNL     1     -38.256  20.966   1.050  0.00  0.00    +0.143 C 
ATOM     13  C   UNL     1     -39.424  23.441   1.349  0.00  0.00    +0.006 C 
ATOM     14  C   UNL     1     -39.295  21.343   0.198  0.00  0.00    +0.013 C 
ATOM     15  C   UNL     1     -39.879  22.589   0.347  0.00  0.00    -0.001 C 
ATOM     16  C   UNL     1     -39.785  20.427  -0.874  0.00  0.00    +0.034 C 
ATOM     17  H   UNL     1     -36.557  20.337   2.728  0.00  0.00    +0.149 HD
ENDROOT
BRANCH   6  18
ATOM     18  O   UNL     1     -36.127  21.867   5.029  0.00  0.00    -0.366 OA
ATOM     19  H   UNL     1     -37.091  21.787   5.106  0.00  0.00    +0.212 HD
ENDBRANCH   6  18
BRANCH  12  20
ATOM     20  O   UNL     1     -37.692  19.728   0.871  0.00  0.00    -0.505 OA
ATOM     21  H   UNL     1     -36.861  19.531   1.258  0.00  0.00    +0.292 HD
ENDBRANCH  12  20
BRANCH   7  22
ATOM     22  C   UNL     1     -34.342  26.078   5.673  0.00  0.00    +0.002 C 
ATOM     23  C   UNL     1     -33.348  26.881   5.255  0.00  0.00    +0.057 C 
BRANCH  23  26
ATOM     24  O   UNL     1     -32.210  28.872   5.935  0.00  0.00    -0.270 OA
ATOM     25  N   UNL     1     -32.509  27.175   7.462  0.00  0.00    -0.325 N 
ATOM     26  C   UNL     1     -32.635  27.756   6.221  0.00  0.00    +0.243 C 
ATOM     27  H   UNL     1     -32.054  27.659   8.188  0.00  0.00    +0.145 HD
ATOM     28  H   UNL     1     -32.875  26.276   7.623  0.00  0.00    +0.145 HD
ENDBRANCH  23  26
ENDBRANCH   7  22
TORSDOF 4
ENDMDL
MODEL 2
REMARK VINA RESULT:      -6.7      2.428      2.997
REMARK  Name = 5311005
REMARK  4 active torsions:
REMARK  status: ('A' for Active; 'I' for Inactive)
REMARK    1  A    between atoms: C_6  and  O_18
REMARK    2  A    between atoms: C_7  and  C_22
REMARK    3  A    between atoms: C_12  and  O_20
REMARK    4  A    between atoms: C_23  and  C_26
REMARK                            x       y       z     vdW  Elec       q    Type
REMARK                         _______ _______ _______ _____ _____    ______ ____
ROOT
ATOM      1  O   UNL     1     -34.381  24.706   0.947  0.00  0.00    -0.270 OA
ATOM      2  N   UNL     1     -34.400  24.363   3.224  0.00  0.00    -0.251 N 
ATOM      3  N   UNL     1     -36.436  22.082   3.553  0.00  0.00    -0.308 N 
ATOM      4  C   UNL     1     -34.665  23.570   4.434  0.00  0.00    +0.131 C 
ATOM      5  C   UNL     1     -34.284  24.509   5.603  0.00  0.00    +0.052 C 
ATOM      6  C   UNL     1     -36.131  23.152   4.475  0.00  0.00    +0.205 C 
ATOM      7  C   UNL     1     -33.896  25.774   4.902  0.00  0.00    -0.005 C 
ATOM      8  C   UNL     1     -33.981  25.625   3.578  0.00  0.00    +0.064 C 
ATOM      9  C   UNL     1     -34.553  23.959   1.912  0.00  0.00    +0.254 C 
ATOM     10  C   UNL     1     -35.810  21.750   2.368  0.00  0.00    +0.085 C 
ATOM     11  C   UNL     1     -34.911  22.541   1.628  0.00  0.00    +0.070 C 
ATOM     12  C   UNL     1     -36.076  20.449   1.875  0.00  0.00    +0.143 C 
ATOM     13  C   UNL     1     -34.317  22.021   0.456  0.00  0.00    +0.006 C 
ATOM     14  C   UNL     1     -35.485  19.946   0.716  0.00  0.00    +0.013 C 
ATOM     15  C   UNL     1     -34.599  20.735   0.005  0.00  0.00    -0.001 C 
ATOM     16  C   UNL     1     -35.791  18.567   0.231  0.00  0.00    +0.034 C 
ATOM     17  H   UNL     1     -37.197  21.510   3.804  0.00  0.00    +0.149 HD
ENDROOT
BRANCH   6  18
ATOM     18  O   UNL     1     -37.007  24.258   4.283  0.00  0.00    -0.366 OA
ATOM     19  H   UNL     1     -37.750  24.195   4.904  0.00  0.00    +0.212 HD
ENDBRANCH   6  18
BRANCH  12  20
ATOM     20  O   UNL     1     -36.944  19.638   2.563  0.00  0.00    -0.505 OA
ATOM     21  H   UNL     1     -37.811  19.937   2.754  0.00  0.00    +0.292 HD
ENDBRANCH  12  20
BRANCH   7  22
ATOM     22  C   UNL     1     -33.493  26.948   5.607  0.00  0.00    +0.002 C 
ATOM     23  C   UNL     1     -32.487  27.743   5.203  0.00  0.00    +0.057 C 
BRANCH  23  26
ATOM     24  O   UNL     1     -32.454  30.088   5.671  0.00  0.00    -0.270 OA
ATOM     25  N   UNL     1     -31.381  28.645   7.107  0.00  0.00    -0.325 N 
ATOM     26  C   UNL     1     -32.124  28.950   5.989  0.00  0.00    +0.243 C 
ATOM     27  H   UNL     1     -31.080  29.363   7.709  0.00  0.00    +0.145 HD
ATOM     28  H   UNL     1     -31.152  27.708   7.304  0.00  0.00    +0.145 HD
ENDBRANCH  23  26
ENDBRANCH   7  22
TORSDOF 4
ENDMDL
MODEL 3
REMARK VINA RESULT:      -6.5      3.984      8.999
REMARK  Name = 5311005
REMARK  4 active torsions:
REMARK  status: ('A' for Active; 'I' for Inactive)
REMARK    1  A    between atoms: C_6  and  O_18
REMARK    2  A    between atoms: C_7  and  C_22
REMARK    3  A    between atoms: C_12  and  O_20
REMARK    4  A    between atoms: C_23  and  C_26
REMARK                            x       y       z     vdW  Elec       q    Type
REMARK                         _______ _______ _______ _____ _____    ______ ____
ROOT
ATOM      1  O   UNL     1     -32.494  28.098   6.752  0.00  0.00    -0.270 OA
ATOM      2  N   UNL     1     -33.071  27.221   4.703  0.00  0.00    -0.251 N 
ATOM      3  N   UNL     1     -33.300  29.724   2.930  0.00  0.00    -0.308 N 
ATOM      4  C   UNL     1     -33.198  27.270   3.238  0.00  0.00    +0.131 C 
ATOM      5  C   UNL     1     -33.875  25.930   2.863  0.00  0.00    +0.052 C 
ATOM      6  C   UNL     1     -34.028  28.481   2.824  0.00  0.00    +0.205 C 
ATOM      7  C   UNL     1     -34.112  25.293   4.197  0.00  0.00    -0.005 C 
ATOM      8  C   UNL     1     -33.639  26.062   5.179  0.00  0.00    +0.064 C 
ATOM      9  C   UNL     1     -32.498  28.174   5.522  0.00  0.00    +0.254 C 
ATOM     10  C   UNL     1     -32.247  30.047   3.762  0.00  0.00    +0.085 C 
ATOM     11  C   UNL     1     -31.816  29.346   4.903  0.00  0.00    +0.070 C 
ATOM     12  C   UNL     1     -31.497  31.190   3.389  0.00  0.00    +0.143 C 
ATOM     13  C   UNL     1     -30.679  29.790   5.614  0.00  0.00    +0.006 C 
ATOM     14  C   UNL     1     -30.376  31.621   4.099  0.00  0.00    +0.013 C 
ATOM     15  C   UNL     1     -29.963  30.915   5.215  0.00  0.00    -0.001 C 
ATOM     16  C   UNL     1     -29.611  32.830   3.672  0.00  0.00    +0.034 C 
ATOM     17  H   UNL     1     -33.596  30.441   2.325  0.00  0.00    +0.149 HD
ENDROOT
BRANCH   6  18
ATOM     18  O   UNL     1     -35.262  28.547   3.532  0.00  0.00    -0.366 OA
ATOM     19  H   UNL     1     -35.746  29.345   3.265  0.00  0.00    +0.212 HD
ENDBRANCH   6  18
BRANCH  12  20
ATOM     20  O   UNL     1     -31.875  31.906   2.282  0.00  0.00    -0.505 OA
ATOM     21  H   UNL     1     -32.740  32.265   2.229  0.00  0.00    +0.292 HD
ENDBRANCH  12  20
BRANCH   7  22
ATOM     22  C   UNL     1     -34.758  24.027   4.337  0.00  0.00    +0.002 C 
ATOM     23  C   UNL     1     -34.571  23.216   5.393  0.00  0.00    +0.057 C 
BRANCH  23  26
ATOM     24  O   UNL     1     -35.085  20.991   4.681  0.00  0.00    -0.270 OA
ATOM     25  N   UNL     1     -36.167  21.857   6.519  0.00  0.00    -0.325 N 
ATOM     26  C   UNL     1     -35.279  21.911   5.470  0.00  0.00    +0.243 C 
ATOM     27  H   UNL     1     -36.696  21.042   6.674  0.00  0.00    +0.145 HD
ATOM     28  H   UNL     1     -36.272  22.633   7.115  0.00  0.00    +0.145 HD
ENDBRANCH  23  26
ENDBRANCH   7  22
TORSDOF 4
ENDMDL
MODEL 4
REMARK VINA RESULT:      -6.3      1.483      1.634
REMARK  Name = 5311005
REMARK  4 active torsions:
REMARK  status: ('A' for Active; 'I' for Inactive)
REMARK    1  A    between atoms: C_6  and  O_18
REMARK    2  A    between atoms: C_7  and  C_22
REMARK    3  A    between atoms: C_12  and  O_20
REMARK    4  A    between atoms: C_23  and  C_26
REMARK                            x       y       z     vdW  Elec       q    Type
REMARK                         _______ _______ _______ _____ _____    ______ ____
ROOT
ATOM      1  O   UNL     1     -38.043  26.686   2.329  0.00  0.00    -0.270 OA
ATOM      2  N   UNL     1     -36.098  25.646   2.988  0.00  0.00    -0.251 N 
ATOM      3  N   UNL     1     -37.027  22.774   3.579  0.00  0.00    -0.308 N 
ATOM      4  C   UNL     1     -35.253  24.467   3.236  0.00  0.00    +0.131 C 
ATOM      5  C   UNL     1     -33.943  25.045   3.819  0.00  0.00    +0.052 C 
ATOM      6  C   UNL     1     -35.954  23.515   4.200  0.00  0.00    +0.205 C 
ATOM      7  C   UNL     1     -34.229  26.513   3.892  0.00  0.00    -0.005 C 
ATOM      8  C   UNL     1     -35.445  26.780   3.411  0.00  0.00    +0.064 C 
ATOM      9  C   UNL     1     -37.365  25.663   2.438  0.00  0.00    +0.254 C 
ATOM     10  C   UNL     1     -37.809  23.121   2.495  0.00  0.00    +0.085 C 
ATOM     11  C   UNL     1     -37.944  24.395   1.914  0.00  0.00    +0.070 C 
ATOM     12  C   UNL     1     -38.515  22.056   1.882  0.00  0.00    +0.143 C 
ATOM     13  C   UNL     1     -38.752  24.563   0.767  0.00  0.00    +0.006 C 
ATOM     14  C   UNL     1     -39.312  22.233   0.750  0.00  0.00    +0.013 C 
ATOM     15  C   UNL     1     -39.428  23.492   0.188  0.00  0.00    -0.001 C 
ATOM     16  C   UNL     1     -40.039  21.084   0.132  0.00  0.00    +0.034 C 
ATOM     17  H   UNL     1     -37.230  21.901   3.985  0.00  0.00    +0.149 HD
ENDROOT
BRANCH   6  18
ATOM     18  O   UNL     1     -36.404  24.183   5.375  0.00  0.00    -0.366 OA
ATOM     19  H   UNL     1     -35.744  24.840   5.646  0.00  0.00    +0.212 HD
ENDBRANCH   6  18
BRANCH  12  20
ATOM     20  O   UNL     1     -38.414  20.794   2.410  0.00  0.00    -0.505 OA
ATOM     21  H   UNL     1     -37.943  20.657   3.209  0.00  0.00    +0.292 HD
ENDBRANCH  12  20
BRANCH   7  22
ATOM     22  C   UNL     1     -33.288  27.453   4.410  0.00  0.00    +0.002 C 
ATOM     23  C   UNL     1     -32.889  27.468   5.693  0.00  0.00    +0.057 C 
BRANCH  23  26
ATOM     24  O   UNL     1     -32.106  29.688   6.115  0.00  0.00    -0.270 OA
ATOM     25  N   UNL     1     -30.752  27.904   6.645  0.00  0.00    -0.325 N 
ATOM     26  C   UNL     1     -31.905  28.478   6.160  0.00  0.00    +0.243 C 
ATOM     27  H   UNL     1     -30.024  28.472   6.984  0.00  0.00    +0.145 HD
ATOM     28  H   UNL     1     -30.657  26.924   6.652  0.00  0.00    +0.145 HD
ENDBRANCH  23  26
ENDBRANCH   7  22
TORSDOF 4
ENDMDL
MODEL 5
REMARK VINA RESULT:      -6.3      3.996      8.065
REMARK  Name = 5311005
REMARK  4 active torsions:
REMARK  status: ('A' for Active; 'I' for Inactive)
REMARK    1  A    between atoms: C_6  and  O_18
REMARK    2  A    between atoms: C_7  and  C_22
REMARK    3  A    between atoms: C_12  and  O_20
REMARK    4  A    between atoms: C_23  and  C_26
REMARK                            x       y       z     vdW  Elec       q    Type
REMARK                         _______ _______ _______ _____ _____    ______ ____
ROOT
ATOM      1  O   UNL     1     -35.833  27.895   1.894  0.00  0.00    -0.270 OA
ATOM      2  N   UNL     1     -34.639  27.356   3.787  0.00  0.00    -0.251 N 
ATOM      3  N   UNL     1     -32.142  29.135   3.548  0.00  0.00    -0.308 N 
ATOM      4  C   UNL     1     -33.619  27.607   4.817  0.00  0.00    +0.131 C 
ATOM      5  C   UNL     1     -33.647  26.342   5.706  0.00  0.00    +0.052 C 
ATOM      6  C   UNL     1     -32.260  27.833   4.164  0.00  0.00    +0.205 C 
ATOM      7  C   UNL     1     -34.660  25.477   5.023  0.00  0.00    -0.005 C 
ATOM      8  C   UNL     1     -35.176  26.101   3.963  0.00  0.00    +0.064 C 
ATOM      9  C   UNL     1     -35.020  28.205   2.767  0.00  0.00    +0.254 C 
ATOM     10  C   UNL     1     -33.133  29.946   3.033  0.00  0.00    +0.085 C 
ATOM     11  C   UNL     1     -34.457  29.583   2.723  0.00  0.00    +0.070 C 
ATOM     12  C   UNL     1     -32.778  31.304   2.841  0.00  0.00    +0.143 C 
ATOM     13  C   UNL     1     -35.361  30.560   2.250  0.00  0.00    +0.006 C 
ATOM     14  C   UNL     1     -33.679  32.261   2.372  0.00  0.00    +0.013 C 
ATOM     15  C   UNL     1     -34.978  31.887   2.079  0.00  0.00    -0.001 C 
ATOM     16  C   UNL     1     -33.265  33.684   2.186  0.00  0.00    +0.034 C 
ATOM     17  H   UNL     1     -31.227  29.493   3.486  0.00  0.00    +0.149 HD
ENDROOT
BRANCH   6  18
ATOM     18  O   UNL     1     -31.933  26.798   3.242  0.00  0.00    -0.366 OA
ATOM     19  H   UNL     1     -32.023  25.936   3.678  0.00  0.00    +0.212 HD
ENDBRANCH   6  18
BRANCH  12  20
ATOM     20  O   UNL     1     -31.499  31.709   3.132  0.00  0.00    -0.505 OA
ATOM     21  H   UNL     1     -31.033  32.257   2.531  0.00  0.00    +0.292 HD
ENDBRANCH  12  20
BRANCH   7  22
ATOM     22  C   UNL     1     -34.993  24.169   5.492  0.00  0.00    +0.002 C 
ATOM     23  C   UNL     1     -35.008  23.083   4.701  0.00  0.00    +0.057 C 
BRANCH  23  26
ATOM     24  O   UNL     1     -35.096  20.693   4.705  0.00  0.00    -0.270 OA
ATOM     25  N   UNL     1     -36.027  21.851   6.463  0.00  0.00    -0.325 N 
ATOM     26  C   UNL     1     -35.365  21.754   5.260  0.00  0.00    +0.243 C 
ATOM     27  H   UNL     1     -36.315  21.036   6.933  0.00  0.00    +0.145 HD
ATOM     28  H   UNL     1     -36.210  22.735   6.853  0.00  0.00    +0.145 HD
ENDBRANCH  23  26
ENDBRANCH   7  22
TORSDOF 4
ENDMDL
MODEL 6
REMARK VINA RESULT:      -6.3      2.243      8.025
REMARK  Name = 5311005
REMARK  4 active torsions:
REMARK  status: ('A' for Active; 'I' for Inactive)
REMARK    1  A    between atoms: C_6  and  O_18
REMARK    2  A    between atoms: C_7  and  C_22
REMARK    3  A    between atoms: C_12  and  O_20
REMARK    4  A    between atoms: C_23  and  C_26
REMARK                            x       y       z     vdW  Elec       q    Type
REMARK                         _______ _______ _______ _____ _____    ______ ____
ROOT
ATOM      1  O   UNL     1     -35.866  25.694   6.049  0.00  0.00    -0.270 OA
ATOM      2  N   UNL     1     -35.213  24.868   4.001  0.00  0.00    -0.251 N 
ATOM      3  N   UNL     1     -33.590  27.195   2.814  0.00  0.00    -0.308 N 
ATOM      4  C   UNL     1     -34.361  24.842   2.802  0.00  0.00    +0.131 C 
ATOM      5  C   UNL     1     -34.968  23.727   1.919  0.00  0.00    +0.052 C 
ATOM      6  C   UNL     1     -34.380  26.205   2.117  0.00  0.00    +0.205 C 
ATOM      7  C   UNL     1     -36.157  23.283   2.714  0.00  0.00    -0.005 C 
ATOM      8  C   UNL     1     -36.235  23.957   3.863  0.00  0.00    +0.064 C 
ATOM      9  C   UNL     1     -35.067  25.677   5.111  0.00  0.00    +0.254 C 
ATOM     10  C   UNL     1     -33.270  27.265   4.155  0.00  0.00    +0.085 C 
ATOM     11  C   UNL     1     -33.869  26.557   5.213  0.00  0.00    +0.070 C 
ATOM     12  C   UNL     1     -32.187  28.117   4.484  0.00  0.00    +0.143 C 
ATOM     13  C   UNL     1     -33.379  26.711   6.529  0.00  0.00    +0.006 C 
ATOM     14  C   UNL     1     -31.711  28.263   5.788  0.00  0.00    +0.013 C 
ATOM     15  C   UNL     1     -32.308  27.553   6.814  0.00  0.00    -0.001 C 
ATOM     16  C   UNL     1     -30.565  29.170   6.093  0.00  0.00    +0.034 C 
ATOM     17  H   UNL     1     -33.230  27.920   2.254  0.00  0.00    +0.149 HD
ENDROOT
BRANCH   6  18
ATOM     18  O   UNL     1     -35.707  26.672   1.896  0.00  0.00    -0.366 OA
ATOM     19  H   UNL     1     -36.242  26.516   2.690  0.00  0.00    +0.212 HD
ENDBRANCH   6  18
BRANCH  12  20
ATOM     20  O   UNL     1     -31.567  28.828   3.487  0.00  0.00    -0.505 OA
ATOM     21  H   UNL     1     -31.989  28.934   2.656  0.00  0.00    +0.292 HD
ENDBRANCH  12  20
BRANCH   7  22
ATOM     22  C   UNL     1     -37.050  22.267   2.256  0.00  0.00    +0.002 C 
ATOM     23  C   UNL     1     -38.383  22.425   2.203  0.00  0.00    +0.057 C 
BRANCH  23  26
ATOM     24  O   UNL     1     -40.419  21.177   2.059  0.00  0.00    -0.270 OA
ATOM     25  N   UNL     1     -38.594  20.488   0.837  0.00  0.00    -0.325 N 
ATOM     26  C   UNL     1     -39.250  21.321   1.714  0.00  0.00    +0.243 C 
ATOM     27  H   UNL     1     -39.065  19.718   0.444  0.00  0.00    +0.145 HD
ATOM     28  H   UNL     1     -37.654  20.662   0.603  0.00  0.00    +0.145 HD
ENDBRANCH  23  26
ENDBRANCH   7  22
TORSDOF 4
ENDMDL
MODEL 7
REMARK VINA RESULT:      -6.1      2.289      8.073
REMARK  Name = 5311005
REMARK  4 active torsions:
REMARK  status: ('A' for Active; 'I' for Inactive)
REMARK    1  A    between atoms: C_6  and  O_18
REMARK    2  A    between atoms: C_7  and  C_22
REMARK    3  A    between atoms: C_12  and  O_20
REMARK    4  A    between atoms: C_23  and  C_26
REMARK                            x       y       z     vdW  Elec       q    Type
REMARK                         _______ _______ _______ _____ _____    ______ ____
ROOT
ATOM      1  O   UNL     1     -33.288  26.264   1.897  0.00  0.00    -0.270 OA
ATOM      2  N   UNL     1     -35.119  25.770   3.204  0.00  0.00    -0.251 N 
ATOM      3  N   UNL     1     -33.962  25.844   6.053  0.00  0.00    -0.308 N 
ATOM      4  C   UNL     1     -35.865  25.749   4.472  0.00  0.00    +0.131 C 
ATOM      5  C   UNL     1     -37.179  25.006   4.136  0.00  0.00    +0.052 C 
ATOM      6  C   UNL     1     -35.049  25.038   5.547  0.00  0.00    +0.205 C 
ATOM      7  C   UNL     1     -36.991  24.631   2.698  0.00  0.00    -0.005 C 
ATOM      8  C   UNL     1     -35.824  25.089   2.239  0.00  0.00    +0.064 C 
ATOM      9  C   UNL     1     -33.887  26.350   2.971  0.00  0.00    +0.254 C 
ATOM     10  C   UNL     1     -33.265  26.857   5.425  0.00  0.00    +0.085 C 
ATOM     11  C   UNL     1     -33.251  27.156   4.050  0.00  0.00    +0.070 C 
ATOM     12  C   UNL     1     -32.522  27.711   6.276  0.00  0.00    +0.143 C 
ATOM     13  C   UNL     1     -32.519  28.270   3.581  0.00  0.00    +0.006 C 
ATOM     14  C   UNL     1     -31.801  28.808   5.802  0.00  0.00    +0.013 C 
ATOM     15  C   UNL     1     -31.803  29.090   4.448  0.00  0.00    -0.001 C 
ATOM     16  C   UNL     1     -31.031  29.685   6.733  0.00  0.00    +0.034 C 
ATOM     17  H   UNL     1     -33.678  25.642   6.973  0.00  0.00    +0.149 HD
ENDROOT
BRANCH   6  18
ATOM     18  O   UNL     1     -34.584  23.766   5.109  0.00  0.00    -0.366 OA
ATOM     19  H   UNL     1     -35.129  23.067   5.504  0.00  0.00    +0.212 HD
ENDBRANCH   6  18
BRANCH  12  20
ATOM     20  O   UNL     1     -32.507  27.463   7.626  0.00  0.00    -0.505 OA
ATOM     21  H   UNL     1     -33.291  27.186   8.060  0.00  0.00    +0.292 HD
ENDBRANCH  12  20
BRANCH   7  22
ATOM     22  C   UNL     1     -37.967  23.888   1.966  0.00  0.00    +0.002 C 
ATOM     23  C   UNL     1     -39.086  23.392   2.520  0.00  0.00    +0.057 C 
BRANCH  23  26
ATOM     24  O   UNL     1     -40.836  23.156   0.907  0.00  0.00    -0.270 OA
ATOM     25  N   UNL     1     -39.977  21.272   1.912  0.00  0.00    -0.325 N 
ATOM     26  C   UNL     1     -40.056  22.628   1.694  0.00  0.00    +0.243 C 
ATOM     27  H   UNL     1     -40.571  20.659   1.421  0.00  0.00    +0.145 HD
ATOM     28  H   UNL     1     -39.327  20.915   2.558  0.00  0.00    +0.145 HD
ENDBRANCH  23  26
ENDBRANCH   7  22
TORSDOF 4
ENDMDL
MODEL 8
REMARK VINA RESULT:      -6.1      4.125      6.087
REMARK  Name = 5311005
REMARK  4 active torsions:
REMARK  status: ('A' for Active; 'I' for Inactive)
REMARK    1  A    between atoms: C_6  and  O_18
REMARK    2  A    between atoms: C_7  and  C_22
REMARK    3  A    between atoms: C_12  and  O_20
REMARK    4  A    between atoms: C_23  and  C_26
REMARK                            x       y       z     vdW  Elec       q    Type
REMARK                         _______ _______ _______ _____ _____    ______ ____
ROOT
ATOM      1  O   UNL     1     -34.849  22.764  -0.829  0.00  0.00    -0.270 OA
ATOM      2  N   UNL     1     -35.459  22.472   1.372  0.00  0.00    -0.251 N 
ATOM      3  N   UNL     1     -34.629  19.564   1.929  0.00  0.00    -0.308 N 
ATOM      4  C   UNL     1     -35.399  21.794   2.677  0.00  0.00    +0.131 C 
ATOM      5  C   UNL     1     -36.443  22.533   3.545  0.00  0.00    +0.052 C 
ATOM      6  C   UNL     1     -35.718  20.312   2.512  0.00  0.00    +0.205 C 
ATOM      7  C   UNL     1     -37.029  23.526   2.590  0.00  0.00    -0.005 C 
ATOM      8  C   UNL     1     -36.435  23.441   1.397  0.00  0.00    +0.064 C 
ATOM      9  C   UNL     1     -34.692  22.201   0.256  0.00  0.00    +0.254 C 
ATOM     10  C   UNL     1     -33.627  20.000   1.085  0.00  0.00    +0.085 C 
ATOM     11  C   UNL     1     -33.588  21.205   0.360  0.00  0.00    +0.070 C 
ATOM     12  C   UNL     1     -32.498  19.151   0.980  0.00  0.00    +0.143 C 
ATOM     13  C   UNL     1     -32.454  21.520  -0.422  0.00  0.00    +0.006 C 
ATOM     14  C   UNL     1     -31.383  19.470   0.204  0.00  0.00    +0.013 C 
ATOM     15  C   UNL     1     -31.360  20.662  -0.497  0.00  0.00    -0.001 C 
ATOM     16  C   UNL     1     -30.211  18.548   0.122  0.00  0.00    +0.034 C 
ATOM     17  H   UNL     1     -34.595  18.609   2.167  0.00  0.00    +0.149 HD
ENDROOT
BRANCH   6  18
ATOM     18  O   UNL     1     -36.927  20.105   1.787  0.00  0.00    -0.366 OA
ATOM     19  H   UNL     1     -37.668  20.032   2.409  0.00  0.00    +0.212 HD
ENDBRANCH   6  18
BRANCH  12  20
ATOM     20  O   UNL     1     -32.486  17.965   1.671  0.00  0.00    -0.505 OA
ATOM     21  H   UNL     1     -33.068  17.839   2.395  0.00  0.00    +0.292 HD
ENDBRANCH  12  20
BRANCH   7  22
ATOM     22  C   UNL     1     -38.077  24.422   2.961  0.00  0.00    +0.002 C 
ATOM     23  C   UNL     1     -38.835  25.082   2.069  0.00  0.00    +0.057 C 
BRANCH  23  26
ATOM     24  O   UNL     1     -40.318  26.948   1.868  0.00  0.00    -0.270 OA
ATOM     25  N   UNL     1     -40.386  25.663   3.777  0.00  0.00    -0.325 N 
ATOM     26  C   UNL     1     -39.909  25.999   2.531  0.00  0.00    +0.243 C 
ATOM     27  H   UNL     1     -41.101  26.198   4.191  0.00  0.00    +0.145 HD
ATOM     28  H   UNL     1     -40.012  24.888   4.254  0.00  0.00    +0.145 HD
ENDBRANCH  23  26
ENDBRANCH   7  22
TORSDOF 4
ENDMDL
MODEL 9
REMARK VINA RESULT:      -6.1      2.887      8.243
REMARK  Name = 5311005
REMARK  4 active torsions:
REMARK  status: ('A' for Active; 'I' for Inactive)
REMARK    1  A    between atoms: C_6  and  O_18
REMARK    2  A    between atoms: C_7  and  C_22
REMARK    3  A    between atoms: C_12  and  O_20
REMARK    4  A    between atoms: C_23  and  C_26
REMARK                            x       y       z     vdW  Elec       q    Type
REMARK                         _______ _______ _______ _____ _____    ______ ____
ROOT
ATOM      1  O   UNL     1     -35.296  20.243   3.353  0.00  0.00    -0.270 OA
ATOM      2  N   UNL     1     -36.667  20.813   1.593  0.00  0.00    -0.251 N 
ATOM      3  N   UNL     1     -38.467  22.990   2.809  0.00  0.00    -0.308 N 
ATOM      4  C   UNL     1     -37.593  21.707   0.881  0.00  0.00    +0.131 C 
ATOM      5  C   UNL     1     -37.996  20.918  -0.386  0.00  0.00    +0.052 C 
ATOM      6  C   UNL     1     -38.787  22.040   1.769  0.00  0.00    +0.205 C 
ATOM      7  C   UNL     1     -37.283  19.614  -0.207  0.00  0.00    -0.005 C 
ATOM      8  C   UNL     1     -36.558  19.622   0.914  0.00  0.00    +0.064 C 
ATOM      9  C   UNL     1     -36.001  21.072   2.775  0.00  0.00    +0.254 C 
ATOM     10  C   UNL     1     -37.253  23.236   3.418  0.00  0.00    +0.085 C 
ATOM     11  C   UNL     1     -36.100  22.430   3.380  0.00  0.00    +0.070 C 
ATOM     12  C   UNL     1     -37.156  24.463   4.121  0.00  0.00    +0.143 C 
ATOM     13  C   UNL     1     -34.918  22.862   4.020  0.00  0.00    +0.006 C 
ATOM     14  C   UNL     1     -35.983  24.880   4.752  0.00  0.00    +0.013 C 
ATOM     15  C   UNL     1     -34.858  24.077   4.698  0.00  0.00    -0.001 C 
ATOM     16  C   UNL     1     -35.921  26.182   5.481  0.00  0.00    +0.034 C 
ATOM     17  H   UNL     1     -39.220  23.537   3.129  0.00  0.00    +0.149 HD
ENDROOT
BRANCH   6  18
ATOM     18  O   UNL     1     -39.389  20.868   2.312  0.00  0.00    -0.366 OA
ATOM     19  H   UNL     1     -40.323  21.045   2.506  0.00  0.00    +0.212 HD
ENDBRANCH   6  18
BRANCH  12  20
ATOM     20  O   UNL     1     -38.252  25.286   4.186  0.00  0.00    -0.505 OA
ATOM     21  H   UNL     1     -38.940  25.103   4.796  0.00  0.00    +0.292 HD
ENDBRANCH  12  20
BRANCH   7  22
ATOM     22  C   UNL     1     -37.395  18.543  -1.145  0.00  0.00    +0.002 C 
ATOM     23  C   UNL     1     -38.041  17.394  -0.881  0.00  0.00    +0.057 C 
BRANCH  23  26
ATOM     24  O   UNL     1     -37.395  16.288  -2.901  0.00  0.00    -0.270 OA
ATOM     25  N   UNL     1     -39.081  15.385  -1.619  0.00  0.00    -0.325 N 
ATOM     26  C   UNL     1     -38.117  16.324  -1.909  0.00  0.00    +0.243 C 
ATOM     27  H   UNL     1     -39.225  14.625  -2.227  0.00  0.00    +0.145 HD
ATOM     28  H   UNL     1     -39.624  15.475  -0.804  0.00  0.00    +0.145 HD
ENDBRANCH  23  26
ENDBRANCH   7  22
TORSDOF 4
ENDMDL
