MODEL 1
REMARK VINA RESULT:      -5.9      0.000      0.000
REMARK  Name = 195334
REMARK  5 active torsions:
REMARK  status: ('A' for Active; 'I' for Inactive)
REMARK    1  A    between atoms: C_1  and  C_3
REMARK    2  A    between atoms: C_1  and  C_16
REMARK    3  A    between atoms: C_9  and  O_12
REMARK    4  A    between atoms: C_17  and  C_22
REMARK    5  A    between atoms: C_22  and  O_23
REMARK                            x       y       z     vdW  Elec       q    Type
REMARK                         _______ _______ _______ _____ _____    ______ ____
ROOT
ATOM      1  C   UNK     1     -35.473  25.792   5.641  0.00  0.00    +0.017 C 
ENDROOT
BRANCH   1   3
ATOM      2  N   UNK     1     -36.537  22.633   4.153  0.00  0.00    -0.312 N 
ATOM      3  C   UNK     1     -36.091  24.654   4.871  0.00  0.00    -0.008 C 
ATOM      4  C   UNK     1     -37.091  24.779   3.891  0.00  0.00    +0.014 C 
ATOM      5  C   UNK     1     -37.360  23.482   3.448  0.00  0.00    +0.048 C 
ATOM      6  C   UNK     1     -35.759  23.346   5.025  0.00  0.00    +0.058 C 
ATOM      7  C   UNK     1     -37.806  25.852   3.324  0.00  0.00    +0.038 C 
ATOM      8  C   UNK     1     -38.312  23.205   2.460  0.00  0.00    +0.018 C 
ATOM      9  C   UNK     1     -38.761  25.589   2.336  0.00  0.00    +0.134 C 
ATOM     10  C   UNK     1     -39.009  24.286   1.911  0.00  0.00    +0.038 C 
ATOM     11  H   UNK     1     -36.512  21.655   4.045  0.00  0.00    +0.152 HD
BRANCH   9  12
ATOM     12  O   UNK     1     -39.457  26.623   1.783  0.00  0.00    -0.506 OA
ATOM     13  H   UNK     1     -40.370  26.526   1.596  0.00  0.00    +0.292 HD
ENDBRANCH   9  12
ENDBRANCH   1   3
BRANCH   1  16
ATOM     14  S   UNK     1     -34.100  26.874   3.509  0.00  0.00    -0.164 S 
ATOM     15  N   UNK     1     -33.382  27.034   6.073  0.00  0.00    +0.400 N 
ATOM     16  C   UNK     1     -34.063  26.104   5.160  0.00  0.00    -0.006 C 
ATOM     17  C   UNK     1     -32.344  27.699   5.275  0.00  0.00    +0.052 C 
ATOM     18  C   UNK     1     -32.991  28.215   3.997  0.00  0.00    +0.045 C 
ATOM     19  H   UNK     1     -32.960  26.523   6.849  0.00  0.00    -0.082 HD
ATOM     20  H   UNK     1     -34.034  27.707   6.474  0.00  0.00    -0.082 HD
BRANCH  17  22
ATOM     21  O   UNK     1     -32.244  29.948   6.063  0.00  0.00    -0.253 OA
ATOM     22  C   UNK     1     -31.794  28.814   6.104  0.00  0.00    +0.294 C 
BRANCH  22  23
ATOM     23  O   UNK     1     -30.762  28.415   6.886  0.00  0.00    -0.482 OA
ATOM     24  H   UNK     1     -30.206  27.715   6.605  0.00  0.00    +0.295 HD
ENDBRANCH  22  23
ENDBRANCH  17  22
ENDBRANCH   1  16
TORSDOF 5
ENDMDL
MODEL 2
REMARK VINA RESULT:      -5.9      3.824      5.809
REMARK  Name = 195334
REMARK  5 active torsions:
REMARK  status: ('A' for Active; 'I' for Inactive)
REMARK    1  A    between atoms: C_1  and  C_3
REMARK    2  A    between atoms: C_1  and  C_16
REMARK    3  A    between atoms: C_9  and  O_12
REMARK    4  A    between atoms: C_17  and  C_22
REMARK    5  A    between atoms: C_22  and  O_23
REMARK                            x       y       z     vdW  Elec       q    Type
REMARK                         _______ _______ _______ _____ _____    ______ ____
ROOT
ATOM      1  C   UNK     1     -34.932  26.058   2.204  0.00  0.00    +0.017 C 
ENDROOT
BRANCH   1   3
ATOM      2  N   UNK     1     -34.833  25.445   5.802  0.00  0.00    -0.312 N 
ATOM      3  C   UNK     1     -34.939  25.529   3.615  0.00  0.00    -0.008 C 
ATOM      4  C   UNK     1     -35.133  24.187   3.984  0.00  0.00    +0.014 C 
ATOM      5  C   UNK     1     -35.062  24.155   5.378  0.00  0.00    +0.048 C 
ATOM      6  C   UNK     1     -34.757  26.288   4.726  0.00  0.00    +0.058 C 
ATOM      7  C   UNK     1     -35.364  22.983   3.288  0.00  0.00    +0.038 C 
ATOM      8  C   UNK     1     -35.210  22.975   6.115  0.00  0.00    +0.018 C 
ATOM      9  C   UNK     1     -35.514  21.795   4.012  0.00  0.00    +0.134 C 
ATOM     10  C   UNK     1     -35.437  21.792   5.404  0.00  0.00    +0.038 C 
ATOM     11  H   UNK     1     -34.737  25.720   6.742  0.00  0.00    +0.152 HD
BRANCH   9  12
ATOM     12  O   UNK     1     -35.738  20.627   3.346  0.00  0.00    -0.506 OA
ATOM     13  H   UNK     1     -35.500  19.810   3.740  0.00  0.00    +0.292 HD
ENDBRANCH   9  12
ENDBRANCH   1   3
BRANCH   1  16
ATOM     14  S   UNK     1     -36.832  25.243   0.381  0.00  0.00    -0.164 S 
ATOM     15  N   UNK     1     -37.321  26.262   2.796  0.00  0.00    +0.400 N 
ATOM     16  C   UNK     1     -36.335  26.382   1.712  0.00  0.00    -0.006 C 
ATOM     17  C   UNK     1     -38.614  26.017   2.143  0.00  0.00    +0.052 C 
ATOM     18  C   UNK     1     -38.429  24.882   1.146  0.00  0.00    +0.045 C 
ATOM     19  H   UNK     1     -37.356  27.125   3.340  0.00  0.00    -0.082 HD
ATOM     20  H   UNK     1     -37.078  25.510   3.440  0.00  0.00    -0.082 HD
BRANCH  17  22
ATOM     21  O   UNK     1     -39.629  24.545   3.722  0.00  0.00    -0.253 OA
ATOM     22  C   UNK     1     -39.590  25.655   3.215  0.00  0.00    +0.294 C 
BRANCH  22  23
ATOM     23  O   UNK     1     -40.400  26.689   3.545  0.00  0.00    -0.482 OA
ATOM     24  H   UNK     1     -40.681  27.293   2.885  0.00  0.00    +0.295 HD
ENDBRANCH  22  23
ENDBRANCH  17  22
ENDBRANCH   1  16
TORSDOF 5
ENDMDL
MODEL 3
REMARK VINA RESULT:      -5.8      4.686      7.568
REMARK  Name = 195334
REMARK  5 active torsions:
REMARK  status: ('A' for Active; 'I' for Inactive)
REMARK    1  A    between atoms: C_1  and  C_3
REMARK    2  A    between atoms: C_1  and  C_16
REMARK    3  A    between atoms: C_9  and  O_12
REMARK    4  A    between atoms: C_17  and  C_22
REMARK    5  A    between atoms: C_22  and  O_23
REMARK                            x       y       z     vdW  Elec       q    Type
REMARK                         _______ _______ _______ _____ _____    ______ ____
ROOT
ATOM      1  C   UNK     1     -35.281  23.017   0.775  0.00  0.00    +0.017 C 
ENDROOT
BRANCH   1   3
ATOM      2  N   UNK     1     -34.898  25.477   3.445  0.00  0.00    -0.312 N 
ATOM      3  C   UNK     1     -35.150  23.805   2.053  0.00  0.00    -0.008 C 
ATOM      4  C   UNK     1     -35.195  23.268   3.351  0.00  0.00    +0.014 C 
ATOM      5  C   UNK     1     -35.033  24.348   4.221  0.00  0.00    +0.048 C 
ATOM      6  C   UNK     1     -34.969  25.149   2.118  0.00  0.00    +0.058 C 
ATOM      7  C   UNK     1     -35.357  21.978   3.894  0.00  0.00    +0.038 C 
ATOM      8  C   UNK     1     -35.025  24.202   5.613  0.00  0.00    +0.018 C 
ATOM      9  C   UNK     1     -35.351  21.817   5.284  0.00  0.00    +0.134 C 
ATOM     10  C   UNK     1     -35.186  22.913   6.129  0.00  0.00    +0.038 C 
ATOM     11  H   UNK     1     -34.769  26.389   3.794  0.00  0.00    +0.152 HD
BRANCH   9  12
ATOM     12  O   UNK     1     -35.507  20.572   5.817  0.00  0.00    -0.506 OA
ATOM     13  H   UNK     1     -36.365  20.204   5.904  0.00  0.00    +0.292 HD
ENDBRANCH   9  12
ENDBRANCH   1   3
BRANCH   1  16
ATOM     14  S   UNK     1     -36.777  22.244  -1.408  0.00  0.00    -0.164 S 
ATOM     15  N   UNK     1     -37.679  22.515   1.087  0.00  0.00    +0.400 N 
ATOM     16  C   UNK     1     -36.682  23.115   0.189  0.00  0.00    -0.006 C 
ATOM     17  C   UNK     1     -38.817  22.140   0.237  0.00  0.00    +0.052 C 
ATOM     18  C   UNK     1     -38.280  21.350  -0.948  0.00  0.00    +0.045 C 
ATOM     19  H   UNK     1     -37.972  23.190   1.793  0.00  0.00    -0.082 HD
ATOM     20  H   UNK     1     -37.298  21.708   1.581  0.00  0.00    -0.082 HD
BRANCH  17  22
ATOM     21  O   UNK     1     -40.840  20.955   0.679  0.00  0.00    -0.253 OA
ATOM     22  C   UNK     1     -39.742  21.317   1.073  0.00  0.00    +0.294 C 
BRANCH  22  23
ATOM     23  O   UNK     1     -39.220  21.030   2.290  0.00  0.00    -0.482 OA
ATOM     24  H   UNK     1     -39.765  20.660   2.958  0.00  0.00    +0.295 HD
ENDBRANCH  22  23
ENDBRANCH  17  22
ENDBRANCH   1  16
TORSDOF 5
ENDMDL
MODEL 4
REMARK VINA RESULT:      -5.8      3.875      5.172
REMARK  Name = 195334
REMARK  5 active torsions:
REMARK  status: ('A' for Active; 'I' for Inactive)
REMARK    1  A    between atoms: C_1  and  C_3
REMARK    2  A    between atoms: C_1  and  C_16
REMARK    3  A    between atoms: C_9  and  O_12
REMARK    4  A    between atoms: C_17  and  C_22
REMARK    5  A    between atoms: C_22  and  O_23
REMARK                            x       y       z     vdW  Elec       q    Type
REMARK                         _______ _______ _______ _____ _____    ______ ____
ROOT
ATOM      1  C   UNK     1     -34.889  25.001   5.340  0.00  0.00    +0.017 C 
ENDROOT
BRANCH   1   3
ATOM      2  N   UNK     1     -35.624  21.425   5.326  0.00  0.00    -0.312 N 
ATOM      3  C   UNK     1     -35.150  23.546   5.049  0.00  0.00    -0.008 C 
ATOM      4  C   UNK     1     -35.106  22.947   3.779  0.00  0.00    +0.014 C 
ATOM      5  C   UNK     1     -35.411  21.598   3.977  0.00  0.00    +0.048 C 
ATOM      6  C   UNK     1     -35.466  22.615   5.985  0.00  0.00    +0.058 C 
ATOM      7  C   UNK     1     -34.841  23.397   2.470  0.00  0.00    +0.038 C 
ATOM      8  C   UNK     1     -35.463  20.674   2.928  0.00  0.00    +0.018 C 
ATOM      9  C   UNK     1     -34.890  22.483   1.411  0.00  0.00    +0.134 C 
ATOM     10  C   UNK     1     -35.195  21.143   1.638  0.00  0.00    +0.038 C 
ATOM     11  H   UNK     1     -35.857  20.570   5.755  0.00  0.00    +0.152 HD
BRANCH   9  12
ATOM     12  O   UNK     1     -34.634  22.911   0.142  0.00  0.00    -0.506 OA
ATOM     13  H   UNK     1     -35.321  22.921  -0.496  0.00  0.00    +0.292 HD
ENDBRANCH   9  12
ENDBRANCH   1   3
BRANCH   1  16
ATOM     14  S   UNK     1     -35.517  26.753   3.307  0.00  0.00    -0.164 S 
ATOM     15  N   UNK     1     -37.220  25.110   4.535  0.00  0.00    +0.400 N 
ATOM     16  C   UNK     1     -36.013  25.893   4.834  0.00  0.00    -0.006 C 
ATOM     17  C   UNK     1     -37.983  25.898   3.558  0.00  0.00    +0.052 C 
ATOM     18  C   UNK     1     -37.036  26.303   2.437  0.00  0.00    +0.045 C 
ATOM     19  H   UNK     1     -37.770  24.968   5.383  0.00  0.00    -0.082 HD
ATOM     20  H   UNK     1     -36.986  24.187   4.170  0.00  0.00    -0.082 HD
BRANCH  17  22
ATOM     21  O   UNK     1     -39.103  24.565   1.926  0.00  0.00    -0.253 OA
ATOM     22  C   UNK     1     -39.091  25.029   3.056  0.00  0.00    +0.294 C 
BRANCH  22  23
ATOM     23  O   UNK     1     -40.051  24.826   3.990  0.00  0.00    -0.482 OA
ATOM     24  H   UNK     1     -39.854  24.336   4.764  0.00  0.00    +0.295 HD
ENDBRANCH  22  23
ENDBRANCH  17  22
ENDBRANCH   1  16
TORSDOF 5
ENDMDL
MODEL 5
REMARK VINA RESULT:      -5.7      2.304      2.583
REMARK  Name = 195334
REMARK  5 active torsions:
REMARK  status: ('A' for Active; 'I' for Inactive)
REMARK    1  A    between atoms: C_1  and  C_3
REMARK    2  A    between atoms: C_1  and  C_16
REMARK    3  A    between atoms: C_9  and  O_12
REMARK    4  A    between atoms: C_17  and  C_22
REMARK    5  A    between atoms: C_22  and  O_23
REMARK                            x       y       z     vdW  Elec       q    Type
REMARK                         _______ _______ _______ _____ _____    ______ ____
ROOT
ATOM      1  C   UNK     1     -35.323  25.400   5.079  0.00  0.00    +0.017 C 
ENDROOT
BRANCH   1   3
ATOM      2  N   UNK     1     -35.505  21.768   5.393  0.00  0.00    -0.312 N 
ATOM      3  C   UNK     1     -35.383  23.903   4.920  0.00  0.00    -0.008 C 
ATOM      4  C   UNK     1     -35.351  23.210   3.697  0.00  0.00    +0.014 C 
ATOM      5  C   UNK     1     -35.430  21.854   4.021  0.00  0.00    +0.048 C 
ATOM      6  C   UNK     1     -35.477  23.019   5.946  0.00  0.00    +0.058 C 
ATOM      7  C   UNK     1     -35.263  23.580   2.341  0.00  0.00    +0.038 C 
ATOM      8  C   UNK     1     -35.425  20.845   3.051  0.00  0.00    +0.018 C 
ATOM      9  C   UNK     1     -35.258  22.582   1.360  0.00  0.00    +0.134 C 
ATOM     10  C   UNK     1     -35.337  21.235   1.711  0.00  0.00    +0.038 C 
ATOM     11  H   UNK     1     -35.570  20.928   5.902  0.00  0.00    +0.152 HD
BRANCH   9  12
ATOM     12  O   UNK     1     -35.174  22.932   0.045  0.00  0.00    -0.506 OA
ATOM     13  H   UNK     1     -34.769  22.352  -0.569  0.00  0.00    +0.292 HD
ENDBRANCH   9  12
ENDBRANCH   1   3
BRANCH   1  16
ATOM     14  S   UNK     1     -34.068  26.907   3.141  0.00  0.00    -0.164 S 
ATOM     15  N   UNK     1     -33.438  26.856   5.732  0.00  0.00    +0.400 N 
ATOM     16  C   UNK     1     -33.961  25.958   4.692  0.00  0.00    -0.006 C 
ATOM     17  C   UNK     1     -32.486  27.748   5.056  0.00  0.00    +0.052 C 
ATOM     18  C   UNK     1     -33.171  28.320   3.823  0.00  0.00    +0.045 C 
ATOM     19  H   UNK     1     -32.966  26.319   6.459  0.00  0.00    -0.082 HD
ATOM     20  H   UNK     1     -34.187  27.381   6.183  0.00  0.00    -0.082 HD
BRANCH  17  22
ATOM     21  O   UNK     1     -32.281  30.008   5.793  0.00  0.00    -0.253 OA
ATOM     22  C   UNK     1     -32.117  28.821   6.029  0.00  0.00    +0.294 C 
BRANCH  22  23
ATOM     23  O   UNK     1     -31.595  28.322   7.174  0.00  0.00    -0.482 OA
ATOM     24  H   UNK     1     -30.937  27.654   7.137  0.00  0.00    +0.295 HD
ENDBRANCH  22  23
ENDBRANCH  17  22
ENDBRANCH   1  16
TORSDOF 5
ENDMDL
MODEL 6
REMARK VINA RESULT:      -5.7      2.936      7.102
REMARK  Name = 195334
REMARK  5 active torsions:
REMARK  status: ('A' for Active; 'I' for Inactive)
REMARK    1  A    between atoms: C_1  and  C_3
REMARK    2  A    between atoms: C_1  and  C_16
REMARK    3  A    between atoms: C_9  and  O_12
REMARK    4  A    between atoms: C_17  and  C_22
REMARK    5  A    between atoms: C_22  and  O_23
REMARK                            x       y       z     vdW  Elec       q    Type
REMARK                         _______ _______ _______ _____ _____    ______ ____
ROOT
ATOM      1  C   UNK     1     -33.917  26.148   4.276  0.00  0.00    +0.017 C 
ENDROOT
BRANCH   1   3
ATOM      2  N   UNK     1     -32.456  27.549   7.314  0.00  0.00    -0.312 N 
ATOM      3  C   UNK     1     -33.203  26.925   5.352  0.00  0.00    -0.008 C 
ATOM      4  C   UNK     1     -32.429  28.080   5.147  0.00  0.00    +0.014 C 
ATOM      5  C   UNK     1     -31.963  28.460   6.408  0.00  0.00    +0.048 C 
ATOM      6  C   UNK     1     -33.214  26.608   6.672  0.00  0.00    +0.058 C 
ATOM      7  C   UNK     1     -32.066  28.854   4.028  0.00  0.00    +0.038 C 
ATOM      8  C   UNK     1     -31.149  29.581   6.605  0.00  0.00    +0.018 C 
ATOM      9  C   UNK     1     -31.252  29.978   4.210  0.00  0.00    +0.134 C 
ATOM     10  C   UNK     1     -30.802  30.335   5.480  0.00  0.00    +0.038 C 
ATOM     11  H   UNK     1     -32.286  27.570   8.284  0.00  0.00    +0.152 HD
BRANCH   9  12
ATOM     12  O   UNK     1     -30.896  30.732   3.131  0.00  0.00    -0.506 OA
ATOM     13  H   UNK     1     -31.081  30.426   2.265  0.00  0.00    +0.292 HD
ENDBRANCH   9  12
ENDBRANCH   1   3
BRANCH   1  16
ATOM     14  S   UNK     1     -36.552  25.406   3.953  0.00  0.00    -0.164 S 
ATOM     15  N   UNK     1     -34.570  23.815   4.759  0.00  0.00    +0.400 N 
ATOM     16  C   UNK     1     -34.979  25.224   4.854  0.00  0.00    -0.006 C 
ATOM     17  C   UNK     1     -35.810  23.029   4.777  0.00  0.00    +0.052 C 
ATOM     18  C   UNK     1     -36.759  23.622   3.745  0.00  0.00    +0.045 C 
ATOM     19  H   UNK     1     -33.979  23.564   5.552  0.00  0.00    -0.082 HD
ATOM     20  H   UNK     1     -34.028  23.640   3.912  0.00  0.00    -0.082 HD
BRANCH  17  22
ATOM     21  O   UNK     1     -35.373  21.211   3.296  0.00  0.00    -0.253 OA
ATOM     22  C   UNK     1     -35.446  21.618   4.445  0.00  0.00    +0.294 C 
BRANCH  22  23
ATOM     23  O   UNK     1     -35.212  20.872   5.551  0.00  0.00    -0.482 OA
ATOM     24  H   UNK     1     -35.796  20.174   5.777  0.00  0.00    +0.295 HD
ENDBRANCH  22  23
ENDBRANCH  17  22
ENDBRANCH   1  16
TORSDOF 5
ENDMDL
MODEL 7
REMARK VINA RESULT:      -5.6      3.715      7.081
REMARK  Name = 195334
REMARK  5 active torsions:
REMARK  status: ('A' for Active; 'I' for Inactive)
REMARK    1  A    between atoms: C_1  and  C_3
REMARK    2  A    between atoms: C_1  and  C_16
REMARK    3  A    between atoms: C_9  and  O_12
REMARK    4  A    between atoms: C_17  and  C_22
REMARK    5  A    between atoms: C_22  and  O_23
REMARK                            x       y       z     vdW  Elec       q    Type
REMARK                         _______ _______ _______ _____ _____    ______ ____
ROOT
ATOM      1  C   UNK     1     -35.219  22.546   0.861  0.00  0.00    +0.017 C 
ENDROOT
BRANCH   1   3
ATOM      2  N   UNK     1     -35.531  21.519   4.350  0.00  0.00    -0.312 N 
ATOM      3  C   UNK     1     -35.347  22.406   2.356  0.00  0.00    -0.008 C 
ATOM      4  C   UNK     1     -35.406  23.469   3.274  0.00  0.00    +0.014 C 
ATOM      5  C   UNK     1     -35.522  22.883   4.536  0.00  0.00    +0.048 C 
ATOM      6  C   UNK     1     -35.424  21.223   3.018  0.00  0.00    +0.058 C 
ATOM      7  C   UNK     1     -35.372  24.874   3.179  0.00  0.00    +0.038 C 
ATOM      8  C   UNK     1     -35.608  23.635   5.713  0.00  0.00    +0.018 C 
ATOM      9  C   UNK     1     -35.457  25.639   4.347  0.00  0.00    +0.134 C 
ATOM     10  C   UNK     1     -35.573  25.028   5.594  0.00  0.00    +0.038 C 
ATOM     11  H   UNK     1     -35.604  20.852   5.071  0.00  0.00    +0.152 HD
BRANCH   9  12
ATOM     12  O   UNK     1     -35.425  27.000   4.263  0.00  0.00    -0.506 OA
ATOM     13  H   UNK     1     -34.866  27.492   4.832  0.00  0.00    +0.292 HD
ENDBRANCH   9  12
ENDBRANCH   1   3
BRANCH   1  16
ATOM     14  S   UNK     1     -36.798  20.657  -0.379  0.00  0.00    -0.164 S 
ATOM     15  N   UNK     1     -37.674  22.733   1.048  0.00  0.00    +0.400 N 
ATOM     16  C   UNK     1     -36.559  22.381   0.158  0.00  0.00    -0.006 C 
ATOM     17  C   UNK     1     -38.848  22.019   0.529  0.00  0.00    +0.052 C 
ATOM     18  C   UNK     1     -38.460  20.561   0.325  0.00  0.00    +0.045 C 
ATOM     19  H   UNK     1     -37.836  23.740   1.033  0.00  0.00    -0.082 HD
ATOM     20  H   UNK     1     -37.476  22.474   2.015  0.00  0.00    -0.082 HD
BRANCH  17  22
ATOM     21  O   UNK     1     -40.447  23.239   1.811  0.00  0.00    -0.253 OA
ATOM     22  C   UNK     1     -39.938  22.163   1.541  0.00  0.00    +0.294 C 
BRANCH  22  23
ATOM     23  O   UNK     1     -40.281  20.978   2.101  0.00  0.00    -0.482 OA
ATOM     24  H   UNK     1     -39.626  20.447   2.510  0.00  0.00    +0.295 HD
ENDBRANCH  22  23
ENDBRANCH  17  22
ENDBRANCH   1  16
TORSDOF 5
ENDMDL
MODEL 8
REMARK VINA RESULT:      -5.5      2.927      7.038
REMARK  Name = 195334
REMARK  5 active torsions:
REMARK  status: ('A' for Active; 'I' for Inactive)
REMARK    1  A    between atoms: C_1  and  C_3
REMARK    2  A    between atoms: C_1  and  C_16
REMARK    3  A    between atoms: C_9  and  O_12
REMARK    4  A    between atoms: C_17  and  C_22
REMARK    5  A    between atoms: C_22  and  O_23
REMARK                            x       y       z     vdW  Elec       q    Type
REMARK                         _______ _______ _______ _____ _____    ______ ____
ROOT
ATOM      1  C   UNK     1     -33.206  26.100   3.493  0.00  0.00    +0.017 C 
ENDROOT
BRANCH   1   3
ATOM      2  N   UNK     1     -32.934  29.609   2.526  0.00  0.00    -0.312 N 
ATOM      3  C   UNK     1     -33.005  27.588   3.366  0.00  0.00    -0.008 C 
ATOM      4  C   UNK     1     -32.557  28.441   4.389  0.00  0.00    +0.014 C 
ATOM      5  C   UNK     1     -32.519  29.722   3.834  0.00  0.00    +0.048 C 
ATOM      6  C   UNK     1     -33.233  28.305   2.236  0.00  0.00    +0.058 C 
ATOM      7  C   UNK     1     -32.175  28.274   5.735  0.00  0.00    +0.038 C 
ATOM      8  C   UNK     1     -32.117  30.848   4.560  0.00  0.00    +0.018 C 
ATOM      9  C   UNK     1     -31.771  29.392   6.474  0.00  0.00    +0.134 C 
ATOM     10  C   UNK     1     -31.742  30.658   5.894  0.00  0.00    +0.038 C 
ATOM     11  H   UNK     1     -33.006  30.358   1.891  0.00  0.00    +0.152 HD
BRANCH   9  12
ATOM     12  O   UNK     1     -31.401  29.237   7.777  0.00  0.00    -0.506 OA
ATOM     13  H   UNK     1     -31.998  28.858   8.392  0.00  0.00    +0.292 HD
ENDBRANCH   9  12
ENDBRANCH   1   3
BRANCH   1  16
ATOM     14  S   UNK     1     -35.954  25.868   3.489  0.00  0.00    -0.164 S 
ATOM     15  N   UNK     1     -34.264  24.396   4.935  0.00  0.00    +0.400 N 
ATOM     16  C   UNK     1     -34.380  25.761   4.401  0.00  0.00    -0.006 C 
ATOM     17  C   UNK     1     -35.630  23.977   5.277  0.00  0.00    +0.052 C 
ATOM     18  C   UNK     1     -36.523  24.257   4.077  0.00  0.00    +0.045 C 
ATOM     19  H   UNK     1     -33.672  24.390   5.766  0.00  0.00    -0.082 HD
ATOM     20  H   UNK     1     -33.838  23.765   4.257  0.00  0.00    -0.082 HD
BRANCH  17  22
ATOM     21  O   UNK     1     -35.233  22.097   6.691  0.00  0.00    -0.253 OA
ATOM     22  C   UNK     1     -35.578  22.518   5.598  0.00  0.00    +0.294 C 
BRANCH  22  23
ATOM     23  O   UNK     1     -35.956  21.746   4.551  0.00  0.00    -0.482 OA
ATOM     24  H   UNK     1     -36.823  21.822   4.202  0.00  0.00    +0.295 HD
ENDBRANCH  22  23
ENDBRANCH  17  22
ENDBRANCH   1  16
TORSDOF 5
ENDMDL
MODEL 9
REMARK VINA RESULT:      -5.5      5.728      7.544
REMARK  Name = 195334
REMARK  5 active torsions:
REMARK  status: ('A' for Active; 'I' for Inactive)
REMARK    1  A    between atoms: C_1  and  C_3
REMARK    2  A    between atoms: C_1  and  C_16
REMARK    3  A    between atoms: C_9  and  O_12
REMARK    4  A    between atoms: C_17  and  C_22
REMARK    5  A    between atoms: C_22  and  O_23
REMARK                            x       y       z     vdW  Elec       q    Type
REMARK                         _______ _______ _______ _____ _____    ______ ____
ROOT
ATOM      1  C   UNK     1     -35.693  21.816   0.761  0.00  0.00    +0.017 C 
ENDROOT
BRANCH   1   3
ATOM      2  N   UNK     1     -34.174  24.807   2.202  0.00  0.00    -0.312 N 
ATOM      3  C   UNK     1     -35.147  22.936   1.608  0.00  0.00    -0.008 C 
ATOM      4  C   UNK     1     -35.213  23.005   3.011  0.00  0.00    +0.014 C 
ATOM      5  C   UNK     1     -34.589  24.202   3.367  0.00  0.00    +0.048 C 
ATOM      6  C   UNK     1     -34.514  24.035   1.124  0.00  0.00    +0.058 C 
ATOM      7  C   UNK     1     -35.735  22.183   4.029  0.00  0.00    +0.038 C 
ATOM      8  C   UNK     1     -34.460  24.620   4.697  0.00  0.00    +0.018 C 
ATOM      9  C   UNK     1     -35.614  22.588   5.362  0.00  0.00    +0.134 C 
ATOM     10  C   UNK     1     -34.985  23.787   5.690  0.00  0.00    +0.038 C 
ATOM     11  H   UNK     1     -33.702  25.669   2.151  0.00  0.00    +0.152 HD
BRANCH   9  12
ATOM     12  O   UNK     1     -36.118  21.797   6.353  0.00  0.00    -0.506 OA
ATOM     13  H   UNK     1     -35.538  21.291   6.888  0.00  0.00    +0.292 HD
ENDBRANCH   9  12
ENDBRANCH   1   3
BRANCH   1  16
ATOM     14  S   UNK     1     -36.012  19.120   0.281  0.00  0.00    -0.164 S 
ATOM     15  N   UNK     1     -33.849  20.275   1.329  0.00  0.00    +0.400 N 
ATOM     16  C   UNK     1     -35.308  20.449   1.308  0.00  0.00    -0.006 C 
ATOM     17  C   UNK     1     -33.613  18.826   1.299  0.00  0.00    +0.052 C 
ATOM     18  C   UNK     1     -34.439  18.238   0.163  0.00  0.00    +0.045 C 
ATOM     19  H   UNK     1     -33.455  20.681   2.178  0.00  0.00    -0.082 HD
ATOM     20  H   UNK     1     -33.406  20.743   0.538  0.00  0.00    -0.082 HD
BRANCH  17  22
ATOM     21  O   UNK     1     -31.552  17.640   1.497  0.00  0.00    -0.253 OA
ATOM     22  C   UNK     1     -32.149  18.620   1.079  0.00  0.00    +0.294 C 
BRANCH  22  23
ATOM     23  O   UNK     1     -31.586  19.629   0.373  0.00  0.00    -0.482 OA
ATOM     24  H   UNK     1     -30.839  20.080   0.715  0.00  0.00    +0.295 HD
ENDBRANCH  22  23
ENDBRANCH  17  22
ENDBRANCH   1  16
TORSDOF 5
ENDMDL
