MODEL 1
REMARK VINA RESULT:      -5.1      0.000      0.000
REMARK  Name = 51249
REMARK  15 active torsions:
REMARK  status: ('A' for Active; 'I' for Inactive)
REMARK    1  A    between atoms: C_1  and  C_22
REMARK    2  A    between atoms: C_2  and  C_10
REMARK    3  A    between atoms: C_3  and  O_6
REMARK    4  A    between atoms: C_4  and  O_8
REMARK    5  A    between atoms: C_11  and  C_12
REMARK    6  A    between atoms: C_12  and  O_13
REMARK    7  A    between atoms: C_12  and  C_15
REMARK    8  A    between atoms: C_15  and  O_16
REMARK    9  A    between atoms: O_16  and  C_18
REMARK   10  A    between atoms: C_22  and  C_23
REMARK   11  A    between atoms: C_24  and  C_25
REMARK   12  A    between atoms: C_25  and  C_26
REMARK   13  A    between atoms: C_26  and  C_27
REMARK   14  A    between atoms: C_27  and  C_29
REMARK   15  A    between atoms: C_29  and  O_30
REMARK                            x       y       z     vdW  Elec       q    Type
REMARK                         _______ _______ _______ _____ _____    ______ ____
ROOT
ATOM      1  C   UNL     1     -34.782  22.685   1.299  0.00  0.00    +0.038 C 
ATOM      2  C   UNL     1     -35.709  22.263   2.449  0.00  0.00    +0.051 C 
ATOM      3  C   UNL     1     -34.807  21.444   0.403  0.00  0.00    +0.114 C 
ATOM      4  C   UNL     1     -35.346  20.787   2.689  0.00  0.00    +0.117 C 
ATOM      5  C   UNL     1     -34.708  20.282   1.390  0.00  0.00    +0.059 C 
ENDROOT
BRANCH   3   6
ATOM      6  O   UNL     1     -33.719  21.416  -0.501  0.00  0.00    -0.384 OA
ATOM      7  H   UNL     1     -33.413  22.322  -0.666  0.00  0.00    +0.210 HD
ENDBRANCH   3   6
BRANCH   4   8
ATOM      8  O   UNL     1     -36.524  20.051   2.988  0.00  0.00    -0.384 OA
ATOM      9  H   UNL     1     -36.858  19.631   2.181  0.00  0.00    +0.210 HD
ENDBRANCH   4   8
BRANCH   2  10
ATOM     10  C   UNL     1     -35.557  23.094   3.683  0.00  0.00    -0.026 C 
ATOM     11  C   UNL     1     -36.381  24.098   4.015  0.00  0.00    +0.002 C 
BRANCH  11  12
ATOM     12  C   UNL     1     -36.225  24.932   5.256  0.00  0.00    +0.176 C 
BRANCH  12  13
ATOM     13  O   UNL     1     -36.933  26.151   5.047  0.00  0.00    -0.376 OA
ATOM     14  H   UNL     1     -36.998  26.329   4.096  0.00  0.00    +0.211 HD
ENDBRANCH  12  13
BRANCH  12  15
ATOM     15  C   UNL     1     -34.759  25.248   5.539  0.00  0.00    +0.239 C 
BRANCH  15  16
ATOM     16  O   UNL     1     -34.473  26.589   5.170  0.00  0.00    -0.472 OA
BRANCH  16  18
ATOM     17  S   UNL     1     -31.473  27.791   3.055  0.00  0.00    -0.083 S 
ATOM     18  C   UNL     1     -33.480  26.779   4.244  0.00  0.00    +0.146 C 
ATOM     19  C   UNL     1     -33.273  25.959   3.117  0.00  0.00    +0.044 C 
ATOM     20  C   UNL     1     -32.592  27.807   4.351  0.00  0.00    +0.072 C 
ATOM     21  C   UNL     1     -32.200  26.399   2.372  0.00  0.00    +0.039 C 
ENDBRANCH  16  18
ENDBRANCH  15  16
ENDBRANCH  12  15
ENDBRANCH  11  12
ENDBRANCH   2  10
BRANCH   1  22
ATOM     22  C   UNL     1     -35.244  23.943   0.570  0.00  0.00    +0.028 C 
BRANCH  22  23
ATOM     23  C   UNL     1     -36.650  23.940   0.037  0.00  0.00    -0.031 C 
ATOM     24  C   UNL     1     -37.725  24.531   0.582  0.00  0.00    -0.031 C 
BRANCH  24  25
ATOM     25  C   UNL     1     -39.096  24.486  -0.027  0.00  0.00    +0.026 C 
BRANCH  25  26
ATOM     26  C   UNL     1     -40.155  23.847   0.883  0.00  0.00    +0.016 C 
BRANCH  26  27
ATOM     27  C   UNL     1     -39.570  23.095   2.082  0.00  0.00    +0.110 C 
BRANCH  27  29
ATOM     28  O   UNL     1     -38.598  21.092   1.096  0.00  0.00    -0.250 OA
ATOM     29  C   UNL     1     -39.411  21.608   1.850  0.00  0.00    +0.314 C 
BRANCH  29  30
ATOM     30  O   UNL     1     -40.322  20.889   2.555  0.00  0.00    -0.480 OA
ATOM     31  H   UNL     1     -41.237  20.981   2.369  0.00  0.00    +0.295 HD
ENDBRANCH  29  30
ENDBRANCH  27  29
ENDBRANCH  26  27
ENDBRANCH  25  26
ENDBRANCH  24  25
ENDBRANCH  22  23
ENDBRANCH   1  22
TORSDOF 15
ENDMDL
MODEL 2
REMARK VINA RESULT:      -5.1      1.430      1.901
REMARK  Name = 51249
REMARK  15 active torsions:
REMARK  status: ('A' for Active; 'I' for Inactive)
REMARK    1  A    between atoms: C_1  and  C_22
REMARK    2  A    between atoms: C_2  and  C_10
REMARK    3  A    between atoms: C_3  and  O_6
REMARK    4  A    between atoms: C_4  and  O_8
REMARK    5  A    between atoms: C_11  and  C_12
REMARK    6  A    between atoms: C_12  and  O_13
REMARK    7  A    between atoms: C_12  and  C_15
REMARK    8  A    between atoms: C_15  and  O_16
REMARK    9  A    between atoms: O_16  and  C_18
REMARK   10  A    between atoms: C_22  and  C_23
REMARK   11  A    between atoms: C_24  and  C_25
REMARK   12  A    between atoms: C_25  and  C_26
REMARK   13  A    between atoms: C_26  and  C_27
REMARK   14  A    between atoms: C_27  and  C_29
REMARK   15  A    between atoms: C_29  and  O_30
REMARK                            x       y       z     vdW  Elec       q    Type
REMARK                         _______ _______ _______ _____ _____    ______ ____
ROOT
ATOM      1  C   UNL     1     -34.766  22.484   1.376  0.00  0.00    +0.038 C 
ATOM      2  C   UNL     1     -36.004  22.103   2.202  0.00  0.00    +0.051 C 
ATOM      3  C   UNL     1     -34.407  21.151   0.714  0.00  0.00    +0.114 C 
ATOM      4  C   UNL     1     -35.657  20.712   2.761  0.00  0.00    +0.117 C 
ATOM      5  C   UNL     1     -34.583  20.130   1.835  0.00  0.00    +0.059 C 
ENDROOT
BRANCH   3   6
ATOM      6  O   UNL     1     -33.074  21.134   0.236  0.00  0.00    -0.384 OA
ATOM      7  H   UNL     1     -32.814  20.220   0.039  0.00  0.00    +0.210 HD
ENDBRANCH   3   6
BRANCH   4   8
ATOM      8  O   UNL     1     -36.820  19.895   2.756  0.00  0.00    -0.384 OA
ATOM      9  H   UNL     1     -36.575  18.982   2.973  0.00  0.00    +0.210 HD
ENDBRANCH   4   8
BRANCH   2  10
ATOM     10  C   UNL     1     -36.334  23.083   3.282  0.00  0.00    -0.026 C 
ATOM     11  C   UNL     1     -35.489  23.424   4.267  0.00  0.00    +0.002 C 
BRANCH  11  12
ATOM     12  C   UNL     1     -35.824  24.409   5.351  0.00  0.00    +0.176 C 
BRANCH  12  13
ATOM     13  O   UNL     1     -37.082  24.995   5.026  0.00  0.00    -0.376 OA
ATOM     14  H   UNL     1     -37.774  24.316   5.059  0.00  0.00    +0.211 HD
ENDBRANCH  12  13
BRANCH  12  15
ATOM     15  C   UNL     1     -34.772  25.510   5.455  0.00  0.00    +0.239 C 
BRANCH  15  16
ATOM     16  O   UNL     1     -35.255  26.699   4.846  0.00  0.00    -0.472 OA
BRANCH  16  18
ATOM     17  S   UNL     1     -33.119  27.946   1.879  0.00  0.00    -0.083 S 
ATOM     18  C   UNL     1     -34.724  27.028   3.626  0.00  0.00    +0.146 C 
ATOM     19  C   UNL     1     -35.339  26.756   2.387  0.00  0.00    +0.044 C 
ATOM     20  C   UNL     1     -33.523  27.665   3.519  0.00  0.00    +0.072 C 
ATOM     21  C   UNL     1     -34.566  27.206   1.339  0.00  0.00    +0.039 C 
ENDBRANCH  16  18
ENDBRANCH  15  16
ENDBRANCH  12  15
ENDBRANCH  11  12
ENDBRANCH   2  10
BRANCH   1  22
ATOM     22  C   UNL     1     -35.024  23.592   0.360  0.00  0.00    +0.028 C 
BRANCH  22  23
ATOM     23  C   UNL     1     -36.418  23.694  -0.192  0.00  0.00    -0.031 C 
ATOM     24  C   UNL     1     -37.259  24.735  -0.085  0.00  0.00    -0.031 C 
BRANCH  24  25
ATOM     25  C   UNL     1     -38.637  24.756  -0.681  0.00  0.00    +0.026 C 
BRANCH  25  26
ATOM     26  C   UNL     1     -39.731  25.177   0.310  0.00  0.00    +0.016 C 
BRANCH  26  27
ATOM     27  C   UNL     1     -39.664  24.447   1.655  0.00  0.00    +0.110 C 
BRANCH  27  29
ATOM     28  O   UNL     1     -38.808  26.426   2.788  0.00  0.00    -0.250 OA
ATOM     29  C   UNL     1     -39.410  25.363   2.834  0.00  0.00    +0.314 C 
BRANCH  29  30
ATOM     30  O   UNL     1     -39.898  24.841   3.989  0.00  0.00    -0.480 OA
ATOM     31  H   UNL     1     -39.360  24.280   4.514  0.00  0.00    +0.295 HD
ENDBRANCH  29  30
ENDBRANCH  27  29
ENDBRANCH  26  27
ENDBRANCH  25  26
ENDBRANCH  24  25
ENDBRANCH  22  23
ENDBRANCH   1  22
TORSDOF 15
ENDMDL
MODEL 3
REMARK VINA RESULT:      -5.1      2.690      4.203
REMARK  Name = 51249
REMARK  15 active torsions:
REMARK  status: ('A' for Active; 'I' for Inactive)
REMARK    1  A    between atoms: C_1  and  C_22
REMARK    2  A    between atoms: C_2  and  C_10
REMARK    3  A    between atoms: C_3  and  O_6
REMARK    4  A    between atoms: C_4  and  O_8
REMARK    5  A    between atoms: C_11  and  C_12
REMARK    6  A    between atoms: C_12  and  O_13
REMARK    7  A    between atoms: C_12  and  C_15
REMARK    8  A    between atoms: C_15  and  O_16
REMARK    9  A    between atoms: O_16  and  C_18
REMARK   10  A    between atoms: C_22  and  C_23
REMARK   11  A    between atoms: C_24  and  C_25
REMARK   12  A    between atoms: C_25  and  C_26
REMARK   13  A    between atoms: C_26  and  C_27
REMARK   14  A    between atoms: C_27  and  C_29
REMARK   15  A    between atoms: C_29  and  O_30
REMARK                            x       y       z     vdW  Elec       q    Type
REMARK                         _______ _______ _______ _____ _____    ______ ____
ROOT
ATOM      1  C   UNL     1     -35.099  22.578   3.797  0.00  0.00    +0.038 C 
ATOM      2  C   UNL     1     -35.458  24.071   3.859  0.00  0.00    +0.051 C 
ATOM      3  C   UNL     1     -35.751  22.044   5.075  0.00  0.00    +0.114 C 
ATOM      4  C   UNL     1     -35.294  24.424   5.347  0.00  0.00    +0.117 C 
ATOM      5  C   UNL     1     -35.421  23.108   6.121  0.00  0.00    +0.059 C 
ENDROOT
BRANCH   3   6
ATOM      6  O   UNL     1     -35.219  20.791   5.462  0.00  0.00    -0.384 OA
ATOM      7  H   UNL     1     -35.902  20.109   5.371  0.00  0.00    +0.210 HD
ENDBRANCH   3   6
BRANCH   4   8
ATOM      8  O   UNL     1     -36.315  25.334   5.734  0.00  0.00    -0.384 OA
ATOM      9  H   UNL     1     -35.987  25.907   6.444  0.00  0.00    +0.210 HD
ENDBRANCH   4   8
BRANCH   2  10
ATOM     10  C   UNL     1     -34.614  24.932   2.974  0.00  0.00    -0.026 C 
ATOM     11  C   UNL     1     -33.547  25.623   3.401  0.00  0.00    +0.002 C 
BRANCH  11  12
ATOM     12  C   UNL     1     -32.701  26.488   2.509  0.00  0.00    +0.176 C 
BRANCH  12  13
ATOM     13  O   UNL     1     -31.373  25.972   2.542  0.00  0.00    -0.376 OA
ATOM     14  H   UNL     1     -30.976  26.156   3.408  0.00  0.00    +0.211 HD
ENDBRANCH  12  13
BRANCH  12  15
ATOM     15  C   UNL     1     -32.684  27.939   2.984  0.00  0.00    +0.239 C 
BRANCH  15  16
ATOM     16  O   UNL     1     -33.941  28.276   3.554  0.00  0.00    -0.472 OA
BRANCH  16  18
ATOM     17  S   UNL     1     -36.010  31.012   1.778  0.00  0.00    -0.083 S 
ATOM     18  C   UNL     1     -34.797  29.011   2.776  0.00  0.00    +0.146 C 
ATOM     19  C   UNL     1     -35.683  28.464   1.826  0.00  0.00    +0.044 C 
ATOM     20  C   UNL     1     -34.854  30.370   2.867  0.00  0.00    +0.072 C 
ATOM     21  C   UNL     1     -36.414  29.451   1.201  0.00  0.00    +0.039 C 
ENDBRANCH  16  18
ENDBRANCH  15  16
ENDBRANCH  12  15
ENDBRANCH  11  12
ENDBRANCH   2  10
BRANCH   1  22
ATOM     22  C   UNL     1     -35.611  21.877   2.542  0.00  0.00    +0.028 C 
BRANCH  22  23
ATOM     23  C   UNL     1     -37.098  21.878   2.323  0.00  0.00    -0.031 C 
ATOM     24  C   UNL     1     -37.799  22.690   1.516  0.00  0.00    -0.031 C 
BRANCH  24  25
ATOM     25  C   UNL     1     -39.289  22.614   1.349  0.00  0.00    +0.026 C 
BRANCH  25  26
ATOM     26  C   UNL     1     -40.039  23.809   1.954  0.00  0.00    +0.016 C 
BRANCH  26  27
ATOM     27  C   UNL     1     -39.277  24.516   3.079  0.00  0.00    +0.110 C 
BRANCH  27  29
ATOM     28  O   UNL     1     -39.369  26.603   1.828  0.00  0.00    -0.250 OA
ATOM     29  C   UNL     1     -38.931  25.957   2.769  0.00  0.00    +0.314 C 
BRANCH  29  30
ATOM     30  O   UNL     1     -38.025  26.455   3.649  0.00  0.00    -0.480 OA
ATOM     31  H   UNL     1     -37.215  26.004   3.795  0.00  0.00    +0.295 HD
ENDBRANCH  29  30
ENDBRANCH  27  29
ENDBRANCH  26  27
ENDBRANCH  25  26
ENDBRANCH  24  25
ENDBRANCH  22  23
ENDBRANCH   1  22
TORSDOF 15
ENDMDL
MODEL 4
REMARK VINA RESULT:      -5.0      3.034      6.305
REMARK  Name = 51249
REMARK  15 active torsions:
REMARK  status: ('A' for Active; 'I' for Inactive)
REMARK    1  A    between atoms: C_1  and  C_22
REMARK    2  A    between atoms: C_2  and  C_10
REMARK    3  A    between atoms: C_3  and  O_6
REMARK    4  A    between atoms: C_4  and  O_8
REMARK    5  A    between atoms: C_11  and  C_12
REMARK    6  A    between atoms: C_12  and  O_13
REMARK    7  A    between atoms: C_12  and  C_15
REMARK    8  A    between atoms: C_15  and  O_16
REMARK    9  A    between atoms: O_16  and  C_18
REMARK   10  A    between atoms: C_22  and  C_23
REMARK   11  A    between atoms: C_24  and  C_25
REMARK   12  A    between atoms: C_25  and  C_26
REMARK   13  A    between atoms: C_26  and  C_27
REMARK   14  A    between atoms: C_27  and  C_29
REMARK   15  A    between atoms: C_29  and  O_30
REMARK                            x       y       z     vdW  Elec       q    Type
REMARK                         _______ _______ _______ _____ _____    ______ ____
ROOT
ATOM      1  C   UNL     1     -37.586  25.541   0.943  0.00  0.00    +0.038 C 
ATOM      2  C   UNL     1     -38.015  24.337   1.796  0.00  0.00    +0.051 C 
ATOM      3  C   UNL     1     -38.615  26.598   1.351  0.00  0.00    +0.114 C 
ATOM      4  C   UNL     1     -39.552  24.381   1.744  0.00  0.00    +0.117 C 
ATOM      5  C   UNL     1     -39.932  25.825   1.396  0.00  0.00    +0.059 C 
ENDROOT
BRANCH   3   6
ATOM      6  O   UNL     1     -38.697  27.655   0.413  0.00  0.00    -0.384 OA
ATOM      7  H   UNL     1     -39.237  28.372   0.781  0.00  0.00    +0.210 HD
ENDBRANCH   3   6
BRANCH   4   8
ATOM      8  O   UNL     1     -40.079  24.016   3.012  0.00  0.00    -0.384 OA
ATOM      9  H   UNL     1     -39.718  24.602   3.695  0.00  0.00    +0.210 HD
ENDBRANCH   4   8
BRANCH   2  10
ATOM     10  C   UNL     1     -37.467  23.031   1.315  0.00  0.00    -0.026 C 
ATOM     11  C   UNL     1     -36.978  22.081   2.126  0.00  0.00    +0.002 C 
BRANCH  11  12
ATOM     12  C   UNL     1     -36.428  20.770   1.639  0.00  0.00    +0.176 C 
BRANCH  12  13
ATOM     13  O   UNL     1     -36.757  19.779   2.609  0.00  0.00    -0.376 OA
ATOM     14  H   UNL     1     -37.717  19.773   2.753  0.00  0.00    +0.211 HD
ENDBRANCH  12  13
BRANCH  12  15
ATOM     15  C   UNL     1     -34.911  20.823   1.475  0.00  0.00    +0.239 C 
BRANCH  15  16
ATOM     16  O   UNL     1     -34.348  19.554   1.771  0.00  0.00    -0.472 OA
BRANCH  16  18
ATOM     17  S   UNL     1     -31.028  17.992   0.562  0.00  0.00    -0.083 S 
ATOM     18  C   UNL     1     -33.135  19.266   1.201  0.00  0.00    +0.146 C 
ATOM     19  C   UNL     1     -32.408  20.152   0.381  0.00  0.00    +0.044 C 
ATOM     20  C   UNL     1     -32.524  18.063   1.392  0.00  0.00    +0.072 C 
ATOM     21  C   UNL     1     -31.227  19.582  -0.042  0.00  0.00    +0.039 C 
ENDBRANCH  16  18
ENDBRANCH  15  16
ENDBRANCH  12  15
ENDBRANCH  11  12
ENDBRANCH   2  10
BRANCH   1  22
ATOM     22  C   UNL     1     -36.151  25.992   1.197  0.00  0.00    +0.028 C 
BRANCH  22  23
ATOM     23  C   UNL     1     -35.739  26.166   2.632  0.00  0.00    -0.031 C 
ATOM     24  C   UNL     1     -34.909  25.382   3.338  0.00  0.00    -0.031 C 
BRANCH  24  25
ATOM     25  C   UNL     1     -34.541  25.637   4.771  0.00  0.00    +0.026 C 
BRANCH  25  26
ATOM     26  C   UNL     1     -34.665  24.399   5.669  0.00  0.00    +0.016 C 
BRANCH  26  27
ATOM     27  C   UNL     1     -34.677  23.073   4.901  0.00  0.00    +0.110 C 
BRANCH  27  29
ATOM     28  O   UNL     1     -36.088  22.098   6.631  0.00  0.00    -0.250 OA
ATOM     29  C   UNL     1     -35.431  21.966   5.608  0.00  0.00    +0.314 C 
BRANCH  29  30
ATOM     30  O   UNL     1     -35.258  20.769   4.990  0.00  0.00    -0.480 OA
ATOM     31  H   UNL     1     -35.404  19.972   5.463  0.00  0.00    +0.295 HD
ENDBRANCH  29  30
ENDBRANCH  27  29
ENDBRANCH  26  27
ENDBRANCH  25  26
ENDBRANCH  24  25
ENDBRANCH  22  23
ENDBRANCH   1  22
TORSDOF 15
ENDMDL
MODEL 5
REMARK VINA RESULT:      -5.0      2.942      7.590
REMARK  Name = 51249
REMARK  15 active torsions:
REMARK  status: ('A' for Active; 'I' for Inactive)
REMARK    1  A    between atoms: C_1  and  C_22
REMARK    2  A    between atoms: C_2  and  C_10
REMARK    3  A    between atoms: C_3  and  O_6
REMARK    4  A    between atoms: C_4  and  O_8
REMARK    5  A    between atoms: C_11  and  C_12
REMARK    6  A    between atoms: C_12  and  O_13
REMARK    7  A    between atoms: C_12  and  C_15
REMARK    8  A    between atoms: C_15  and  O_16
REMARK    9  A    between atoms: O_16  and  C_18
REMARK   10  A    between atoms: C_22  and  C_23
REMARK   11  A    between atoms: C_24  and  C_25
REMARK   12  A    between atoms: C_25  and  C_26
REMARK   13  A    between atoms: C_26  and  C_27
REMARK   14  A    between atoms: C_27  and  C_29
REMARK   15  A    between atoms: C_29  and  O_30
REMARK                            x       y       z     vdW  Elec       q    Type
REMARK                         _______ _______ _______ _____ _____    ______ ____
ROOT
ATOM      1  C   UNL     1     -34.862  25.584   3.001  0.00  0.00    +0.038 C 
ATOM      2  C   UNL     1     -34.840  24.150   3.552  0.00  0.00    +0.051 C 
ATOM      3  C   UNL     1     -34.762  26.415   4.283  0.00  0.00    +0.114 C 
ATOM      4  C   UNL     1     -35.706  24.232   4.821  0.00  0.00    +0.117 C 
ATOM      5  C   UNL     1     -35.704  25.703   5.251  0.00  0.00    +0.059 C 
ENDROOT
BRANCH   3   6
ATOM      6  O   UNL     1     -35.178  27.753   4.085  0.00  0.00    -0.384 OA
ATOM      7  H   UNL     1     -34.840  28.307   4.807  0.00  0.00    +0.210 HD
ENDBRANCH   3   6
BRANCH   4   8
ATOM      8  O   UNL     1     -35.142  23.412   5.835  0.00  0.00    -0.384 OA
ATOM      9  H   UNL     1     -35.818  22.807   6.176  0.00  0.00    +0.210 HD
ENDBRANCH   4   8
BRANCH   2  10
ATOM     10  C   UNL     1     -35.342  23.124   2.586  0.00  0.00    -0.026 C 
ATOM     11  C   UNL     1     -35.793  21.914   2.949  0.00  0.00    +0.002 C 
BRANCH  11  12
ATOM     12  C   UNL     1     -36.296  20.885   1.975  0.00  0.00    +0.176 C 
BRANCH  12  13
ATOM     13  O   UNL     1     -36.762  19.770   2.731  0.00  0.00    -0.376 OA
ATOM     14  H   UNL     1     -37.002  19.048   2.128  0.00  0.00    +0.211 HD
ENDBRANCH  12  13
BRANCH  12  15
ATOM     15  C   UNL     1     -35.193  20.420   1.028  0.00  0.00    +0.239 C 
BRANCH  15  16
ATOM     16  O   UNL     1     -34.394  19.432   1.663  0.00  0.00    -0.472 OA
BRANCH  16  18
ATOM     17  S   UNL     1     -30.997  19.592  -0.169  0.00  0.00    -0.083 S 
ATOM     18  C   UNL     1     -33.145  19.218   1.141  0.00  0.00    +0.146 C 
ATOM     19  C   UNL     1     -32.366  18.068   1.382  0.00  0.00    +0.044 C 
ATOM     20  C   UNL     1     -32.545  20.131   0.326  0.00  0.00    +0.072 C 
ATOM     21  C   UNL     1     -31.158  18.139   0.723  0.00  0.00    +0.039 C 
ENDBRANCH  16  18
ENDBRANCH  15  16
ENDBRANCH  12  15
ENDBRANCH  11  12
ENDBRANCH   2  10
BRANCH   1  22
ATOM     22  C   UNL     1     -33.732  25.881   2.021  0.00  0.00    +0.028 C 
BRANCH  22  23
ATOM     23  C   UNL     1     -32.393  26.220   2.612  0.00  0.00    -0.031 C 
ATOM     24  C   UNL     1     -31.573  27.219   2.246  0.00  0.00    -0.031 C 
BRANCH  24  25
ATOM     25  C   UNL     1     -30.252  27.493   2.903  0.00  0.00    +0.026 C 
BRANCH  25  26
ATOM     26  C   UNL     1     -30.236  28.778   3.744  0.00  0.00    +0.016 C 
BRANCH  26  27
ATOM     27  C   UNL     1     -30.305  28.532   5.254  0.00  0.00    +0.110 C 
BRANCH  27  29
ATOM     28  O   UNL     1     -32.702  28.936   5.398  0.00  0.00    -0.250 OA
ATOM     29  C   UNL     1     -31.712  28.325   5.774  0.00  0.00    +0.314 C 
BRANCH  29  30
ATOM     30  O   UNL     1     -31.750  27.394   6.761  0.00  0.00    -0.480 OA
ATOM     31  H   UNL     1     -32.427  27.425   7.410  0.00  0.00    +0.295 HD
ENDBRANCH  29  30
ENDBRANCH  27  29
ENDBRANCH  26  27
ENDBRANCH  25  26
ENDBRANCH  24  25
ENDBRANCH  22  23
ENDBRANCH   1  22
TORSDOF 15
ENDMDL
MODEL 6
REMARK VINA RESULT:      -5.0      2.463      4.098
REMARK  Name = 51249
REMARK  15 active torsions:
REMARK  status: ('A' for Active; 'I' for Inactive)
REMARK    1  A    between atoms: C_1  and  C_22
REMARK    2  A    between atoms: C_2  and  C_10
REMARK    3  A    between atoms: C_3  and  O_6
REMARK    4  A    between atoms: C_4  and  O_8
REMARK    5  A    between atoms: C_11  and  C_12
REMARK    6  A    between atoms: C_12  and  O_13
REMARK    7  A    between atoms: C_12  and  C_15
REMARK    8  A    between atoms: C_15  and  O_16
REMARK    9  A    between atoms: O_16  and  C_18
REMARK   10  A    between atoms: C_22  and  C_23
REMARK   11  A    between atoms: C_24  and  C_25
REMARK   12  A    between atoms: C_25  and  C_26
REMARK   13  A    between atoms: C_26  and  C_27
REMARK   14  A    between atoms: C_27  and  C_29
REMARK   15  A    between atoms: C_29  and  O_30
REMARK                            x       y       z     vdW  Elec       q    Type
REMARK                         _______ _______ _______ _____ _____    ______ ____
ROOT
ATOM      1  C   UNL     1     -35.176  22.554   3.652  0.00  0.00    +0.038 C 
ATOM      2  C   UNL     1     -35.604  24.026   3.567  0.00  0.00    +0.051 C 
ATOM      3  C   UNL     1     -35.806  22.119   4.978  0.00  0.00    +0.114 C 
ATOM      4  C   UNL     1     -35.462  24.533   5.012  0.00  0.00    +0.117 C 
ATOM      5  C   UNL     1     -35.530  23.295   5.913  0.00  0.00    +0.059 C 
ENDROOT
BRANCH   3   6
ATOM      6  O   UNL     1     -35.217  20.937   5.487  0.00  0.00    -0.384 OA
ATOM      7  H   UNL     1     -35.457  20.833   6.422  0.00  0.00    +0.210 HD
ENDBRANCH   3   6
BRANCH   4   8
ATOM      8  O   UNL     1     -36.527  25.427   5.308  0.00  0.00    -0.384 OA
ATOM      9  H   UNL     1     -36.708  25.412   6.260  0.00  0.00    +0.210 HD
ENDBRANCH   4   8
BRANCH   2  10
ATOM     10  C   UNL     1     -34.798  24.834   2.599  0.00  0.00    -0.026 C 
ATOM     11  C   UNL     1     -33.673  25.486   2.926  0.00  0.00    +0.002 C 
BRANCH  11  12
ATOM     12  C   UNL     1     -32.865  26.298   1.952  0.00  0.00    +0.176 C 
BRANCH  12  13
ATOM     13  O   UNL     1     -31.800  25.475   1.485  0.00  0.00    -0.376 OA
ATOM     14  H   UNL     1     -31.089  26.033   1.133  0.00  0.00    +0.211 HD
ENDBRANCH  12  13
BRANCH  12  15
ATOM     15  C   UNL     1     -32.281  27.546   2.608  0.00  0.00    +0.239 C 
BRANCH  15  16
ATOM     16  O   UNL     1     -31.926  27.263   3.954  0.00  0.00    -0.472 OA
BRANCH  16  18
ATOM     17  S   UNL     1     -31.747  30.730   5.649  0.00  0.00    -0.083 S 
ATOM     18  C   UNL     1     -31.850  28.331   4.811  0.00  0.00    +0.146 C 
ATOM     19  C   UNL     1     -31.761  28.223   6.214  0.00  0.00    +0.044 C 
ATOM     20  C   UNL     1     -31.854  29.615   4.354  0.00  0.00    +0.072 C 
ATOM     21  C   UNL     1     -31.698  29.467   6.805  0.00  0.00    +0.039 C 
ENDBRANCH  16  18
ENDBRANCH  15  16
ENDBRANCH  12  15
ENDBRANCH  11  12
ENDBRANCH   2  10
BRANCH   1  22
ATOM     22  C   UNL     1     -35.650  21.708   2.474  0.00  0.00    +0.028 C 
BRANCH  22  23
ATOM     23  C   UNL     1     -36.940  22.117   1.821  0.00  0.00    -0.031 C 
ATOM     24  C   UNL     1     -38.185  21.846   2.244  0.00  0.00    -0.031 C 
BRANCH  24  25
ATOM     25  C   UNL     1     -39.424  22.307   1.532  0.00  0.00    +0.026 C 
BRANCH  25  26
ATOM     26  C   UNL     1     -39.677  23.816   1.648  0.00  0.00    +0.016 C 
BRANCH  26  27
ATOM     27  C   UNL     1     -39.403  24.386   3.043  0.00  0.00    +0.110 C 
BRANCH  27  29
ATOM     28  O   UNL     1     -38.102  26.426   2.761  0.00  0.00    -0.250 OA
ATOM     29  C   UNL     1     -39.157  25.880   3.053  0.00  0.00    +0.314 C 
BRANCH  29  30
ATOM     30  O   UNL     1     -40.250  26.566   3.476  0.00  0.00    -0.480 OA
ATOM     31  H   UNL     1     -40.537  27.326   3.007  0.00  0.00    +0.295 HD
ENDBRANCH  29  30
ENDBRANCH  27  29
ENDBRANCH  26  27
ENDBRANCH  25  26
ENDBRANCH  24  25
ENDBRANCH  22  23
ENDBRANCH   1  22
TORSDOF 15
ENDMDL
MODEL 7
REMARK VINA RESULT:      -5.0      2.900      5.958
REMARK  Name = 51249
REMARK  15 active torsions:
REMARK  status: ('A' for Active; 'I' for Inactive)
REMARK    1  A    between atoms: C_1  and  C_22
REMARK    2  A    between atoms: C_2  and  C_10
REMARK    3  A    between atoms: C_3  and  O_6
REMARK    4  A    between atoms: C_4  and  O_8
REMARK    5  A    between atoms: C_11  and  C_12
REMARK    6  A    between atoms: C_12  and  O_13
REMARK    7  A    between atoms: C_12  and  C_15
REMARK    8  A    between atoms: C_15  and  O_16
REMARK    9  A    between atoms: O_16  and  C_18
REMARK   10  A    between atoms: C_22  and  C_23
REMARK   11  A    between atoms: C_24  and  C_25
REMARK   12  A    between atoms: C_25  and  C_26
REMARK   13  A    between atoms: C_26  and  C_27
REMARK   14  A    between atoms: C_27  and  C_29
REMARK   15  A    between atoms: C_29  and  O_30
REMARK                            x       y       z     vdW  Elec       q    Type
REMARK                         _______ _______ _______ _____ _____    ______ ____
ROOT
ATOM      1  C   UNL     1     -35.060  21.305   1.312  0.00  0.00    +0.038 C 
ATOM      2  C   UNL     1     -34.830  22.823   1.367  0.00  0.00    +0.051 C 
ATOM      3  C   UNL     1     -33.724  20.804   0.758  0.00  0.00    +0.114 C 
ATOM      4  C   UNL     1     -34.051  23.121   0.074  0.00  0.00    +0.117 C 
ATOM      5  C   UNL     1     -33.392  21.804  -0.347  0.00  0.00    +0.059 C 
ENDROOT
BRANCH   3   6
ATOM      6  O   UNL     1     -33.823  19.496   0.227  0.00  0.00    -0.384 OA
ATOM      7  H   UNL     1     -34.193  19.538  -0.669  0.00  0.00    +0.210 HD
ENDBRANCH   3   6
BRANCH   4   8
ATOM      8  O   UNL     1     -33.067  24.114   0.332  0.00  0.00    -0.384 OA
ATOM      9  H   UNL     1     -32.533  23.850   1.097  0.00  0.00    +0.210 HD
ENDBRANCH   4   8
BRANCH   2  10
ATOM     10  C   UNL     1     -36.091  23.621   1.467  0.00  0.00    -0.026 C 
ATOM     11  C   UNL     1     -36.196  24.770   2.152  0.00  0.00    +0.002 C 
BRANCH  11  12
ATOM     12  C   UNL     1     -37.465  25.570   2.252  0.00  0.00    +0.176 C 
BRANCH  12  13
ATOM     13  O   UNL     1     -37.110  26.891   2.650  0.00  0.00    -0.376 OA
ATOM     14  H   UNL     1     -37.915  27.401   2.832  0.00  0.00    +0.211 HD
ENDBRANCH  12  13
BRANCH  12  15
ATOM     15  C   UNL     1     -38.423  24.978   3.283  0.00  0.00    +0.239 C 
BRANCH  15  16
ATOM     16  O   UNL     1     -39.704  24.791   2.700  0.00  0.00    -0.472 OA
BRANCH  16  18
ATOM     17  S   UNL     1     -39.753  21.378   0.892  0.00  0.00    -0.083 S 
ATOM     18  C   UNL     1     -39.842  23.740   1.831  0.00  0.00    +0.146 C 
ATOM     19  C   UNL     1     -40.371  23.845   0.529  0.00  0.00    +0.044 C 
ATOM     20  C   UNL     1     -39.464  22.476   2.174  0.00  0.00    +0.072 C 
ATOM     21  C   UNL     1     -40.383  22.620  -0.103  0.00  0.00    +0.039 C 
ENDBRANCH  16  18
ENDBRANCH  15  16
ENDBRANCH  12  15
ENDBRANCH  11  12
ENDBRANCH   2  10
BRANCH   1  22
ATOM     22  C   UNL     1     -35.402  20.688   2.665  0.00  0.00    +0.028 C 
BRANCH  22  23
ATOM     23  C   UNL     1     -35.525  21.631   3.829  0.00  0.00    -0.031 C 
ATOM     24  C   UNL     1     -35.122  21.418   5.091  0.00  0.00    -0.031 C 
BRANCH  24  25
ATOM     25  C   UNL     1     -35.274  22.425   6.194  0.00  0.00    +0.026 C 
BRANCH  25  26
ATOM     26  C   UNL     1     -35.621  23.836   5.698  0.00  0.00    +0.016 C 
BRANCH  26  27
ATOM     27  C   UNL     1     -34.405  24.655   5.255  0.00  0.00    +0.110 C 
BRANCH  27  29
ATOM     28  O   UNL     1     -33.669  26.909   5.810  0.00  0.00    -0.250 OA
ATOM     29  C   UNL     1     -34.562  26.145   5.473  0.00  0.00    +0.314 C 
BRANCH  29  30
ATOM     30  O   UNL     1     -35.847  26.546   5.291  0.00  0.00    -0.480 OA
ATOM     31  H   UNL     1     -36.197  26.620   4.424  0.00  0.00    +0.295 HD
ENDBRANCH  29  30
ENDBRANCH  27  29
ENDBRANCH  26  27
ENDBRANCH  25  26
ENDBRANCH  24  25
ENDBRANCH  22  23
ENDBRANCH   1  22
TORSDOF 15
ENDMDL
MODEL 8
REMARK VINA RESULT:      -5.0      2.070      3.912
REMARK  Name = 51249
REMARK  15 active torsions:
REMARK  status: ('A' for Active; 'I' for Inactive)
REMARK    1  A    between atoms: C_1  and  C_22
REMARK    2  A    between atoms: C_2  and  C_10
REMARK    3  A    between atoms: C_3  and  O_6
REMARK    4  A    between atoms: C_4  and  O_8
REMARK    5  A    between atoms: C_11  and  C_12
REMARK    6  A    between atoms: C_12  and  O_13
REMARK    7  A    between atoms: C_12  and  C_15
REMARK    8  A    between atoms: C_15  and  O_16
REMARK    9  A    between atoms: O_16  and  C_18
REMARK   10  A    between atoms: C_22  and  C_23
REMARK   11  A    between atoms: C_24  and  C_25
REMARK   12  A    between atoms: C_25  and  C_26
REMARK   13  A    between atoms: C_26  and  C_27
REMARK   14  A    between atoms: C_27  and  C_29
REMARK   15  A    between atoms: C_29  and  O_30
REMARK                            x       y       z     vdW  Elec       q    Type
REMARK                         _______ _______ _______ _____ _____    ______ ____
ROOT
ATOM      1  C   UNL     1     -37.070  22.539   2.215  0.00  0.00    +0.038 C 
ATOM      2  C   UNL     1     -36.481  22.605   3.632  0.00  0.00    +0.051 C 
ATOM      3  C   UNL     1     -37.057  21.033   1.939  0.00  0.00    +0.114 C 
ATOM      4  C   UNL     1     -35.361  21.551   3.612  0.00  0.00    +0.117 C 
ATOM      5  C   UNL     1     -35.704  20.577   2.480  0.00  0.00    +0.059 C 
ENDROOT
BRANCH   3   6
ATOM      6  O   UNL     1     -37.159  20.742   0.558  0.00  0.00    -0.384 OA
ATOM      7  H   UNL     1     -36.270  20.665   0.177  0.00  0.00    +0.210 HD
ENDBRANCH   3   6
BRANCH   4   8
ATOM      8  O   UNL     1     -35.324  20.875   4.862  0.00  0.00    -0.384 OA
ATOM      9  H   UNL     1     -36.037  20.218   4.895  0.00  0.00    +0.210 HD
ENDBRANCH   4   8
BRANCH   2  10
ATOM     10  C   UNL     1     -35.979  23.962   4.014  0.00  0.00    -0.026 C 
ATOM     11  C   UNL     1     -35.923  24.409   5.277  0.00  0.00    +0.002 C 
BRANCH  11  12
ATOM     12  C   UNL     1     -35.418  25.773   5.658  0.00  0.00    +0.176 C 
BRANCH  12  13
ATOM     13  O   UNL     1     -36.363  26.729   5.186  0.00  0.00    -0.376 OA
ATOM     14  H   UNL     1     -35.905  27.405   4.661  0.00  0.00    +0.211 HD
ENDBRANCH  12  13
BRANCH  12  15
ATOM     15  C   UNL     1     -34.057  26.064   5.030  0.00  0.00    +0.239 C 
BRANCH  15  16
ATOM     16  O   UNL     1     -33.839  27.466   4.977  0.00  0.00    -0.472 OA
BRANCH  16  18
ATOM     17  S   UNL     1     -30.195  28.680   4.563  0.00  0.00    -0.083 S 
ATOM     18  C   UNL     1     -32.547  27.899   5.134  0.00  0.00    +0.146 C 
ATOM     19  C   UNL     1     -31.923  28.115   6.378  0.00  0.00    +0.044 C 
ATOM     20  C   UNL     1     -31.748  28.159   4.061  0.00  0.00    +0.072 C 
ATOM     21  C   UNL     1     -30.625  28.547   6.215  0.00  0.00    +0.039 C 
ENDBRANCH  16  18
ENDBRANCH  15  16
ENDBRANCH  12  15
ENDBRANCH  11  12
ENDBRANCH   2  10
BRANCH   1  22
ATOM     22  C   UNL     1     -38.466  23.143   2.102  0.00  0.00    +0.028 C 
BRANCH  22  23
ATOM     23  C   UNL     1     -38.603  24.384   1.265  0.00  0.00    -0.031 C 
ATOM     24  C   UNL     1     -38.309  25.643   1.626  0.00  0.00    -0.031 C 
BRANCH  24  25
ATOM     25  C   UNL     1     -38.466  26.827   0.717  0.00  0.00    +0.026 C 
BRANCH  25  26
ATOM     26  C   UNL     1     -37.265  27.783   0.736  0.00  0.00    +0.016 C 
BRANCH  26  27
ATOM     27  C   UNL     1     -36.213  27.437   1.794  0.00  0.00    +0.110 C 
BRANCH  27  29
ATOM     28  O   UNL     1     -34.403  28.986   1.286  0.00  0.00    -0.250 OA
ATOM     29  C   UNL     1     -35.237  28.561   2.073  0.00  0.00    +0.314 C 
BRANCH  29  30
ATOM     30  O   UNL     1     -35.361  29.029   3.342  0.00  0.00    -0.480 OA
ATOM     31  H   UNL     1     -35.208  29.937   3.523  0.00  0.00    +0.295 HD
ENDBRANCH  29  30
ENDBRANCH  27  29
ENDBRANCH  26  27
ENDBRANCH  25  26
ENDBRANCH  24  25
ENDBRANCH  22  23
ENDBRANCH   1  22
TORSDOF 15
ENDMDL
MODEL 9
REMARK VINA RESULT:      -5.0      2.999      6.401
REMARK  Name = 51249
REMARK  15 active torsions:
REMARK  status: ('A' for Active; 'I' for Inactive)
REMARK    1  A    between atoms: C_1  and  C_22
REMARK    2  A    between atoms: C_2  and  C_10
REMARK    3  A    between atoms: C_3  and  O_6
REMARK    4  A    between atoms: C_4  and  O_8
REMARK    5  A    between atoms: C_11  and  C_12
REMARK    6  A    between atoms: C_12  and  O_13
REMARK    7  A    between atoms: C_12  and  C_15
REMARK    8  A    between atoms: C_15  and  O_16
REMARK    9  A    between atoms: O_16  and  C_18
REMARK   10  A    between atoms: C_22  and  C_23
REMARK   11  A    between atoms: C_24  and  C_25
REMARK   12  A    between atoms: C_25  and  C_26
REMARK   13  A    between atoms: C_26  and  C_27
REMARK   14  A    between atoms: C_27  and  C_29
REMARK   15  A    between atoms: C_29  and  O_30
REMARK                            x       y       z     vdW  Elec       q    Type
REMARK                         _______ _______ _______ _____ _____    ______ ____
ROOT
ATOM      1  C   UNL     1     -34.481  26.115   3.943  0.00  0.00    +0.038 C 
ATOM      2  C   UNL     1     -35.828  26.769   3.600  0.00  0.00    +0.051 C 
ATOM      3  C   UNL     1     -33.485  27.164   3.443  0.00  0.00    +0.114 C 
ATOM      4  C   UNL     1     -35.582  27.412   2.224  0.00  0.00    +0.117 C 
ATOM      5  C   UNL     1     -34.067  27.607   2.102  0.00  0.00    +0.059 C 
ENDROOT
BRANCH   3   6
ATOM      6  O   UNL     1     -32.188  26.627   3.264  0.00  0.00    -0.384 OA
ATOM      7  H   UNL     1     -31.962  26.636   2.321  0.00  0.00    +0.210 HD
ENDBRANCH   3   6
BRANCH   4   8
ATOM      8  O   UNL     1     -36.255  28.661   2.157  0.00  0.00    -0.384 OA
ATOM      9  H   UNL     1     -36.424  28.987   3.055  0.00  0.00    +0.210 HD
ENDBRANCH   4   8
BRANCH   2  10
ATOM     10  C   UNL     1     -36.977  25.811   3.582  0.00  0.00    -0.026 C 
ATOM     11  C   UNL     1     -37.936  25.811   2.644  0.00  0.00    +0.002 C 
BRANCH  11  12
ATOM     12  C   UNL     1     -39.090  24.848   2.630  0.00  0.00    +0.176 C 
BRANCH  12  13
ATOM     13  O   UNL     1     -39.619  24.791   3.952  0.00  0.00    -0.376 OA
ATOM     14  H   UNL     1     -38.935  25.058   4.586  0.00  0.00    +0.211 HD
ENDBRANCH  12  13
BRANCH  12  15
ATOM     15  C   UNL     1     -38.649  23.449   2.207  0.00  0.00    +0.239 C 
BRANCH  15  16
ATOM     16  O   UNL     1     -38.975  23.231   0.843  0.00  0.00    -0.472 OA
BRANCH  16  18
ATOM     17  S   UNL     1     -38.366  19.666  -0.514  0.00  0.00    -0.083 S 
ATOM     18  C   UNL     1     -38.495  22.083   0.267  0.00  0.00    +0.146 C 
ATOM     19  C   UNL     1     -37.245  21.973  -0.374  0.00  0.00    +0.044 C 
ATOM     20  C   UNL     1     -39.216  20.926   0.274  0.00  0.00    +0.072 C 
ATOM     21  C   UNL     1     -37.042  20.697  -0.853  0.00  0.00    +0.039 C 
ENDBRANCH  16  18
ENDBRANCH  15  16
ENDBRANCH  12  15
ENDBRANCH  11  12
ENDBRANCH   2  10
BRANCH   1  22
ATOM     22  C   UNL     1     -34.310  25.805   5.427  0.00  0.00    +0.028 C 
BRANCH  22  23
ATOM     23  C   UNL     1     -34.390  24.360   5.832  0.00  0.00    -0.031 C 
ATOM     24  C   UNL     1     -35.478  23.573   5.821  0.00  0.00    -0.031 C 
BRANCH  24  25
ATOM     25  C   UNL     1     -35.465  22.130   6.234  0.00  0.00    +0.026 C 
BRANCH  25  26
ATOM     26  C   UNL     1     -35.132  21.164   5.088  0.00  0.00    +0.016 C 
BRANCH  26  27
ATOM     27  C   UNL     1     -35.552  21.672   3.706  0.00  0.00    +0.110 C 
BRANCH  27  29
ATOM     28  O   UNL     1     -34.718  20.435   1.780  0.00  0.00    -0.250 OA
ATOM     29  C   UNL     1     -35.572  20.596   2.641  0.00  0.00    +0.314 C 
BRANCH  29  30
ATOM     30  O   UNL     1     -36.693  19.833   2.719  0.00  0.00    -0.480 OA
ATOM     31  H   UNL     1     -36.791  19.084   2.162  0.00  0.00    +0.295 HD
ENDBRANCH  29  30
ENDBRANCH  27  29
ENDBRANCH  26  27
ENDBRANCH  25  26
ENDBRANCH  24  25
ENDBRANCH  22  23
ENDBRANCH   1  22
TORSDOF 15
ENDMDL
