MODEL 1
REMARK VINA RESULT:      -6.5      0.000      0.000
REMARK  Name = 5280699
REMARK  7 active torsions:
REMARK  status: ('A' for Active; 'I' for Inactive)
REMARK    1  A    between atoms: C_5  and  C_12
REMARK    2  A    between atoms: C_6  and  O_22
REMARK    3  A    between atoms: C_8  and  O_28
REMARK    4  A    between atoms: C_10  and  O_24
REMARK    5  A    between atoms: C_11  and  O_26
REMARK    6  A    between atoms: C_15  and  O_18
REMARK    7  A    between atoms: C_17  and  O_20
REMARK                            x       y       z     vdW  Elec       q    Type
REMARK                         _______ _______ _______ _____ _____    ______ ____
ROOT
ATOM      1  O   UNL     1     -33.030  26.575   4.978  0.00  0.00    -0.450 OA
ATOM      2  O   UNL     1     -35.477  28.505   2.354  0.00  0.00    -0.283 OA
ATOM      3  C   UNL     1     -35.146  26.666   3.794  0.00  0.00    +0.113 A 
ATOM      4  C   UNL     1     -34.263  26.054   4.680  0.00  0.00    +0.155 A 
ATOM      5  C   UNL     1     -32.653  27.767   4.381  0.00  0.00    +0.182 A 
ATOM      6  C   UNL     1     -33.407  28.452   3.502  0.00  0.00    +0.212 A 
ATOM      7  C   UNL     1     -34.746  27.925   3.146  0.00  0.00    +0.238 A 
ATOM      8  C   UNL     1     -36.391  26.089   3.526  0.00  0.00    +0.177 C 
ATOM      9  C   UNL     1     -34.618  24.859   5.305  0.00  0.00    +0.078 C 
ATOM     10  C   UNL     1     -36.743  24.894   4.153  0.00  0.00    +0.206 C 
ATOM     11  C   UNL     1     -35.859  24.280   5.041  0.00  0.00    +0.178 C 
ENDROOT
BRANCH   5  12
ATOM     12  C   UNL     1     -31.308  28.212   4.787  0.00  0.00    +0.041 C 
ATOM     13  C   UNL     1     -31.069  28.596   6.107  0.00  0.00    +0.043 C 
ATOM     14  C   UNL     1     -30.273  28.252   3.852  0.00  0.00    +0.006 C 
ATOM     15  C   UNL     1     -29.797  29.018   6.492  0.00  0.00    +0.168 C 
ATOM     16  C   UNL     1     -29.001  28.674   4.236  0.00  0.00    +0.040 C 
ATOM     17  C   UNL     1     -28.762  29.057   5.556  0.00  0.00    +0.167 C 
BRANCH  15  18
ATOM     18  O   UNL     1     -29.576  29.391   7.783  0.00  0.00    -0.503 OA
ATOM     19  H   UNL     1     -29.955  28.897   8.484  0.00  0.00    +0.292 HD
ENDBRANCH  15  18
BRANCH  17  20
ATOM     20  O   UNL     1     -27.515  29.467   5.919  0.00  0.00    -0.503 OA
ATOM     21  H   UNL     1     -26.770  29.199   5.419  0.00  0.00    +0.292 HD
ENDBRANCH  17  20
ENDBRANCH   5  12
BRANCH   6  22
ATOM     22  O   UNL     1     -32.988  29.618   2.901  0.00  0.00    -0.465 OA
ATOM     23  C   UNL     1     -33.379  30.746   3.661  0.00  0.00    +0.253 C 
ENDBRANCH   6  22
BRANCH  10  24
ATOM     24  O   UNL     1     -37.955  24.321   3.901  0.00  0.00    -0.465 OA
ATOM     25  C   UNL     1     -38.025  23.408   2.809  0.00  0.00    +0.253 C 
ENDBRANCH  10  24
BRANCH  11  26
ATOM     26  O   UNL     1     -36.196  23.113   5.658  0.00  0.00    -0.468 OA
ATOM     27  C   UNL     1     -35.126  22.292   6.120  0.00  0.00    +0.253 C 
ENDBRANCH  11  26
BRANCH   8  28
ATOM     28  O   UNL     1     -37.283  26.657   2.665  0.00  0.00    -0.503 OA
ATOM     29  H   UNL     1     -38.152  26.855   2.954  0.00  0.00    +0.292 HD
ENDBRANCH   8  28
TORSDOF 7
ENDMDL
MODEL 2
REMARK VINA RESULT:      -6.2      4.024      6.757
REMARK  Name = 5280699
REMARK  7 active torsions:
REMARK  status: ('A' for Active; 'I' for Inactive)
REMARK    1  A    between atoms: C_5  and  C_12
REMARK    2  A    between atoms: C_6  and  O_22
REMARK    3  A    between atoms: C_8  and  O_28
REMARK    4  A    between atoms: C_10  and  O_24
REMARK    5  A    between atoms: C_11  and  O_26
REMARK    6  A    between atoms: C_15  and  O_18
REMARK    7  A    between atoms: C_17  and  O_20
REMARK                            x       y       z     vdW  Elec       q    Type
REMARK                         _______ _______ _______ _____ _____    ______ ____
ROOT
ATOM      1  O   UNL     1     -35.222  22.116   2.540  0.00  0.00    -0.450 OA
ATOM      2  O   UNL     1     -39.225  21.993   1.792  0.00  0.00    -0.283 OA
ATOM      3  C   UNL     1     -37.099  21.032   1.449  0.00  0.00    +0.113 A 
ATOM      4  C   UNL     1     -35.741  21.130   1.741  0.00  0.00    +0.155 A 
ATOM      5  C   UNL     1     -36.090  23.047   3.091  0.00  0.00    +0.182 A 
ATOM      6  C   UNL     1     -37.419  23.069   2.880  0.00  0.00    +0.212 A 
ATOM      7  C   UNL     1     -38.023  22.025   2.019  0.00  0.00    +0.238 A 
ATOM      8  C   UNL     1     -37.572  20.006   0.626  0.00  0.00    +0.177 C 
ATOM      9  C   UNL     1     -34.844  20.203   1.211  0.00  0.00    +0.078 C 
ATOM     10  C   UNL     1     -36.673  19.080   0.098  0.00  0.00    +0.206 C 
ATOM     11  C   UNL     1     -35.312  19.177   0.389  0.00  0.00    +0.178 C 
ENDROOT
BRANCH   5  12
ATOM     12  C   UNL     1     -35.403  24.048   3.926  0.00  0.00    +0.041 C 
ATOM     13  C   UNL     1     -34.366  24.812   3.388  0.00  0.00    +0.043 C 
ATOM     14  C   UNL     1     -35.787  24.232   5.255  0.00  0.00    +0.006 C 
ATOM     15  C   UNL     1     -33.715  25.758   4.179  0.00  0.00    +0.168 C 
ATOM     16  C   UNL     1     -35.137  25.179   6.044  0.00  0.00    +0.040 C 
ATOM     17  C   UNL     1     -34.100  25.942   5.507  0.00  0.00    +0.167 C 
BRANCH  15  18
ATOM     18  O   UNL     1     -32.704  26.499   3.644  0.00  0.00    -0.503 OA
ATOM     19  H   UNL     1     -31.855  26.118   3.530  0.00  0.00    +0.292 HD
ENDBRANCH  15  18
BRANCH  17  20
ATOM     20  O   UNL     1     -33.473  26.864   6.290  0.00  0.00    -0.503 OA
ATOM     21  H   UNL     1     -33.434  27.760   6.018  0.00  0.00    +0.292 HD
ENDBRANCH  17  20
ENDBRANCH   5  12
BRANCH   6  22
ATOM     22  O   UNL     1     -38.249  24.028   3.416  0.00  0.00    -0.465 OA
ATOM     23  C   UNL     1     -38.381  25.130   2.538  0.00  0.00    +0.253 C 
ENDBRANCH   6  22
BRANCH  10  24
ATOM     24  O   UNL     1     -37.122  18.073  -0.706  0.00  0.00    -0.465 OA
ATOM     25  C   UNL     1     -37.480  16.848  -0.071  0.00  0.00    +0.253 C 
ENDBRANCH  10  24
BRANCH  11  26
ATOM     26  O   UNL     1     -34.427  18.275  -0.122  0.00  0.00    -0.468 OA
ATOM     27  C   UNL     1     -33.379  17.837   0.739  0.00  0.00    +0.253 C 
ENDBRANCH  11  26
BRANCH   8  28
ATOM     28  O   UNL     1     -38.894  19.876   0.317  0.00  0.00    -0.503 OA
ATOM     29  H   UNL     1     -39.544  20.263   0.869  0.00  0.00    +0.292 HD
ENDBRANCH   8  28
TORSDOF 7
ENDMDL
MODEL 3
REMARK VINA RESULT:      -6.1      3.066      7.160
REMARK  Name = 5280699
REMARK  7 active torsions:
REMARK  status: ('A' for Active; 'I' for Inactive)
REMARK    1  A    between atoms: C_5  and  C_12
REMARK    2  A    between atoms: C_6  and  O_22
REMARK    3  A    between atoms: C_8  and  O_28
REMARK    4  A    between atoms: C_10  and  O_24
REMARK    5  A    between atoms: C_11  and  O_26
REMARK    6  A    between atoms: C_15  and  O_18
REMARK    7  A    between atoms: C_17  and  O_20
REMARK                            x       y       z     vdW  Elec       q    Type
REMARK                         _______ _______ _______ _____ _____    ______ ____
ROOT
ATOM      1  O   UNL     1     -35.046  26.252   3.260  0.00  0.00    -0.450 OA
ATOM      2  O   UNL     1     -38.398  27.166   1.132  0.00  0.00    -0.283 OA
ATOM      3  C   UNL     1     -36.268  27.838   1.888  0.00  0.00    +0.113 A 
ATOM      4  C   UNL     1     -35.150  27.466   2.632  0.00  0.00    +0.155 A 
ATOM      5  C   UNL     1     -36.094  25.352   3.140  0.00  0.00    +0.182 A 
ATOM      6  C   UNL     1     -37.230  25.591   2.459  0.00  0.00    +0.212 A 
ATOM      7  C   UNL     1     -37.388  26.892   1.767  0.00  0.00    +0.238 A 
ATOM      8  C   UNL     1     -36.319  29.089   1.269  0.00  0.00    +0.177 C 
ATOM      9  C   UNL     1     -34.075  28.345   2.763  0.00  0.00    +0.078 C 
ATOM     10  C   UNL     1     -35.243  29.967   1.401  0.00  0.00    +0.206 C 
ATOM     11  C   UNL     1     -34.123  29.596   2.147  0.00  0.00    +0.178 C 
ENDROOT
BRANCH   5  12
ATOM     12  C   UNL     1     -35.853  24.091   3.863  0.00  0.00    +0.041 C 
ATOM     13  C   UNL     1     -35.876  22.877   3.175  0.00  0.00    +0.043 C 
ATOM     14  C   UNL     1     -35.605  24.110   5.236  0.00  0.00    +0.006 C 
ATOM     15  C   UNL     1     -35.650  21.684   3.860  0.00  0.00    +0.168 C 
ATOM     16  C   UNL     1     -35.378  22.916   5.920  0.00  0.00    +0.040 C 
ATOM     17  C   UNL     1     -35.400  21.703   5.233  0.00  0.00    +0.167 C 
BRANCH  15  18
ATOM     18  O   UNL     1     -35.674  20.504   3.178  0.00  0.00    -0.503 OA
ATOM     19  H   UNL     1     -34.965  20.278   2.609  0.00  0.00    +0.292 HD
ENDBRANCH  15  18
BRANCH  17  20
ATOM     20  O   UNL     1     -35.177  20.543   5.912  0.00  0.00    -0.503 OA
ATOM     21  H   UNL     1     -34.361  20.093   5.816  0.00  0.00    +0.292 HD
ENDBRANCH  17  20
ENDBRANCH   5  12
BRANCH   6  22
ATOM     22  O   UNL     1     -38.266  24.687   2.386  0.00  0.00    -0.465 OA
ATOM     23  C   UNL     1     -39.253  24.970   3.361  0.00  0.00    +0.253 C 
ENDBRANCH   6  22
BRANCH  10  24
ATOM     24  O   UNL     1     -35.281  31.191   0.802  0.00  0.00    -0.465 OA
ATOM     25  C   UNL     1     -35.812  32.270   1.567  0.00  0.00    +0.253 C 
ENDBRANCH  10  24
BRANCH  11  26
ATOM     26  O   UNL     1     -33.067  30.446   2.281  0.00  0.00    -0.468 OA
ATOM     27  C   UNL     1     -32.789  30.933   3.592  0.00  0.00    +0.253 C 
ENDBRANCH  11  26
BRANCH   8  28
ATOM     28  O   UNL     1     -37.395  29.490   0.532  0.00  0.00    -0.503 OA
ATOM     29  H   UNL     1     -37.267  29.985  -0.253  0.00  0.00    +0.292 HD
ENDBRANCH   8  28
TORSDOF 7
ENDMDL
MODEL 4
REMARK VINA RESULT:      -6.1      2.457      8.251
REMARK  Name = 5280699
REMARK  7 active torsions:
REMARK  status: ('A' for Active; 'I' for Inactive)
REMARK    1  A    between atoms: C_5  and  C_12
REMARK    2  A    between atoms: C_6  and  O_22
REMARK    3  A    between atoms: C_8  and  O_28
REMARK    4  A    between atoms: C_10  and  O_24
REMARK    5  A    between atoms: C_11  and  O_26
REMARK    6  A    between atoms: C_15  and  O_18
REMARK    7  A    between atoms: C_17  and  O_20
REMARK                            x       y       z     vdW  Elec       q    Type
REMARK                         _______ _______ _______ _____ _____    ______ ____
ROOT
ATOM      1  O   UNL     1     -35.907  25.571   2.387  0.00  0.00    -0.450 OA
ATOM      2  O   UNL     1     -34.356  25.843   6.145  0.00  0.00    -0.283 OA
ATOM      3  C   UNL     1     -34.395  26.668   3.936  0.00  0.00    +0.113 A 
ATOM      4  C   UNL     1     -34.962  26.523   2.672  0.00  0.00    +0.155 A 
ATOM      5  C   UNL     1     -36.324  24.727   3.404  0.00  0.00    +0.182 A 
ATOM      6  C   UNL     1     -35.849  24.757   4.663  0.00  0.00    +0.212 A 
ATOM      7  C   UNL     1     -34.823  25.766   5.017  0.00  0.00    +0.238 A 
ATOM      8  C   UNL     1     -33.435  27.656   4.169  0.00  0.00    +0.177 C 
ATOM      9  C   UNL     1     -34.572  27.365   1.631  0.00  0.00    +0.078 C 
ATOM     10  C   UNL     1     -33.046  28.497   3.126  0.00  0.00    +0.206 C 
ATOM     11  C   UNL     1     -33.613  28.352   1.859  0.00  0.00    +0.178 C 
ENDROOT
BRANCH   5  12
ATOM     12  C   UNL     1     -37.339  23.754   2.963  0.00  0.00    +0.041 C 
ATOM     13  C   UNL     1     -36.967  22.440   2.676  0.00  0.00    +0.043 C 
ATOM     14  C   UNL     1     -38.672  24.146   2.830  0.00  0.00    +0.006 C 
ATOM     15  C   UNL     1     -37.928  21.519   2.256  0.00  0.00    +0.168 C 
ATOM     16  C   UNL     1     -39.632  23.226   2.413  0.00  0.00    +0.040 C 
ATOM     17  C   UNL     1     -39.260  21.912   2.125  0.00  0.00    +0.167 C 
BRANCH  15  18
ATOM     18  O   UNL     1     -37.553  20.239   1.979  0.00  0.00    -0.503 OA
ATOM     19  H   UNL     1     -37.452  19.620   2.675  0.00  0.00    +0.292 HD
ENDBRANCH  15  18
BRANCH  17  20
ATOM     20  O   UNL     1     -40.208  21.022   1.717  0.00  0.00    -0.503 OA
ATOM     21  H   UNL     1     -41.049  21.012   2.129  0.00  0.00    +0.292 HD
ENDBRANCH  17  20
ENDBRANCH   5  12
BRANCH   6  22
ATOM     22  O   UNL     1     -36.262  23.881   5.643  0.00  0.00    -0.465 OA
ATOM     23  C   UNL     1     -35.312  22.849   5.830  0.00  0.00    +0.253 C 
ENDBRANCH   6  22
BRANCH  10  24
ATOM     24  O   UNL     1     -32.109  29.465   3.341  0.00  0.00    -0.465 OA
ATOM     25  C   UNL     1     -32.584  30.743   3.756  0.00  0.00    +0.253 C 
ENDBRANCH  10  24
BRANCH  11  26
ATOM     26  O   UNL     1     -33.240  29.169   0.835  0.00  0.00    -0.468 OA
ATOM     27  C   UNL     1     -34.213  30.095   0.358  0.00  0.00    +0.253 C 
ENDBRANCH  11  26
BRANCH   8  28
ATOM     28  O   UNL     1     -32.856  27.831   5.392  0.00  0.00    -0.503 OA
ATOM     29  H   UNL     1     -32.934  27.165   6.046  0.00  0.00    +0.292 HD
ENDBRANCH   8  28
TORSDOF 7
ENDMDL
MODEL 5
REMARK VINA RESULT:      -6.0      5.915      9.220
REMARK  Name = 5280699
REMARK  7 active torsions:
REMARK  status: ('A' for Active; 'I' for Inactive)
REMARK    1  A    between atoms: C_5  and  C_12
REMARK    2  A    between atoms: C_6  and  O_22
REMARK    3  A    between atoms: C_8  and  O_28
REMARK    4  A    between atoms: C_10  and  O_24
REMARK    5  A    between atoms: C_11  and  O_26
REMARK    6  A    between atoms: C_15  and  O_18
REMARK    7  A    between atoms: C_17  and  O_20
REMARK                            x       y       z     vdW  Elec       q    Type
REMARK                         _______ _______ _______ _____ _____    ______ ____
ROOT
ATOM      1  O   UNL     1     -34.447  20.020   2.126  0.00  0.00    -0.450 OA
ATOM      2  O   UNL     1     -37.003  21.412  -0.724  0.00  0.00    -0.283 OA
ATOM      3  C   UNL     1     -36.245  21.527   1.506  0.00  0.00    +0.113 A 
ATOM      4  C   UNL     1     -35.346  21.008   2.435  0.00  0.00    +0.155 A 
ATOM      5  C   UNL     1     -34.423  19.528   0.831  0.00  0.00    +0.182 A 
ATOM      6  C   UNL     1     -35.242  19.936  -0.156  0.00  0.00    +0.212 A 
ATOM      7  C   UNL     1     -36.234  20.999   0.133  0.00  0.00    +0.238 A 
ATOM      8  C   UNL     1     -37.141  22.533   1.877  0.00  0.00    +0.177 C 
ATOM      9  C   UNL     1     -35.339  21.490   3.743  0.00  0.00    +0.078 C 
ATOM     10  C   UNL     1     -37.131  23.014   3.186  0.00  0.00    +0.206 C 
ATOM     11  C   UNL     1     -36.231  22.494   4.118  0.00  0.00    +0.178 C 
ENDROOT
BRANCH   5  12
ATOM     12  C   UNL     1     -33.412  18.473   0.636  0.00  0.00    +0.041 C 
ATOM     13  C   UNL     1     -33.808  17.189   0.259  0.00  0.00    +0.043 C 
ATOM     14  C   UNL     1     -32.060  18.756   0.831  0.00  0.00    +0.006 C 
ATOM     15  C   UNL     1     -32.852  16.190   0.076  0.00  0.00    +0.168 C 
ATOM     16  C   UNL     1     -31.104  17.758   0.647  0.00  0.00    +0.040 C 
ATOM     17  C   UNL     1     -31.499  16.475   0.270  0.00  0.00    +0.167 C 
BRANCH  15  18
ATOM     18  O   UNL     1     -33.249  14.940  -0.293  0.00  0.00    -0.503 OA
ATOM     19  H   UNL     1     -33.201  14.234   0.321  0.00  0.00    +0.292 HD
ENDBRANCH  15  18
BRANCH  17  20
ATOM     20  O   UNL     1     -30.556  15.508   0.094  0.00  0.00    -0.503 OA
ATOM     21  H   UNL     1     -30.485  15.067  -0.730  0.00  0.00    +0.292 HD
ENDBRANCH  17  20
ENDBRANCH   5  12
BRANCH   6  22
ATOM     22  O   UNL     1     -35.214  19.402  -1.425  0.00  0.00    -0.465 OA
ATOM     23  C   UNL     1     -34.354  20.146  -2.267  0.00  0.00    +0.253 C 
ENDBRANCH   6  22
BRANCH  10  24
ATOM     24  O   UNL     1     -38.000  23.996   3.561  0.00  0.00    -0.465 OA
ATOM     25  C   UNL     1     -37.540  25.342   3.458  0.00  0.00    +0.253 C 
ENDBRANCH  10  24
BRANCH  11  26
ATOM     26  O   UNL     1     -36.214  22.959   5.399  0.00  0.00    -0.468 OA
ATOM     27  C   UNL     1     -35.489  22.191   6.356  0.00  0.00    +0.253 C 
ENDBRANCH  11  26
BRANCH   8  28
ATOM     28  O   UNL     1     -38.035  23.068   0.997  0.00  0.00    -0.503 OA
ATOM     29  H   UNL     1     -38.941  23.129   1.229  0.00  0.00    +0.292 HD
ENDBRANCH   8  28
TORSDOF 7
ENDMDL
MODEL 6
REMARK VINA RESULT:      -6.0      5.755      8.750
REMARK  Name = 5280699
REMARK  7 active torsions:
REMARK  status: ('A' for Active; 'I' for Inactive)
REMARK    1  A    between atoms: C_5  and  C_12
REMARK    2  A    between atoms: C_6  and  O_22
REMARK    3  A    between atoms: C_8  and  O_28
REMARK    4  A    between atoms: C_10  and  O_24
REMARK    5  A    between atoms: C_11  and  O_26
REMARK    6  A    between atoms: C_15  and  O_18
REMARK    7  A    between atoms: C_17  and  O_20
REMARK                            x       y       z     vdW  Elec       q    Type
REMARK                         _______ _______ _______ _____ _____    ______ ____
ROOT
ATOM      1  O   UNL     1     -34.542  20.832   1.734  0.00  0.00    -0.450 OA
ATOM      2  O   UNL     1     -37.747  19.044  -0.035  0.00  0.00    -0.283 OA
ATOM      3  C   UNL     1     -36.942  20.744   1.388  0.00  0.00    +0.113 A 
ATOM      4  C   UNL     1     -35.807  21.309   1.964  0.00  0.00    +0.155 A 
ATOM      5  C   UNL     1     -34.387  19.750   0.883  0.00  0.00    +0.182 A 
ATOM      6  C   UNL     1     -35.400  19.109   0.272  0.00  0.00    +0.212 A 
ATOM      7  C   UNL     1     -36.786  19.586   0.494  0.00  0.00    +0.238 A 
ATOM      8  C   UNL     1     -38.208  21.271   1.659  0.00  0.00    +0.177 C 
ATOM      9  C   UNL     1     -35.929  22.406   2.817  0.00  0.00    +0.078 C 
ATOM     10  C   UNL     1     -38.327  22.368   2.512  0.00  0.00    +0.206 C 
ATOM     11  C   UNL     1     -37.190  22.935   3.090  0.00  0.00    +0.178 C 
ENDROOT
BRANCH   5  12
ATOM     12  C   UNL     1     -32.980  19.340   0.725  0.00  0.00    +0.041 C 
ATOM     13  C   UNL     1     -32.105  20.125  -0.028  0.00  0.00    +0.043 C 
ATOM     14  C   UNL     1     -32.522  18.167   1.326  0.00  0.00    +0.006 C 
ATOM     15  C   UNL     1     -30.774  19.737  -0.178  0.00  0.00    +0.168 C 
ATOM     16  C   UNL     1     -31.191  17.780   1.176  0.00  0.00    +0.040 C 
ATOM     17  C   UNL     1     -30.317  18.564   0.424  0.00  0.00    +0.167 C 
BRANCH  15  18
ATOM     18  O   UNL     1     -29.929  20.511  -0.915  0.00  0.00    -0.503 OA
ATOM     19  H   UNL     1     -29.657  20.227  -1.766  0.00  0.00    +0.292 HD
ENDBRANCH  15  18
BRANCH  17  20
ATOM     20  O   UNL     1     -29.019  18.175   0.285  0.00  0.00    -0.503 OA
ATOM     21  H   UNL     1     -28.502  18.512  -0.420  0.00  0.00    +0.292 HD
ENDBRANCH  17  20
ENDBRANCH   5  12
BRANCH   6  22
ATOM     22  O   UNL     1     -35.214  18.014  -0.544  0.00  0.00    -0.465 OA
ATOM     23  C   UNL     1     -35.064  18.410  -1.894  0.00  0.00    +0.253 C 
ENDBRANCH   6  22
BRANCH  10  24
ATOM     24  O   UNL     1     -39.557  22.892   2.785  0.00  0.00    -0.465 OA
ATOM     25  C   UNL     1     -40.018  23.937   1.932  0.00  0.00    +0.253 C 
ENDBRANCH  10  24
BRANCH  11  26
ATOM     26  O   UNL     1     -37.298  24.007   3.924  0.00  0.00    -0.468 OA
ATOM     27  C   UNL     1     -36.141  24.358   4.680  0.00  0.00    +0.253 C 
ENDBRANCH  11  26
BRANCH   8  28
ATOM     28  O   UNL     1     -39.343  20.747   1.115  0.00  0.00    -0.503 OA
ATOM     29  H   UNL     1     -39.620  19.883   1.351  0.00  0.00    +0.292 HD
ENDBRANCH   8  28
TORSDOF 7
ENDMDL
MODEL 7
REMARK VINA RESULT:      -6.0      5.151      8.402
REMARK  Name = 5280699
REMARK  7 active torsions:
REMARK  status: ('A' for Active; 'I' for Inactive)
REMARK    1  A    between atoms: C_5  and  C_12
REMARK    2  A    between atoms: C_6  and  O_22
REMARK    3  A    between atoms: C_8  and  O_28
REMARK    4  A    between atoms: C_10  and  O_24
REMARK    5  A    between atoms: C_11  and  O_26
REMARK    6  A    between atoms: C_15  and  O_18
REMARK    7  A    between atoms: C_17  and  O_20
REMARK                            x       y       z     vdW  Elec       q    Type
REMARK                         _______ _______ _______ _____ _____    ______ ____
ROOT
ATOM      1  O   UNL     1     -35.118  21.185   2.253  0.00  0.00    -0.450 OA
ATOM      2  O   UNL     1     -38.097  20.065  -0.290  0.00  0.00    -0.283 OA
ATOM      3  C   UNL     1     -35.959  19.620   0.601  0.00  0.00    +0.113 A 
ATOM      4  C   UNL     1     -34.977  20.056   1.487  0.00  0.00    +0.155 A 
ATOM      5  C   UNL     1     -36.292  21.914   2.150  0.00  0.00    +0.182 A 
ATOM      6  C   UNL     1     -37.311  21.605   1.327  0.00  0.00    +0.212 A 
ATOM      7  C   UNL     1     -37.202  20.397   0.476  0.00  0.00    +0.238 A 
ATOM      8  C   UNL     1     -35.762  18.462  -0.157  0.00  0.00    +0.177 C 
ATOM      9  C   UNL     1     -33.789  19.339   1.621  0.00  0.00    +0.078 C 
ATOM     10  C   UNL     1     -34.573  17.746  -0.020  0.00  0.00    +0.206 C 
ATOM     11  C   UNL     1     -33.588  18.183   0.867  0.00  0.00    +0.178 C 
ENDROOT
BRANCH   5  12
ATOM     12  C   UNL     1     -36.311  23.099   3.026  0.00  0.00    +0.041 C 
ATOM     13  C   UNL     1     -36.692  24.339   2.513  0.00  0.00    +0.043 C 
ATOM     14  C   UNL     1     -35.945  22.982   4.367  0.00  0.00    +0.006 C 
ATOM     15  C   UNL     1     -36.709  25.461   3.341  0.00  0.00    +0.168 C 
ATOM     16  C   UNL     1     -35.963  24.104   5.195  0.00  0.00    +0.040 C 
ATOM     17  C   UNL     1     -36.344  25.344   4.682  0.00  0.00    +0.167 C 
BRANCH  15  18
ATOM     18  O   UNL     1     -37.083  26.667   2.829  0.00  0.00    -0.503 OA
ATOM     19  H   UNL     1     -37.281  27.379   3.406  0.00  0.00    +0.292 HD
ENDBRANCH  15  18
BRANCH  17  20
ATOM     20  O   UNL     1     -36.357  26.432   5.502  0.00  0.00    -0.503 OA
ATOM     21  H   UNL     1     -35.761  26.483   6.222  0.00  0.00    +0.292 HD
ENDBRANCH  17  20
ENDBRANCH   5  12
BRANCH   6  22
ATOM     22  O   UNL     1     -38.452  22.371   1.225  0.00  0.00    -0.465 OA
ATOM     23  C   UNL     1     -39.493  21.832   2.018  0.00  0.00    +0.253 C 
ENDBRANCH   6  22
BRANCH  10  24
ATOM     24  O   UNL     1     -34.368  16.614  -0.754  0.00  0.00    -0.465 OA
ATOM     25  C   UNL     1     -34.920  15.403  -0.243  0.00  0.00    +0.253 C 
ENDBRANCH  10  24
BRANCH  11  26
ATOM     26  O   UNL     1     -32.424  17.488   1.007  0.00  0.00    -0.468 OA
ATOM     27  C   UNL     1     -31.211  18.224   0.866  0.00  0.00    +0.253 C 
ENDBRANCH  11  26
BRANCH   8  28
ATOM     28  O   UNL     1     -36.698  18.002  -1.035  0.00  0.00    -0.503 OA
ATOM     29  H   UNL     1     -37.596  18.252  -0.936  0.00  0.00    +0.292 HD
ENDBRANCH   8  28
TORSDOF 7
ENDMDL
MODEL 8
REMARK VINA RESULT:      -5.9      2.814      8.185
REMARK  Name = 5280699
REMARK  7 active torsions:
REMARK  status: ('A' for Active; 'I' for Inactive)
REMARK    1  A    between atoms: C_5  and  C_12
REMARK    2  A    between atoms: C_6  and  O_22
REMARK    3  A    between atoms: C_8  and  O_28
REMARK    4  A    between atoms: C_10  and  O_24
REMARK    5  A    between atoms: C_11  and  O_26
REMARK    6  A    between atoms: C_15  and  O_18
REMARK    7  A    between atoms: C_17  and  O_20
REMARK                            x       y       z     vdW  Elec       q    Type
REMARK                         _______ _______ _______ _____ _____    ______ ____
ROOT
ATOM      1  O   UNL     1     -34.349  24.133   2.192  0.00  0.00    -0.450 OA
ATOM      2  O   UNL     1     -34.881  25.337   6.047  0.00  0.00    -0.283 OA
ATOM      3  C   UNL     1     -33.923  25.766   3.936  0.00  0.00    +0.113 A 
ATOM      4  C   UNL     1     -33.777  25.299   2.632  0.00  0.00    +0.155 A 
ATOM      5  C   UNL     1     -35.114  23.395   3.081  0.00  0.00    +0.182 A 
ATOM      6  C   UNL     1     -35.325  23.730   4.367  0.00  0.00    +0.212 A 
ATOM      7  C   UNL     1     -34.723  24.980   4.888  0.00  0.00    +0.238 A 
ATOM      8  C   UNL     1     -33.316  26.962   4.329  0.00  0.00    +0.177 C 
ATOM      9  C   UNL     1     -33.021  26.025   1.711  0.00  0.00    +0.078 C 
ATOM     10  C   UNL     1     -32.561  27.686   3.406  0.00  0.00    +0.206 C 
ATOM     11  C   UNL     1     -32.414  27.218   2.099  0.00  0.00    +0.178 C 
ENDROOT
BRANCH   5  12
ATOM     12  C   UNL     1     -35.668  22.168   2.480  0.00  0.00    +0.041 C 
ATOM     13  C   UNL     1     -37.033  22.079   2.209  0.00  0.00    +0.043 C 
ATOM     14  C   UNL     1     -34.827  21.094   2.185  0.00  0.00    +0.006 C 
ATOM     15  C   UNL     1     -37.557  20.917   1.642  0.00  0.00    +0.168 C 
ATOM     16  C   UNL     1     -35.350  19.934   1.617  0.00  0.00    +0.040 C 
ATOM     17  C   UNL     1     -36.716  19.844   1.346  0.00  0.00    +0.167 C 
BRANCH  15  18
ATOM     18  O   UNL     1     -38.893  20.841   1.382  0.00  0.00    -0.503 OA
ATOM     19  H   UNL     1     -39.388  21.625   1.248  0.00  0.00    +0.292 HD
ENDBRANCH  15  18
BRANCH  17  20
ATOM     20  O   UNL     1     -37.215  18.705   0.791  0.00  0.00    -0.503 OA
ATOM     21  H   UNL     1     -36.976  18.465  -0.082  0.00  0.00    +0.292 HD
ENDBRANCH  17  20
ENDBRANCH   5  12
BRANCH   6  22
ATOM     22  O   UNL     1     -36.066  22.956   5.233  0.00  0.00    -0.465 OA
ATOM     23  C   UNL     1     -35.232  22.076   5.962  0.00  0.00    +0.253 C 
ENDBRANCH   6  22
BRANCH  10  24
ATOM     24  O   UNL     1     -31.964  28.855   3.778  0.00  0.00    -0.465 OA
ATOM     25  C   UNL     1     -32.729  30.048   3.628  0.00  0.00    +0.253 C 
ENDBRANCH  10  24
BRANCH  11  26
ATOM     26  O   UNL     1     -31.679  27.920   1.191  0.00  0.00    -0.468 OA
ATOM     27  C   UNL     1     -32.391  28.541   0.124  0.00  0.00    +0.253 C 
ENDBRANCH  11  26
BRANCH   8  28
ATOM     28  O   UNL     1     -33.435  27.452   5.596  0.00  0.00    -0.503 OA
ATOM     29  H   UNL     1     -34.200  27.262   6.102  0.00  0.00    +0.292 HD
ENDBRANCH   8  28
TORSDOF 7
ENDMDL
MODEL 9
REMARK VINA RESULT:      -5.9      1.941      6.976
REMARK  Name = 5280699
REMARK  7 active torsions:
REMARK  status: ('A' for Active; 'I' for Inactive)
REMARK    1  A    between atoms: C_5  and  C_12
REMARK    2  A    between atoms: C_6  and  O_22
REMARK    3  A    between atoms: C_8  and  O_28
REMARK    4  A    between atoms: C_10  and  O_24
REMARK    5  A    between atoms: C_11  and  O_26
REMARK    6  A    between atoms: C_15  and  O_18
REMARK    7  A    between atoms: C_17  and  O_20
REMARK                            x       y       z     vdW  Elec       q    Type
REMARK                         _______ _______ _______ _____ _____    ______ ____
ROOT
ATOM      1  O   UNL     1     -33.917  26.287   4.223  0.00  0.00    -0.450 OA
ATOM      2  O   UNL     1     -36.446  27.945   1.494  0.00  0.00    -0.283 OA
ATOM      3  C   UNL     1     -34.503  28.171   2.811  0.00  0.00    +0.113 A 
ATOM      4  C   UNL     1     -33.678  27.550   3.746  0.00  0.00    +0.155 A 
ATOM      5  C   UNL     1     -35.019  25.595   3.746  0.00  0.00    +0.182 A 
ATOM      6  C   UNL     1     -35.897  26.085   2.851  0.00  0.00    +0.212 A 
ATOM      7  C   UNL     1     -35.683  27.448   2.310  0.00  0.00    +0.238 A 
ATOM      8  C   UNL     1     -34.212  29.461   2.361  0.00  0.00    +0.177 C 
ATOM      9  C   UNL     1     -32.556  28.215   4.238  0.00  0.00    +0.078 C 
ATOM     10  C   UNL     1     -33.088  30.125   2.854  0.00  0.00    +0.206 C 
ATOM     11  C   UNL     1     -32.261  29.503   3.791  0.00  0.00    +0.178 C 
ENDROOT
BRANCH   5  12
ATOM     12  C   UNL     1     -35.158  24.254   4.340  0.00  0.00    +0.041 C 
ATOM     13  C   UNL     1     -35.304  23.138   3.517  0.00  0.00    +0.043 C 
ATOM     14  C   UNL     1     -35.145  24.100   5.727  0.00  0.00    +0.006 C 
ATOM     15  C   UNL     1     -35.437  21.868   4.079  0.00  0.00    +0.168 C 
ATOM     16  C   UNL     1     -35.276  22.832   6.290  0.00  0.00    +0.040 C 
ATOM     17  C   UNL     1     -35.422  21.715   5.466  0.00  0.00    +0.167 C 
BRANCH  15  18
ATOM     18  O   UNL     1     -35.579  20.785   3.265  0.00  0.00    -0.503 OA
ATOM     19  H   UNL     1     -36.179  20.103   3.495  0.00  0.00    +0.292 HD
ENDBRANCH  15  18
BRANCH  17  20
ATOM     20  O   UNL     1     -35.550  20.480   6.028  0.00  0.00    -0.503 OA
ATOM     21  H   UNL     1     -36.306  19.958   5.844  0.00  0.00    +0.292 HD
ENDBRANCH  17  20
ENDBRANCH   5  12
BRANCH   6  22
ATOM     22  O   UNL     1     -37.002  25.383   2.421  0.00  0.00    -0.465 OA
ATOM     23  C   UNL     1     -38.142  25.713   3.192  0.00  0.00    +0.253 C 
ENDBRANCH   6  22
BRANCH  10  24
ATOM     24  O   UNL     1     -32.793  31.384   2.421  0.00  0.00    -0.465 OA
ATOM     25  C   UNL     1     -31.930  31.495   1.292  0.00  0.00    +0.253 C 
ENDBRANCH  10  24
BRANCH  11  26
ATOM     26  O   UNL     1     -31.161  30.143   4.277  0.00  0.00    -0.468 OA
ATOM     27  C   UNL     1     -31.039  30.235   5.694  0.00  0.00    +0.253 C 
ENDBRANCH  11  26
BRANCH   8  28
ATOM     28  O   UNL     1     -34.994  30.104   1.447  0.00  0.00    -0.503 OA
ATOM     29  H   UNL     1     -35.587  30.773   1.726  0.00  0.00    +0.292 HD
ENDBRANCH   8  28
TORSDOF 7
ENDMDL
