MODEL 1
REMARK VINA RESULT:      -5.3      0.000      0.000
REMARK  Name = 208900
REMARK  5 active torsions:
REMARK  status: ('A' for Active; 'I' for Inactive)
REMARK    1  A    between atoms: C_2  and  O_17
REMARK    2  A    between atoms: C_3  and  O_15
REMARK    3  A    between atoms: C_4  and  O_19
REMARK    4  A    between atoms: C_5  and  N_8
REMARK    5  A    between atoms: N_9  and  N_14
REMARK                            x       y       z     vdW  Elec       q    Type
REMARK                         _______ _______ _______ _____ _____    ______ ____
ROOT
ATOM      1  O   UNL     1     -38.844  23.110   2.949  0.00  0.00    -0.333 OA
ATOM      2  C   UNL     1     -38.595  21.209   0.819  0.00  0.00    +0.171 C 
ATOM      3  C   UNL     1     -37.542  21.315   1.923  0.00  0.00    +0.186 C 
ATOM      4  C   UNL     1     -39.952  21.728   1.291  0.00  0.00    +0.169 C 
ATOM      5  C   UNL     1     -37.539  22.723   2.525  0.00  0.00    +0.222 C 
ATOM      6  C   UNL     1     -39.799  23.122   1.887  0.00  0.00    +0.176 C 
ENDROOT
BRANCH   5   8
ATOM      7  O   UNL     1     -36.309  25.060   3.508  0.00  0.00    -0.251 OA
ATOM      8  N   UNL     1     -36.678  22.796   3.679  0.00  0.00    -0.264 N 
ATOM      9  N   UNL     1     -35.292  23.908   5.243  0.00  0.00    -0.162 N 
ATOM     10  C   UNL     1     -36.106  23.996   4.102  0.00  0.00    +0.322 C 
ATOM     11  C   UNL     1     -34.633  25.084   5.797  0.00  0.00    +0.140 C 
ATOM     12  H   UNL     1     -36.488  21.973   4.184  0.00  0.00    +0.153 HD
BRANCH   9  14
ATOM     13  O   UNL     1     -36.095  22.179   6.505  0.00  0.00    -0.078 OA
ATOM     14  N   UNL     1     -35.089  22.595   5.919  0.00  0.00    +0.054 NA
ENDBRANCH   9  14
ENDBRANCH   5   8
BRANCH   3  15
ATOM     15  O   UNL     1     -36.270  21.033   1.343  0.00  0.00    -0.378 OA
ATOM     16  H   UNL     1     -35.956  21.813   0.858  0.00  0.00    +0.211 HD
ENDBRANCH   3  15
BRANCH   2  17
ATOM     17  O   UNL     1     -38.730  19.854   0.396  0.00  0.00    -0.379 OA
ATOM     18  H   UNL     1     -39.489  19.778  -0.203  0.00  0.00    +0.211 HD
ENDBRANCH   2  17
BRANCH   4  19
ATOM     19  O   UNL     1     -40.469  20.854   2.295  0.00  0.00    -0.379 OA
ATOM     20  H   UNL     1     -40.143  21.133   3.165  0.00  0.00    +0.211 HD
ENDBRANCH   4  19
TORSDOF 5
ENDMDL
MODEL 2
REMARK VINA RESULT:      -5.3      3.957      6.126
REMARK  Name = 208900
REMARK  5 active torsions:
REMARK  status: ('A' for Active; 'I' for Inactive)
REMARK    1  A    between atoms: C_2  and  O_17
REMARK    2  A    between atoms: C_3  and  O_15
REMARK    3  A    between atoms: C_4  and  O_19
REMARK    4  A    between atoms: C_5  and  N_8
REMARK    5  A    between atoms: N_9  and  N_14
REMARK                            x       y       z     vdW  Elec       q    Type
REMARK                         _______ _______ _______ _____ _____    ______ ____
ROOT
ATOM      1  O   UNL     1     -33.697  24.777   4.684  0.00  0.00    -0.333 OA
ATOM      2  C   UNL     1     -36.549  24.589   4.881  0.00  0.00    +0.171 C 
ATOM      3  C   UNL     1     -35.840  25.942   4.821  0.00  0.00    +0.186 C 
ATOM      4  C   UNL     1     -35.704  23.487   4.245  0.00  0.00    +0.169 C 
ATOM      5  C   UNL     1     -34.408  25.818   5.350  0.00  0.00    +0.222 C 
ATOM      6  C   UNL     1     -34.303  23.493   4.843  0.00  0.00    +0.176 C 
ENDROOT
BRANCH   5   8
ATOM      7  O   UNL     1     -32.423  26.843   7.066  0.00  0.00    -0.251 OA
ATOM      8  N   UNL     1     -33.668  27.038   5.142  0.00  0.00    -0.264 N 
ATOM      9  N   UNL     1     -32.060  28.682   5.704  0.00  0.00    -0.162 N 
ATOM     10  C   UNL     1     -32.698  27.478   6.043  0.00  0.00    +0.322 C 
ATOM     11  C   UNL     1     -31.026  29.258   6.553  0.00  0.00    +0.140 C 
ATOM     12  H   UNL     1     -33.853  27.577   4.340  0.00  0.00    +0.153 HD
BRANCH   9  14
ATOM     13  O   UNL     1     -33.328  30.238   4.609  0.00  0.00    -0.078 OA
ATOM     14  N   UNL     1     -32.433  29.400   4.452  0.00  0.00    +0.054 NA
ENDBRANCH   9  14
ENDBRANCH   5   8
BRANCH   3  15
ATOM     15  O   UNL     1     -36.577  26.858   5.629  0.00  0.00    -0.378 OA
ATOM     16  H   UNL     1     -36.980  26.382   6.372  0.00  0.00    +0.211 HD
ENDBRANCH   3  15
BRANCH   2  17
ATOM     17  O   UNL     1     -37.807  24.662   4.214  0.00  0.00    -0.379 OA
ATOM     18  H   UNL     1     -38.300  25.431   4.539  0.00  0.00    +0.211 HD
ENDBRANCH   2  17
BRANCH   4  19
ATOM     19  O   UNL     1     -35.605  23.721   2.840  0.00  0.00    -0.379 OA
ATOM     20  H   UNL     1     -35.536  22.872   2.375  0.00  0.00    +0.211 HD
ENDBRANCH   4  19
TORSDOF 5
ENDMDL
MODEL 3
REMARK VINA RESULT:      -5.0      2.113      5.642
REMARK  Name = 208900
REMARK  5 active torsions:
REMARK  status: ('A' for Active; 'I' for Inactive)
REMARK    1  A    between atoms: C_2  and  O_17
REMARK    2  A    between atoms: C_3  and  O_15
REMARK    3  A    between atoms: C_4  and  O_19
REMARK    4  A    between atoms: C_5  and  N_8
REMARK    5  A    between atoms: N_9  and  N_14
REMARK                            x       y       z     vdW  Elec       q    Type
REMARK                         _______ _______ _______ _____ _____    ______ ____
ROOT
ATOM      1  O   UNL     1     -36.626  23.796   4.883  0.00  0.00    -0.333 OA
ATOM      2  C   UNL     1     -35.426  26.072   3.622  0.00  0.00    +0.171 C 
ATOM      3  C   UNL     1     -36.500  25.242   2.918  0.00  0.00    +0.186 C 
ATOM      4  C   UNL     1     -35.528  25.944   5.140  0.00  0.00    +0.169 C 
ATOM      5  C   UNL     1     -36.511  23.810   3.462  0.00  0.00    +0.222 C 
ATOM      6  C   UNL     1     -35.553  24.474   5.540  0.00  0.00    +0.176 C 
ENDROOT
BRANCH   5   8
ATOM      7  O   UNL     1     -36.414  22.049   1.265  0.00  0.00    -0.251 OA
ATOM      8  N   UNL     1     -37.625  23.061   2.938  0.00  0.00    -0.264 N 
ATOM      9  N   UNL     1     -38.668  21.545   1.449  0.00  0.00    -0.162 N 
ATOM     10  C   UNL     1     -37.495  22.207   1.843  0.00  0.00    +0.322 C 
ATOM     11  C   UNL     1     -38.677  20.622   0.322  0.00  0.00    +0.140 C 
ATOM     12  H   UNL     1     -38.506  23.156   3.367  0.00  0.00    +0.153 HD
BRANCH   9  14
ATOM     13  O   UNL     1     -40.457  22.873   1.961  0.00  0.00    -0.078 OA
ATOM     14  N   UNL     1     -39.942  21.774   2.190  0.00  0.00    +0.054 NA
ENDBRANCH   9  14
ENDBRANCH   5   8
BRANCH   3  15
ATOM     15  O   UNL     1     -36.199  25.228   1.524  0.00  0.00    -0.378 OA
ATOM     16  H   UNL     1     -35.963  24.327   1.253  0.00  0.00    +0.211 HD
ENDBRANCH   3  15
BRANCH   2  17
ATOM     17  O   UNL     1     -35.545  27.445   3.256  0.00  0.00    -0.379 OA
ATOM     18  H   UNL     1     -35.645  27.984   4.055  0.00  0.00    +0.211 HD
ENDBRANCH   2  17
BRANCH   4  19
ATOM     19  O   UNL     1     -36.736  26.562   5.586  0.00  0.00    -0.379 OA
ATOM     20  H   UNL     1     -37.318  25.890   5.976  0.00  0.00    +0.211 HD
ENDBRANCH   4  19
TORSDOF 5
ENDMDL
MODEL 4
REMARK VINA RESULT:      -5.0      3.246      5.780
REMARK  Name = 208900
REMARK  5 active torsions:
REMARK  status: ('A' for Active; 'I' for Inactive)
REMARK    1  A    between atoms: C_2  and  O_17
REMARK    2  A    between atoms: C_3  and  O_15
REMARK    3  A    between atoms: C_4  and  O_19
REMARK    4  A    between atoms: C_5  and  N_8
REMARK    5  A    between atoms: N_9  and  N_14
REMARK                            x       y       z     vdW  Elec       q    Type
REMARK                         _______ _______ _______ _____ _____    ______ ____
ROOT
ATOM      1  O   UNL     1     -37.804  23.425   3.383  0.00  0.00    -0.333 OA
ATOM      2  C   UNL     1     -35.358  24.437   4.482  0.00  0.00    +0.171 C 
ATOM      3  C   UNL     1     -36.641  25.269   4.487  0.00  0.00    +0.186 C 
ATOM      4  C   UNL     1     -35.663  22.942   4.418  0.00  0.00    +0.169 C 
ATOM      5  C   UNL     1     -37.566  24.831   3.348  0.00  0.00    +0.222 C 
ATOM      6  C   UNL     1     -36.609  22.651   3.260  0.00  0.00    +0.176 C 
ENDROOT
BRANCH   5   8
ATOM      7  O   UNL     1     -39.198  25.549   1.166  0.00  0.00    -0.251 OA
ATOM      8  N   UNL     1     -38.849  25.481   3.439  0.00  0.00    -0.264 N 
ATOM      9  N   UNL     1     -40.828  26.433   2.555  0.00  0.00    -0.162 N 
ATOM     10  C   UNL     1     -39.598  25.805   2.307  0.00  0.00    +0.322 C 
ATOM     11  C   UNL     1     -41.714  26.825   1.466  0.00  0.00    +0.140 C 
ATOM     12  H   UNL     1     -39.209  25.705   4.327  0.00  0.00    +0.153 HD
BRANCH   9  14
ATOM     13  O   UNL     1     -41.661  27.867   4.130  0.00  0.00    -0.078 OA
ATOM     14  N   UNL     1     -41.258  26.711   3.955  0.00  0.00    +0.054 NA
ENDBRANCH   9  14
ENDBRANCH   5   8
BRANCH   3  15
ATOM     15  O   UNL     1     -36.275  26.637   4.315  0.00  0.00    -0.378 OA
ATOM     16  H   UNL     1     -36.383  26.886   3.383  0.00  0.00    +0.211 HD
ENDBRANCH   3  15
BRANCH   2  17
ATOM     17  O   UNL     1     -34.588  24.711   5.650  0.00  0.00    -0.379 OA
ATOM     18  H   UNL     1     -34.111  23.911   5.917  0.00  0.00    +0.211 HD
ENDBRANCH   2  17
BRANCH   4  19
ATOM     19  O   UNL     1     -36.289  22.536   5.636  0.00  0.00    -0.379 OA
ATOM     20  H   UNL     1     -35.640  22.086   6.199  0.00  0.00    +0.211 HD
ENDBRANCH   4  19
TORSDOF 5
ENDMDL
MODEL 5
REMARK VINA RESULT:      -4.9      4.294      6.066
REMARK  Name = 208900
REMARK  5 active torsions:
REMARK  status: ('A' for Active; 'I' for Inactive)
REMARK    1  A    between atoms: C_2  and  O_17
REMARK    2  A    between atoms: C_3  and  O_15
REMARK    3  A    between atoms: C_4  and  O_19
REMARK    4  A    between atoms: C_5  and  N_8
REMARK    5  A    between atoms: N_9  and  N_14
REMARK                            x       y       z     vdW  Elec       q    Type
REMARK                         _______ _______ _______ _____ _____    ______ ____
ROOT
ATOM      1  O   UNL     1     -35.603  27.403   2.899  0.00  0.00    -0.333 OA
ATOM      2  C   UNL     1     -35.854  24.721   3.876  0.00  0.00    +0.171 C 
ATOM      3  C   UNL     1     -34.886  25.717   4.516  0.00  0.00    +0.186 C 
ATOM      4  C   UNL     1     -36.998  25.435   3.160  0.00  0.00    +0.169 C 
ATOM      5  C   UNL     1     -34.467  26.783   3.499  0.00  0.00    +0.222 C 
ATOM      6  C   UNL     1     -36.443  26.482   2.202  0.00  0.00    +0.176 C 
ENDROOT
BRANCH   5   8
ATOM      7  O   UNL     1     -31.655  26.943   3.536  0.00  0.00    -0.251 OA
ATOM      8  N   UNL     1     -33.694  27.827   4.125  0.00  0.00    -0.264 N 
ATOM      9  N   UNL     1     -31.688  28.916   4.750  0.00  0.00    -0.162 N 
ATOM     10  C   UNL     1     -32.300  27.833   4.099  0.00  0.00    +0.322 C 
ATOM     11  C   UNL     1     -30.238  29.051   4.800  0.00  0.00    +0.140 C 
ATOM     12  H   UNL     1     -34.166  28.557   4.586  0.00  0.00    +0.153 HD
BRANCH   9  14
ATOM     13  O   UNL     1     -33.194  30.630   4.616  0.00  0.00    -0.078 OA
ATOM     14  N   UNL     1     -32.522  29.962   5.408  0.00  0.00    +0.054 NA
ENDBRANCH   9  14
ENDBRANCH   5   8
BRANCH   3  15
ATOM     15  O   UNL     1     -33.739  24.991   4.956  0.00  0.00    -0.378 OA
ATOM     16  H   UNL     1     -33.931  24.041   4.935  0.00  0.00    +0.211 HD
ENDBRANCH   3  15
BRANCH   2  17
ATOM     17  O   UNL     1     -36.390  23.849   4.867  0.00  0.00    -0.379 OA
ATOM     18  H   UNL     1     -35.717  23.199   5.124  0.00  0.00    +0.211 HD
ENDBRANCH   2  17
BRANCH   4  19
ATOM     19  O   UNL     1     -37.823  26.090   4.126  0.00  0.00    -0.379 OA
ATOM     20  H   UNL     1     -37.988  27.004   3.844  0.00  0.00    +0.211 HD
ENDBRANCH   4  19
TORSDOF 5
ENDMDL
MODEL 6
REMARK VINA RESULT:      -4.9      1.876      2.021
REMARK  Name = 208900
REMARK  5 active torsions:
REMARK  status: ('A' for Active; 'I' for Inactive)
REMARK    1  A    between atoms: C_2  and  O_17
REMARK    2  A    between atoms: C_3  and  O_15
REMARK    3  A    between atoms: C_4  and  O_19
REMARK    4  A    between atoms: C_5  and  N_8
REMARK    5  A    between atoms: N_9  and  N_14
REMARK                            x       y       z     vdW  Elec       q    Type
REMARK                         _______ _______ _______ _____ _____    ______ ____
ROOT
ATOM      1  O   UNL     1     -37.465  22.384   0.956  0.00  0.00    -0.333 OA
ATOM      2  C   UNL     1     -36.826  19.631   0.485  0.00  0.00    +0.171 C 
ATOM      3  C   UNL     1     -36.501  20.310   1.816  0.00  0.00    +0.186 C 
ATOM      4  C   UNL     1     -37.976  20.332  -0.234  0.00  0.00    +0.169 C 
ATOM      5  C   UNL     1     -36.335  21.820   1.618  0.00  0.00    +0.222 C 
ATOM      6  C   UNL     1     -37.693  21.825  -0.340  0.00  0.00    +0.176 C 
ENDROOT
BRANCH   5   8
ATOM      7  O   UNL     1     -34.431  23.808   2.216  0.00  0.00    -0.251 OA
ATOM      8  N   UNL     1     -36.201  22.500   2.882  0.00  0.00    -0.264 N 
ATOM      9  N   UNL     1     -35.223  24.050   4.380  0.00  0.00    -0.162 N 
ATOM     10  C   UNL     1     -35.229  23.476   3.099  0.00  0.00    +0.322 C 
ATOM     11  C   UNL     1     -34.262  25.083   4.745  0.00  0.00    +0.140 C 
ATOM     12  H   UNL     1     -36.815  22.268   3.616  0.00  0.00    +0.153 HD
BRANCH   9  14
ATOM     13  O   UNL     1     -35.965  22.502   5.890  0.00  0.00    -0.078 OA
ATOM     14  N   UNL     1     -36.215  23.609   5.403  0.00  0.00    +0.054 NA
ENDBRANCH   9  14
ENDBRANCH   5   8
BRANCH   3  15
ATOM     15  O   UNL     1     -35.285  19.750   2.308  0.00  0.00    -0.378 OA
ATOM     16  H   UNL     1     -34.578  20.412   2.251  0.00  0.00    +0.211 HD
ENDBRANCH   3  15
BRANCH   2  17
ATOM     17  O   UNL     1     -37.168  18.264   0.700  0.00  0.00    -0.379 OA
ATOM     18  H   UNL     1     -36.779  17.961   1.535  0.00  0.00    +0.211 HD
ENDBRANCH   2  17
BRANCH   4  19
ATOM     19  O   UNL     1     -39.181  20.145   0.509  0.00  0.00    -0.379 OA
ATOM     20  H   UNL     1     -39.659  19.375   0.161  0.00  0.00    +0.211 HD
ENDBRANCH   4  19
TORSDOF 5
ENDMDL
MODEL 7
REMARK VINA RESULT:      -4.8      4.161      6.088
REMARK  Name = 208900
REMARK  5 active torsions:
REMARK  status: ('A' for Active; 'I' for Inactive)
REMARK    1  A    between atoms: C_2  and  O_17
REMARK    2  A    between atoms: C_3  and  O_15
REMARK    3  A    between atoms: C_4  and  O_19
REMARK    4  A    between atoms: C_5  and  N_8
REMARK    5  A    between atoms: N_9  and  N_14
REMARK                            x       y       z     vdW  Elec       q    Type
REMARK                         _______ _______ _______ _____ _____    ______ ____
ROOT
ATOM      1  O   UNL     1     -34.177  21.965   0.920  0.00  0.00    -0.333 OA
ATOM      2  C   UNL     1     -36.515  22.238   2.554  0.00  0.00    +0.171 C 
ATOM      3  C   UNL     1     -35.693  20.949   2.546  0.00  0.00    +0.186 C 
ATOM      4  C   UNL     1     -35.673  23.440   2.133  0.00  0.00    +0.169 C 
ATOM      5  C   UNL     1     -34.946  20.801   1.217  0.00  0.00    +0.222 C 
ATOM      6  C   UNL     1     -34.970  23.149   0.813  0.00  0.00    +0.176 C 
ENDROOT
BRANCH   5   8
ATOM      7  O   UNL     1     -35.248  18.387  -0.204  0.00  0.00    -0.251 OA
ATOM      8  N   UNL     1     -34.033  19.686   1.253  0.00  0.00    -0.264 N 
ATOM      9  N   UNL     1     -33.276  17.524   0.654  0.00  0.00    -0.162 N 
ATOM     10  C   UNL     1     -34.255  18.522   0.518  0.00  0.00    +0.322 C 
ATOM     11  C   UNL     1     -33.380  16.257  -0.058  0.00  0.00    +0.140 C 
ATOM     12  H   UNL     1     -33.227  19.749   1.815  0.00  0.00    +0.153 HD
BRANCH   9  14
ATOM     13  O   UNL     1     -31.205  18.423   1.012  0.00  0.00    -0.078 OA
ATOM     14  N   UNL     1     -32.097  17.749   1.538  0.00  0.00    +0.054 NA
ENDBRANCH   9  14
ENDBRANCH   5   8
BRANCH   3  15
ATOM     15  O   UNL     1     -36.591  19.856   2.721  0.00  0.00    -0.378 OA
ATOM     16  H   UNL     1     -36.151  19.152   3.222  0.00  0.00    +0.211 HD
ENDBRANCH   3  15
BRANCH   2  17
ATOM     17  O   UNL     1     -37.052  22.472   3.854  0.00  0.00    -0.379 OA
ATOM     18  H   UNL     1     -38.021  22.456   3.810  0.00  0.00    +0.211 HD
ENDBRANCH   2  17
BRANCH   4  19
ATOM     19  O   UNL     1     -34.686  23.699   3.132  0.00  0.00    -0.379 OA
ATOM     20  H   UNL     1     -35.111  23.736   4.004  0.00  0.00    +0.211 HD
ENDBRANCH   4  19
TORSDOF 5
ENDMDL
MODEL 8
REMARK VINA RESULT:      -4.7      4.198      6.296
REMARK  Name = 208900
REMARK  5 active torsions:
REMARK  status: ('A' for Active; 'I' for Inactive)
REMARK    1  A    between atoms: C_2  and  O_17
REMARK    2  A    between atoms: C_3  and  O_15
REMARK    3  A    between atoms: C_4  and  O_19
REMARK    4  A    between atoms: C_5  and  N_8
REMARK    5  A    between atoms: N_9  and  N_14
REMARK                            x       y       z     vdW  Elec       q    Type
REMARK                         _______ _______ _______ _____ _____    ______ ____
ROOT
ATOM      1  O   UNL     1     -33.788  24.726   4.688  0.00  0.00    -0.333 OA
ATOM      2  C   UNL     1     -36.430  25.833   4.619  0.00  0.00    +0.171 C 
ATOM      3  C   UNL     1     -35.268  26.493   3.876  0.00  0.00    +0.186 C 
ATOM      4  C   UNL     1     -36.179  24.342   4.837  0.00  0.00    +0.169 C 
ATOM      5  C   UNL     1     -33.936  26.137   4.545  0.00  0.00    +0.222 C 
ATOM      6  C   UNL     1     -34.815  24.131   5.483  0.00  0.00    +0.176 C 
ENDROOT
BRANCH   5   8
ATOM      7  O   UNL     1     -32.640  28.619   4.858  0.00  0.00    -0.251 OA
ATOM      8  N   UNL     1     -32.819  26.605   3.763  0.00  0.00    -0.264 N 
ATOM      9  N   UNL     1     -31.152  28.166   3.142  0.00  0.00    -0.162 N 
ATOM     10  C   UNL     1     -32.232  27.851   3.981  0.00  0.00    +0.322 C 
ATOM     11  C   UNL     1     -30.443  29.433   3.260  0.00  0.00    +0.140 C 
ATOM     12  H   UNL     1     -32.460  26.026   3.052  0.00  0.00    +0.153 HD
BRANCH   9  14
ATOM     13  O   UNL     1     -30.133  26.201   2.569  0.00  0.00    -0.078 OA
ATOM     14  N   UNL     1     -30.702  27.194   2.104  0.00  0.00    +0.054 NA
ENDBRANCH   9  14
ENDBRANCH   5   8
BRANCH   3  15
ATOM     15  O   UNL     1     -35.468  27.904   3.917  0.00  0.00    -0.378 OA
ATOM     16  H   UNL     1     -34.955  28.282   4.648  0.00  0.00    +0.211 HD
ENDBRANCH   3  15
BRANCH   2  17
ATOM     17  O   UNL     1     -37.642  26.004   3.889  0.00  0.00    -0.379 OA
ATOM     18  H   UNL     1     -38.201  26.656   4.339  0.00  0.00    +0.211 HD
ENDBRANCH   2  17
BRANCH   4  19
ATOM     19  O   UNL     1     -36.198  23.671   3.577  0.00  0.00    -0.379 OA
ATOM     20  H   UNL     1     -35.588  24.114   2.965  0.00  0.00    +0.211 HD
ENDBRANCH   4  19
TORSDOF 5
ENDMDL
MODEL 9
REMARK VINA RESULT:      -4.7      4.161      5.962
REMARK  Name = 208900
REMARK  5 active torsions:
REMARK  status: ('A' for Active; 'I' for Inactive)
REMARK    1  A    between atoms: C_2  and  O_17
REMARK    2  A    between atoms: C_3  and  O_15
REMARK    3  A    between atoms: C_4  and  O_19
REMARK    4  A    between atoms: C_5  and  N_8
REMARK    5  A    between atoms: N_9  and  N_14
REMARK                            x       y       z     vdW  Elec       q    Type
REMARK                         _______ _______ _______ _____ _____    ______ ____
ROOT
ATOM      1  O   UNL     1     -36.878  26.657   2.436  0.00  0.00    -0.333 OA
ATOM      2  C   UNL     1     -36.052  24.518   4.155  0.00  0.00    +0.171 C 
ATOM      3  C   UNL     1     -35.556  25.950   4.365  0.00  0.00    +0.186 C 
ATOM      4  C   UNL     1     -37.385  24.494   3.410  0.00  0.00    +0.169 C 
ATOM      5  C   UNL     1     -35.591  26.726   3.045  0.00  0.00    +0.222 C 
ATOM      6  C   UNL     1     -37.286  25.321   2.135  0.00  0.00    +0.176 C 
ENDROOT
BRANCH   5   8
ATOM      7  O   UNL     1     -33.074  27.937   2.676  0.00  0.00    -0.251 OA
ATOM      8  N   UNL     1     -35.293  28.121   3.252  0.00  0.00    -0.264 N 
ATOM      9  N   UNL     1     -33.881  30.021   3.288  0.00  0.00    -0.162 N 
ATOM     10  C   UNL     1     -34.016  28.644   3.047  0.00  0.00    +0.322 C 
ATOM     11  C   UNL     1     -32.604  30.701   3.112  0.00  0.00    +0.140 C 
ATOM     12  H   UNL     1     -36.013  28.723   3.548  0.00  0.00    +0.153 HD
BRANCH   9  14
ATOM     13  O   UNL     1     -35.842  31.097   2.816  0.00  0.00    -0.078 OA
ATOM     14  N   UNL     1     -35.058  30.823   3.730  0.00  0.00    +0.054 NA
ENDBRANCH   9  14
ENDBRANCH   5   8
BRANCH   3  15
ATOM     15  O   UNL     1     -34.217  25.881   4.851  0.00  0.00    -0.378 OA
ATOM     16  H   UNL     1     -34.220  25.543   5.760  0.00  0.00    +0.211 HD
ENDBRANCH   3  15
BRANCH   2  17
ATOM     17  O   UNL     1     -36.202  23.860   5.411  0.00  0.00    -0.379 OA
ATOM     18  H   UNL     1     -35.597  24.256   6.057  0.00  0.00    +0.211 HD
ENDBRANCH   2  17
BRANCH   4  19
ATOM     19  O   UNL     1     -38.401  25.053   4.243  0.00  0.00    -0.379 OA
ATOM     20  H   UNL     1     -39.086  24.386   4.410  0.00  0.00    +0.211 HD
ENDBRANCH   4  19
TORSDOF 5
ENDMDL
