MODEL 1
REMARK VINA RESULT:      -6.1      0.000      0.000
REMARK  Name = 208901
REMARK  12 active torsions:
REMARK  status: ('A' for Active; 'I' for Inactive)
REMARK    1  A    between atoms: C_1  and  C_21
REMARK    2  A    between atoms: C_4  and  O_7
REMARK    3  A    between atoms: O_7  and  C_8
REMARK    4  A    between atoms: C_8  and  C_9
REMARK    5  A    between atoms: C_9  and  C_10
REMARK    6  A    between atoms: C_13  and  O_16
REMARK    7  A    between atoms: O_16  and  S_17
REMARK    8  A    between atoms: C_21  and  C_22
REMARK    9  A    between atoms: C_22  and  C_24
REMARK   10  A    between atoms: C_22  and  O_27
REMARK   11  A    between atoms: C_24  and  O_25
REMARK   12  A    between atoms: O_27  and  C_28
REMARK                            x       y       z     vdW  Elec       q    Type
REMARK                         _______ _______ _______ _____ _____    ______ ____
ROOT
ATOM      1  C   UNL     1     -37.219  23.094   2.733  0.00  0.00    -0.019 C 
ATOM      2  C   UNL     1     -37.975  22.035   2.232  0.00  0.00    -0.001 C 
ATOM      3  C   UNL     1     -37.772  24.372   2.809  0.00  0.00    -0.001 C 
ATOM      4  C   UNL     1     -39.839  23.530   1.884  0.00  0.00    +0.139 C 
ATOM      5  C   UNL     1     -39.285  22.253   1.808  0.00  0.00    +0.037 C 
ATOM      6  C   UNL     1     -39.083  24.590   2.385  0.00  0.00    +0.037 C 
ENDROOT
BRANCH   4   7
ATOM      7  O   UNL     1     -41.126  23.746   1.467  0.00  0.00    -0.475 OA
BRANCH   7   8
ATOM      8  C   UNL     1     -41.417  25.024   0.916  0.00  0.00    +0.210 C 
BRANCH   8   9
ATOM      9  C   UNL     1     -42.825  25.456   1.339  0.00  0.00    +0.074 C 
BRANCH   9  10
ATOM     10  C   UNL     1     -42.820  26.576   2.323  0.00  0.00    -0.018 C 
ATOM     11  C   UNL     1     -43.662  27.672   2.139  0.00  0.00    -0.001 C 
ATOM     12  C   UNL     1     -41.972  26.527   3.431  0.00  0.00    -0.001 C 
ATOM     13  C   UNL     1     -42.810  28.669   4.167  0.00  0.00    +0.171 C 
ATOM     14  C   UNL     1     -43.658  28.719   3.061  0.00  0.00    +0.039 C 
ATOM     15  C   UNL     1     -41.967  27.574   4.352  0.00  0.00    +0.039 C 
BRANCH  13  16
ATOM     16  O   UNL     1     -42.806  29.691   5.067  0.00  0.00    -0.360 OA
BRANCH  16  17
ATOM     17  S   UNL     1     -43.970  29.887   6.203  0.00  0.00    +0.032 S 
ATOM     18  O   UNL     1     -44.973  28.853   6.055  0.00  0.00    -0.062 OA
ATOM     19  O   UNL     1     -43.356  30.192   7.480  0.00  0.00    -0.062 OA
ATOM     20  C   UNL     1     -44.646  31.395   5.556  0.00  0.00    +0.194 C 
ENDBRANCH  16  17
ENDBRANCH  13  16
ENDBRANCH   9  10
ENDBRANCH   8   9
ENDBRANCH   7   8
ENDBRANCH   4   7
BRANCH   1  21
ATOM     21  C   UNL     1     -35.817  22.860   3.187  0.00  0.00    +0.067 C 
BRANCH  21  22
ATOM     22  C   UNL     1     -35.581  23.312   4.637  0.00  0.00    +0.217 C 
BRANCH  22  24
ATOM     23  O   UNL     1     -35.372  22.197   6.788  0.00  0.00    -0.248 OA
ATOM     24  C   UNL     1     -35.437  22.125   5.568  0.00  0.00    +0.342 C 
BRANCH  24  25
ATOM     25  O   UNL     1     -35.405  20.946   4.894  0.00  0.00    -0.479 OA
ATOM     26  H   UNL     1     -36.205  20.504   4.688  0.00  0.00    +0.295 HD
ENDBRANCH  24  25
ENDBRANCH  22  24
BRANCH  22  27
ATOM     27  O   UNL     1     -34.365  24.048   4.689  0.00  0.00    -0.345 OA
BRANCH  27  28
ATOM     28  C   UNL     1     -34.604  25.446   4.754  0.00  0.00    +0.143 C 
ATOM     29  C   UNL     1     -35.830  25.698   5.607  0.00  0.00    +0.035 C 
ENDBRANCH  27  28
ENDBRANCH  22  27
ENDBRANCH  21  22
ENDBRANCH   1  21
TORSDOF 12
ENDMDL
MODEL 2
REMARK VINA RESULT:      -6.0      6.936     11.241
REMARK  Name = 208901
REMARK  12 active torsions:
REMARK  status: ('A' for Active; 'I' for Inactive)
REMARK    1  A    between atoms: C_1  and  C_21
REMARK    2  A    between atoms: C_4  and  O_7
REMARK    3  A    between atoms: O_7  and  C_8
REMARK    4  A    between atoms: C_8  and  C_9
REMARK    5  A    between atoms: C_9  and  C_10
REMARK    6  A    between atoms: C_13  and  O_16
REMARK    7  A    between atoms: O_16  and  S_17
REMARK    8  A    between atoms: C_21  and  C_22
REMARK    9  A    between atoms: C_22  and  C_24
REMARK   10  A    between atoms: C_22  and  O_27
REMARK   11  A    between atoms: C_24  and  O_25
REMARK   12  A    between atoms: O_27  and  C_28
REMARK                            x       y       z     vdW  Elec       q    Type
REMARK                         _______ _______ _______ _____ _____    ______ ____
ROOT
ATOM      1  C   UNL     1     -35.290  24.678   4.910  0.00  0.00    -0.019 C 
ATOM      2  C   UNL     1     -34.919  23.362   5.180  0.00  0.00    -0.001 C 
ATOM      3  C   UNL     1     -36.217  24.950   3.903  0.00  0.00    -0.001 C 
ATOM      4  C   UNL     1     -36.401  22.586   3.438  0.00  0.00    +0.139 C 
ATOM      5  C   UNL     1     -35.475  22.315   4.444  0.00  0.00    +0.037 C 
ATOM      6  C   UNL     1     -36.772  23.903   3.167  0.00  0.00    +0.037 C 
ENDROOT
BRANCH   4   7
ATOM      7  O   UNL     1     -36.947  21.559   2.714  0.00  0.00    -0.475 OA
BRANCH   7   8
ATOM      8  C   UNL     1     -36.058  20.538   2.278  0.00  0.00    +0.210 C 
BRANCH   8   9
ATOM      9  C   UNL     1     -35.189  21.070   1.134  0.00  0.00    +0.074 C 
BRANCH   9  10
ATOM     10  C   UNL     1     -33.922  20.302   0.960  0.00  0.00    -0.018 C 
ATOM     11  C   UNL     1     -33.773  19.054   1.564  0.00  0.00    -0.001 C 
ATOM     12  C   UNL     1     -32.885  20.834   0.192  0.00  0.00    -0.001 C 
ATOM     13  C   UNL     1     -31.552  18.868   0.632  0.00  0.00    +0.171 C 
ATOM     14  C   UNL     1     -32.588  18.336   1.400  0.00  0.00    +0.039 C 
ATOM     15  C   UNL     1     -31.700  20.116   0.028  0.00  0.00    +0.039 C 
BRANCH  13  16
ATOM     16  O   UNL     1     -30.396  18.167   0.472  0.00  0.00    -0.360 OA
BRANCH  16  17
ATOM     17  S   UNL     1     -30.283  16.829  -0.467  0.00  0.00    +0.032 S 
ATOM     18  O   UNL     1     -30.237  15.649   0.373  0.00  0.00    -0.062 OA
ATOM     19  O   UNL     1     -31.193  16.945  -1.589  0.00  0.00    -0.062 OA
ATOM     20  C   UNL     1     -28.641  17.130  -1.069  0.00  0.00    +0.194 C 
ENDBRANCH  16  17
ENDBRANCH  13  16
ENDBRANCH   9  10
ENDBRANCH   8   9
ENDBRANCH   7   8
ENDBRANCH   4   7
BRANCH   1  21
ATOM     21  C   UNL     1     -34.695  25.796   5.697  0.00  0.00    +0.067 C 
BRANCH  21  22
ATOM     22  C   UNL     1     -33.719  26.648   4.870  0.00  0.00    +0.217 C 
BRANCH  22  24
ATOM     23  O   UNL     1     -32.215  27.013   6.748  0.00  0.00    -0.248 OA
ATOM     24  C   UNL     1     -32.795  27.452   5.764  0.00  0.00    +0.342 C 
BRANCH  24  25
ATOM     25  O   UNL     1     -32.659  28.735   5.337  0.00  0.00    -0.479 OA
ATOM     26  H   UNL     1     -32.006  28.950   4.701  0.00  0.00    +0.295 HD
ENDBRANCH  24  25
ENDBRANCH  22  24
BRANCH  22  27
ATOM     27  O   UNL     1     -32.908  25.779   4.090  0.00  0.00    -0.345 OA
BRANCH  27  28
ATOM     28  C   UNL     1     -32.621  26.337   2.816  0.00  0.00    +0.143 C 
ATOM     29  C   UNL     1     -33.827  27.119   2.338  0.00  0.00    +0.035 C 
ENDBRANCH  27  28
ENDBRANCH  22  27
ENDBRANCH  21  22
ENDBRANCH   1  21
TORSDOF 12
ENDMDL
MODEL 3
REMARK VINA RESULT:      -6.0      5.058      7.295
REMARK  Name = 208901
REMARK  12 active torsions:
REMARK  status: ('A' for Active; 'I' for Inactive)
REMARK    1  A    between atoms: C_1  and  C_21
REMARK    2  A    between atoms: C_4  and  O_7
REMARK    3  A    between atoms: O_7  and  C_8
REMARK    4  A    between atoms: C_8  and  C_9
REMARK    5  A    between atoms: C_9  and  C_10
REMARK    6  A    between atoms: C_13  and  O_16
REMARK    7  A    between atoms: O_16  and  S_17
REMARK    8  A    between atoms: C_21  and  C_22
REMARK    9  A    between atoms: C_22  and  C_24
REMARK   10  A    between atoms: C_22  and  O_27
REMARK   11  A    between atoms: C_24  and  O_25
REMARK   12  A    between atoms: O_27  and  C_28
REMARK                            x       y       z     vdW  Elec       q    Type
REMARK                         _______ _______ _______ _____ _____    ______ ____
ROOT
ATOM      1  C   UNL     1     -34.760  25.458   4.877  0.00  0.00    -0.019 C 
ATOM      2  C   UNL     1     -34.093  25.917   6.012  0.00  0.00    -0.001 C 
ATOM      3  C   UNL     1     -34.517  26.050   3.637  0.00  0.00    -0.001 C 
ATOM      4  C   UNL     1     -32.939  27.560   4.669  0.00  0.00    +0.139 C 
ATOM      5  C   UNL     1     -33.182  26.968   5.908  0.00  0.00    +0.037 C 
ATOM      6  C   UNL     1     -33.606  27.102   3.534  0.00  0.00    +0.037 C 
ENDROOT
BRANCH   4   7
ATOM      7  O   UNL     1     -32.044  28.593   4.567  0.00  0.00    -0.475 OA
BRANCH   7   8
ATOM      8  C   UNL     1     -32.192  29.461   3.451  0.00  0.00    +0.210 C 
BRANCH   8   9
ATOM      9  C   UNL     1     -32.826  30.779   3.907  0.00  0.00    +0.074 C 
BRANCH   9  10
ATOM     10  C   UNL     1     -33.951  31.218   3.030  0.00  0.00    -0.018 C 
ATOM     11  C   UNL     1     -35.106  30.443   2.935  0.00  0.00    -0.001 C 
ATOM     12  C   UNL     1     -33.846  32.407   2.307  0.00  0.00    -0.001 C 
ATOM     13  C   UNL     1     -36.052  32.044   1.392  0.00  0.00    +0.171 C 
ATOM     14  C   UNL     1     -36.157  30.856   2.116  0.00  0.00    +0.039 C 
ATOM     15  C   UNL     1     -34.897  32.819   1.488  0.00  0.00    +0.039 C 
BRANCH  13  16
ATOM     16  O   UNL     1     -37.079  32.446   0.594  0.00  0.00    -0.360 OA
BRANCH  16  17
ATOM     17  S   UNL     1     -38.544  32.893   1.176  0.00  0.00    +0.032 S 
ATOM     18  O   UNL     1     -39.423  31.743   1.216  0.00  0.00    -0.062 OA
ATOM     19  O   UNL     1     -38.366  33.771   2.316  0.00  0.00    -0.062 OA
ATOM     20  C   UNL     1     -39.024  33.895  -0.207  0.00  0.00    +0.194 C 
ENDBRANCH  16  17
ENDBRANCH  13  16
ENDBRANCH   9  10
ENDBRANCH   8   9
ENDBRANCH   7   8
ENDBRANCH   4   7
BRANCH   1  21
ATOM     21  C   UNL     1     -35.735  24.335   4.988  0.00  0.00    +0.067 C 
BRANCH  21  22
ATOM     22  C   UNL     1     -35.109  22.973   4.648  0.00  0.00    +0.217 C 
BRANCH  22  24
ATOM     23  O   UNL     1     -36.024  22.160   6.750  0.00  0.00    -0.248 OA
ATOM     24  C   UNL     1     -35.456  21.929   5.691  0.00  0.00    +0.342 C 
BRANCH  24  25
ATOM     25  O   UNL     1     -35.078  20.680   5.311  0.00  0.00    -0.479 OA
ATOM     26  H   UNL     1     -34.490  20.568   4.591  0.00  0.00    +0.295 HD
ENDBRANCH  24  25
ENDBRANCH  22  24
BRANCH  22  27
ATOM     27  O   UNL     1     -35.641  22.528   3.406  0.00  0.00    -0.345 OA
BRANCH  27  28
ATOM     28  C   UNL     1     -36.944  23.047   3.181  0.00  0.00    +0.143 C 
ATOM     29  C   UNL     1     -37.205  23.097   1.690  0.00  0.00    +0.035 C 
ENDBRANCH  27  28
ENDBRANCH  22  27
ENDBRANCH  21  22
ENDBRANCH   1  21
TORSDOF 12
ENDMDL
MODEL 4
REMARK VINA RESULT:      -5.9      3.579      6.192
REMARK  Name = 208901
REMARK  12 active torsions:
REMARK  status: ('A' for Active; 'I' for Inactive)
REMARK    1  A    between atoms: C_1  and  C_21
REMARK    2  A    between atoms: C_4  and  O_7
REMARK    3  A    between atoms: O_7  and  C_8
REMARK    4  A    between atoms: C_8  and  C_9
REMARK    5  A    between atoms: C_9  and  C_10
REMARK    6  A    between atoms: C_13  and  O_16
REMARK    7  A    between atoms: O_16  and  S_17
REMARK    8  A    between atoms: C_21  and  C_22
REMARK    9  A    between atoms: C_22  and  C_24
REMARK   10  A    between atoms: C_22  and  O_27
REMARK   11  A    between atoms: C_24  and  O_25
REMARK   12  A    between atoms: O_27  and  C_28
REMARK                            x       y       z     vdW  Elec       q    Type
REMARK                         _______ _______ _______ _____ _____    ______ ____
ROOT
ATOM      1  C   UNL     1     -34.752  24.311   4.771  0.00  0.00    -0.019 C 
ATOM      2  C   UNL     1     -34.767  24.084   3.396  0.00  0.00    -0.001 C 
ATOM      3  C   UNL     1     -35.063  23.276   5.653  0.00  0.00    -0.001 C 
ATOM      4  C   UNL     1     -35.402  21.785   3.783  0.00  0.00    +0.139 C 
ATOM      5  C   UNL     1     -35.092  22.820   2.901  0.00  0.00    +0.037 C 
ATOM      6  C   UNL     1     -35.388  22.013   5.159  0.00  0.00    +0.037 C 
ENDROOT
BRANCH   4   7
ATOM      7  O   UNL     1     -35.722  20.545   3.298  0.00  0.00    -0.475 OA
BRANCH   7   8
ATOM      8  C   UNL     1     -35.573  20.345   1.898  0.00  0.00    +0.210 C 
BRANCH   8   9
ATOM      9  C   UNL     1     -36.950  20.138   1.261  0.00  0.00    +0.074 C 
BRANCH   9  10
ATOM     10  C   UNL     1     -37.749  21.395   1.180  0.00  0.00    -0.018 C 
ATOM     11  C   UNL     1     -38.813  21.605   2.058  0.00  0.00    -0.001 C 
ATOM     12  C   UNL     1     -37.432  22.363   0.226  0.00  0.00    -0.001 C 
ATOM     13  C   UNL     1     -39.241  23.747   1.028  0.00  0.00    +0.171 C 
ATOM     14  C   UNL     1     -39.559  22.781   1.982  0.00  0.00    +0.039 C 
ATOM     15  C   UNL     1     -38.178  23.539   0.150  0.00  0.00    +0.039 C 
BRANCH  13  16
ATOM     16  O   UNL     1     -39.969  24.895   0.955  0.00  0.00    -0.360 OA
BRANCH  16  17
ATOM     17  S   UNL     1     -39.599  26.246   1.806  0.00  0.00    +0.032 S 
ATOM     18  O   UNL     1     -38.386  26.025   2.565  0.00  0.00    -0.062 OA
ATOM     19  O   UNL     1     -39.786  27.414   0.968  0.00  0.00    -0.062 OA
ATOM     20  C   UNL     1     -40.966  26.167   2.934  0.00  0.00    +0.194 C 
ENDBRANCH  16  17
ENDBRANCH  13  16
ENDBRANCH   9  10
ENDBRANCH   8   9
ENDBRANCH   7   8
ENDBRANCH   4   7
BRANCH   1  21
ATOM     21  C   UNL     1     -34.405  25.662   5.299  0.00  0.00    +0.067 C 
BRANCH  21  22
ATOM     22  C   UNL     1     -33.652  26.523   4.272  0.00  0.00    +0.217 C 
BRANCH  22  24
ATOM     23  O   UNL     1     -34.046  28.792   3.489  0.00  0.00    -0.248 OA
ATOM     24  C   UNL     1     -34.491  27.701   3.817  0.00  0.00    +0.342 C 
BRANCH  24  25
ATOM     25  O   UNL     1     -35.817  27.405   3.793  0.00  0.00    -0.479 OA
ATOM     26  H   UNL     1     -36.118  26.637   3.348  0.00  0.00    +0.295 HD
ENDBRANCH  24  25
ENDBRANCH  22  24
BRANCH  22  27
ATOM     27  O   UNL     1     -32.482  27.046   4.891  0.00  0.00    -0.345 OA
BRANCH  27  28
ATOM     28  C   UNL     1     -32.680  27.261   6.281  0.00  0.00    +0.143 C 
ATOM     29  C   UNL     1     -31.974  28.538   6.687  0.00  0.00    +0.035 C 
ENDBRANCH  27  28
ENDBRANCH  22  27
ENDBRANCH  21  22
ENDBRANCH   1  21
TORSDOF 12
ENDMDL
MODEL 5
REMARK VINA RESULT:      -5.9      6.173      8.673
REMARK  Name = 208901
REMARK  12 active torsions:
REMARK  status: ('A' for Active; 'I' for Inactive)
REMARK    1  A    between atoms: C_1  and  C_21
REMARK    2  A    between atoms: C_4  and  O_7
REMARK    3  A    between atoms: O_7  and  C_8
REMARK    4  A    between atoms: C_8  and  C_9
REMARK    5  A    between atoms: C_9  and  C_10
REMARK    6  A    between atoms: C_13  and  O_16
REMARK    7  A    between atoms: O_16  and  S_17
REMARK    8  A    between atoms: C_21  and  C_22
REMARK    9  A    between atoms: C_22  and  C_24
REMARK   10  A    between atoms: C_22  and  O_27
REMARK   11  A    between atoms: C_24  and  O_25
REMARK   12  A    between atoms: O_27  and  C_28
REMARK                            x       y       z     vdW  Elec       q    Type
REMARK                         _______ _______ _______ _____ _____    ______ ____
ROOT
ATOM      1  C   UNL     1     -33.060  19.898   0.563  0.00  0.00    -0.019 C 
ATOM      2  C   UNL     1     -33.198  21.172   0.013  0.00  0.00    -0.001 C 
ATOM      3  C   UNL     1     -34.014  19.418   1.461  0.00  0.00    -0.001 C 
ATOM      4  C   UNL     1     -35.245  21.487   1.256  0.00  0.00    +0.139 C 
ATOM      5  C   UNL     1     -34.291  21.966   0.359  0.00  0.00    +0.037 C 
ATOM      6  C   UNL     1     -35.107  20.213   1.807  0.00  0.00    +0.037 C 
ENDROOT
BRANCH   4   7
ATOM      7  O   UNL     1     -36.318  22.267   1.597  0.00  0.00    -0.475 OA
BRANCH   7   8
ATOM      8  C   UNL     1     -36.699  22.272   2.967  0.00  0.00    +0.210 C 
BRANCH   8   9
ATOM      9  C   UNL     1     -37.127  23.684   3.374  0.00  0.00    +0.074 C 
BRANCH   9  10
ATOM     10  C   UNL     1     -36.016  24.482   3.969  0.00  0.00    -0.018 C 
ATOM     11  C   UNL     1     -34.770  24.518   3.344  0.00  0.00    -0.001 C 
ATOM     12  C   UNL     1     -36.224  25.194   5.151  0.00  0.00    -0.001 C 
ATOM     13  C   UNL     1     -33.940  25.976   5.082  0.00  0.00    +0.171 C 
ATOM     14  C   UNL     1     -33.731  25.264   3.901  0.00  0.00    +0.039 C 
ATOM     15  C   UNL     1     -35.186  25.941   5.707  0.00  0.00    +0.039 C 
BRANCH  13  16
ATOM     16  O   UNL     1     -32.926  26.705   5.624  0.00  0.00    -0.360 OA
BRANCH  16  17
ATOM     17  S   UNL     1     -32.323  28.058   4.924  0.00  0.00    +0.032 S 
ATOM     18  O   UNL     1     -31.142  27.722   4.155  0.00  0.00    -0.062 OA
ATOM     19  O   UNL     1     -33.408  28.844   4.373  0.00  0.00    -0.062 OA
ATOM     20  C   UNL     1     -31.788  28.850   6.420  0.00  0.00    +0.194 C 
ENDBRANCH  16  17
ENDBRANCH  13  16
ENDBRANCH   9  10
ENDBRANCH   8   9
ENDBRANCH   7   8
ENDBRANCH   4   7
BRANCH   1  21
ATOM     21  C   UNL     1     -31.891  19.049   0.193  0.00  0.00    +0.067 C 
BRANCH  21  22
ATOM     22  C   UNL     1     -31.936  17.660   0.851  0.00  0.00    +0.217 C 
BRANCH  22  24
ATOM     23  O   UNL     1     -32.069  16.741  -1.397  0.00  0.00    -0.248 OA
ATOM     24  C   UNL     1     -32.040  16.561  -0.187  0.00  0.00    +0.342 C 
BRANCH  24  25
ATOM     25  O   UNL     1     -32.078  15.326   0.377  0.00  0.00    -0.479 OA
ATOM     26  H   UNL     1     -31.410  15.066   0.980  0.00  0.00    +0.295 HD
ENDBRANCH  24  25
ENDBRANCH  22  24
BRANCH  22  27
ATOM     27  O   UNL     1     -30.723  17.459   1.567  0.00  0.00    -0.345 OA
BRANCH  27  28
ATOM     28  C   UNL     1     -29.596  17.874   0.809  0.00  0.00    +0.143 C 
ATOM     29  C   UNL     1     -28.444  16.930   1.082  0.00  0.00    +0.035 C 
ENDBRANCH  27  28
ENDBRANCH  22  27
ENDBRANCH  21  22
ENDBRANCH   1  21
TORSDOF 12
ENDMDL
MODEL 6
REMARK VINA RESULT:      -5.8      7.170     11.178
REMARK  Name = 208901
REMARK  12 active torsions:
REMARK  status: ('A' for Active; 'I' for Inactive)
REMARK    1  A    between atoms: C_1  and  C_21
REMARK    2  A    between atoms: C_4  and  O_7
REMARK    3  A    between atoms: O_7  and  C_8
REMARK    4  A    between atoms: C_8  and  C_9
REMARK    5  A    between atoms: C_9  and  C_10
REMARK    6  A    between atoms: C_13  and  O_16
REMARK    7  A    between atoms: O_16  and  S_17
REMARK    8  A    between atoms: C_21  and  C_22
REMARK    9  A    between atoms: C_22  and  C_24
REMARK   10  A    between atoms: C_22  and  O_27
REMARK   11  A    between atoms: C_24  and  O_25
REMARK   12  A    between atoms: O_27  and  C_28
REMARK                            x       y       z     vdW  Elec       q    Type
REMARK                         _______ _______ _______ _____ _____    ______ ____
ROOT
ATOM      1  C   UNL     1     -35.078  24.376   4.989  0.00  0.00    -0.019 C 
ATOM      2  C   UNL     1     -35.140  23.244   5.801  0.00  0.00    -0.001 C 
ATOM      3  C   UNL     1     -35.172  24.246   3.603  0.00  0.00    -0.001 C 
ATOM      4  C   UNL     1     -35.390  21.852   3.843  0.00  0.00    +0.139 C 
ATOM      5  C   UNL     1     -35.296  21.982   5.229  0.00  0.00    +0.037 C 
ATOM      6  C   UNL     1     -35.327  22.984   3.030  0.00  0.00    +0.037 C 
ENDROOT
BRANCH   4   7
ATOM      7  O   UNL     1     -35.542  20.613   3.280  0.00  0.00    -0.475 OA
BRANCH   7   8
ATOM      8  C   UNL     1     -36.012  20.571   1.938  0.00  0.00    +0.210 C 
BRANCH   8   9
ATOM      9  C   UNL     1     -35.469  19.318   1.244  0.00  0.00    +0.074 C 
BRANCH   9  10
ATOM     10  C   UNL     1     -34.026  19.431   0.883  0.00  0.00    -0.018 C 
ATOM     11  C   UNL     1     -33.562  20.558   0.205  0.00  0.00    -0.001 C 
ATOM     12  C   UNL     1     -33.140  18.409   1.225  0.00  0.00    -0.001 C 
ATOM     13  C   UNL     1     -31.327  19.641   0.210  0.00  0.00    +0.171 C 
ATOM     14  C   UNL     1     -32.213  20.664  -0.132  0.00  0.00    +0.039 C 
ATOM     15  C   UNL     1     -31.790  18.515   0.889  0.00  0.00    +0.039 C 
BRANCH  13  16
ATOM     16  O   UNL     1     -30.010  19.745  -0.118  0.00  0.00    -0.360 OA
BRANCH  16  17
ATOM     17  S   UNL     1     -29.463  19.672  -1.661  0.00  0.00    +0.032 S 
ATOM     18  O   UNL     1     -30.223  18.685  -2.399  0.00  0.00    -0.062 OA
ATOM     19  O   UNL     1     -29.244  21.014  -2.162  0.00  0.00    -0.062 OA
ATOM     20  C   UNL     1     -27.877  18.969  -1.290  0.00  0.00    +0.194 C 
ENDBRANCH  16  17
ENDBRANCH  13  16
ENDBRANCH   9  10
ENDBRANCH   8   9
ENDBRANCH   7   8
ENDBRANCH   4   7
BRANCH   1  21
ATOM     21  C   UNL     1     -34.911  25.725   5.602  0.00  0.00    +0.067 C 
BRANCH  21  22
ATOM     22  C   UNL     1     -33.644  26.445   5.113  0.00  0.00    +0.217 C 
BRANCH  22  24
ATOM     23  O   UNL     1     -33.202  27.287   2.874  0.00  0.00    -0.248 OA
ATOM     24  C   UNL     1     -33.919  27.259   3.864  0.00  0.00    +0.342 C 
BRANCH  24  25
ATOM     25  O   UNL     1     -35.083  27.956   3.954  0.00  0.00    -0.479 OA
ATOM     26  H   UNL     1     -35.772  27.798   3.339  0.00  0.00    +0.295 HD
ENDBRANCH  24  25
ENDBRANCH  22  24
BRANCH  22  27
ATOM     27  O   UNL     1     -33.215  27.347   6.126  0.00  0.00    -0.345 OA
BRANCH  27  28
ATOM     28  C   UNL     1     -32.026  28.025   5.750  0.00  0.00    +0.143 C 
ATOM     29  C   UNL     1     -31.768  29.149   6.732  0.00  0.00    +0.035 C 
ENDBRANCH  27  28
ENDBRANCH  22  27
ENDBRANCH  21  22
ENDBRANCH   1  21
TORSDOF 12
ENDMDL
MODEL 7
REMARK VINA RESULT:      -5.8      6.303     10.139
REMARK  Name = 208901
REMARK  12 active torsions:
REMARK  status: ('A' for Active; 'I' for Inactive)
REMARK    1  A    between atoms: C_1  and  C_21
REMARK    2  A    between atoms: C_4  and  O_7
REMARK    3  A    between atoms: O_7  and  C_8
REMARK    4  A    between atoms: C_8  and  C_9
REMARK    5  A    between atoms: C_9  and  C_10
REMARK    6  A    between atoms: C_13  and  O_16
REMARK    7  A    between atoms: O_16  and  S_17
REMARK    8  A    between atoms: C_21  and  C_22
REMARK    9  A    between atoms: C_22  and  C_24
REMARK   10  A    between atoms: C_22  and  O_27
REMARK   11  A    between atoms: C_24  and  O_25
REMARK   12  A    between atoms: O_27  and  C_28
REMARK                            x       y       z     vdW  Elec       q    Type
REMARK                         _______ _______ _______ _____ _____    ______ ____
ROOT
ATOM      1  C   UNL     1     -34.584  25.537   5.488  0.00  0.00    -0.019 C 
ATOM      2  C   UNL     1     -34.301  24.196   5.228  0.00  0.00    -0.001 C 
ATOM      3  C   UNL     1     -35.820  26.073   5.125  0.00  0.00    -0.001 C 
ATOM      4  C   UNL     1     -36.490  23.926   4.242  0.00  0.00    +0.139 C 
ATOM      5  C   UNL     1     -35.254  23.391   4.605  0.00  0.00    +0.037 C 
ATOM      6  C   UNL     1     -36.772  25.267   4.501  0.00  0.00    +0.037 C 
ENDROOT
BRANCH   4   7
ATOM      7  O   UNL     1     -37.426  23.135   3.629  0.00  0.00    -0.475 OA
BRANCH   7   8
ATOM      8  C   UNL     1     -37.272  22.925   2.231  0.00  0.00    +0.210 C 
BRANCH   8   9
ATOM      9  C   UNL     1     -37.052  21.434   1.959  0.00  0.00    +0.074 C 
BRANCH   9  10
ATOM     10  C   UNL     1     -35.673  21.127   1.479  0.00  0.00    -0.018 C 
ATOM     11  C   UNL     1     -34.993  22.042   0.675  0.00  0.00    -0.001 C 
ATOM     12  C   UNL     1     -35.063  19.924   1.836  0.00  0.00    -0.001 C 
ATOM     13  C   UNL     1     -33.095  20.551   0.584  0.00  0.00    +0.171 C 
ATOM     14  C   UNL     1     -33.704  21.754   0.227  0.00  0.00    +0.039 C 
ATOM     15  C   UNL     1     -33.773  19.637   1.388  0.00  0.00    +0.039 C 
BRANCH  13  16
ATOM     16  O   UNL     1     -31.836  20.272   0.147  0.00  0.00    -0.360 OA
BRANCH  16  17
ATOM     17  S   UNL     1     -31.486  18.993  -0.815  0.00  0.00    +0.032 S 
ATOM     18  O   UNL     1     -31.035  17.882  -0.002  0.00  0.00    -0.062 OA
ATOM     19  O   UNL     1     -32.517  18.846  -1.822  0.00  0.00    -0.062 OA
ATOM     20  C   UNL     1     -30.062  19.702  -1.600  0.00  0.00    +0.194 C 
ENDBRANCH  16  17
ENDBRANCH  13  16
ENDBRANCH   9  10
ENDBRANCH   8   9
ENDBRANCH   7   8
ENDBRANCH   4   7
BRANCH   1  21
ATOM     21  C   UNL     1     -33.564  26.398   6.154  0.00  0.00    +0.067 C 
BRANCH  21  22
ATOM     22  C   UNL     1     -32.982  27.463   5.211  0.00  0.00    +0.217 C 
BRANCH  22  24
ATOM     23  O   UNL     1     -30.827  27.839   6.275  0.00  0.00    -0.248 OA
ATOM     24  C   UNL     1     -31.905  28.279   5.898  0.00  0.00    +0.342 C 
BRANCH  24  25
ATOM     25  O   UNL     1     -32.261  29.583   6.036  0.00  0.00    -0.479 OA
ATOM     26  H   UNL     1     -31.671  30.188   6.440  0.00  0.00    +0.295 HD
ENDBRANCH  24  25
ENDBRANCH  22  24
BRANCH  22  27
ATOM     27  O   UNL     1     -32.380  26.806   4.103  0.00  0.00    -0.345 OA
BRANCH  27  28
ATOM     28  C   UNL     1     -32.926  27.254   2.871  0.00  0.00    +0.143 C 
ATOM     29  C   UNL     1     -33.321  26.052   2.040  0.00  0.00    +0.035 C 
ENDBRANCH  27  28
ENDBRANCH  22  27
ENDBRANCH  21  22
ENDBRANCH   1  21
TORSDOF 12
ENDMDL
MODEL 8
REMARK VINA RESULT:      -5.8      2.670      4.502
REMARK  Name = 208901
REMARK  12 active torsions:
REMARK  status: ('A' for Active; 'I' for Inactive)
REMARK    1  A    between atoms: C_1  and  C_21
REMARK    2  A    between atoms: C_4  and  O_7
REMARK    3  A    between atoms: O_7  and  C_8
REMARK    4  A    between atoms: C_8  and  C_9
REMARK    5  A    between atoms: C_9  and  C_10
REMARK    6  A    between atoms: C_13  and  O_16
REMARK    7  A    between atoms: O_16  and  S_17
REMARK    8  A    between atoms: C_21  and  C_22
REMARK    9  A    between atoms: C_22  and  C_24
REMARK   10  A    between atoms: C_22  and  O_27
REMARK   11  A    between atoms: C_24  and  O_25
REMARK   12  A    between atoms: O_27  and  C_28
REMARK                            x       y       z     vdW  Elec       q    Type
REMARK                         _______ _______ _______ _____ _____    ______ ____
ROOT
ATOM      1  C   UNL     1     -34.736  25.339   5.473  0.00  0.00    -0.019 C 
ATOM      2  C   UNL     1     -34.417  23.996   5.276  0.00  0.00    -0.001 C 
ATOM      3  C   UNL     1     -35.943  25.847   4.993  0.00  0.00    -0.001 C 
ATOM      4  C   UNL     1     -36.513  23.668   4.121  0.00  0.00    +0.139 C 
ATOM      5  C   UNL     1     -35.306  23.160   4.600  0.00  0.00    +0.037 C 
ATOM      6  C   UNL     1     -36.832  25.011   4.317  0.00  0.00    +0.037 C 
ENDROOT
BRANCH   4   7
ATOM      7  O   UNL     1     -37.386  22.847   3.456  0.00  0.00    -0.475 OA
BRANCH   7   8
ATOM      8  C   UNL     1     -37.876  23.312   2.204  0.00  0.00    +0.210 C 
BRANCH   8   9
ATOM      9  C   UNL     1     -39.366  22.980   2.082  0.00  0.00    +0.074 C 
BRANCH   9  10
ATOM     10  C   UNL     1     -40.239  24.188   2.141  0.00  0.00    -0.018 C 
ATOM     11  C   UNL     1     -41.180  24.419   1.138  0.00  0.00    -0.001 C 
ATOM     12  C   UNL     1     -40.115  25.086   3.202  0.00  0.00    -0.001 C 
ATOM     13  C   UNL     1     -41.871  26.447   2.255  0.00  0.00    +0.171 C 
ATOM     14  C   UNL     1     -41.996  25.549   1.194  0.00  0.00    +0.039 C 
ATOM     15  C   UNL     1     -40.931  26.216   3.258  0.00  0.00    +0.039 C 
BRANCH  13  16
ATOM     16  O   UNL     1     -42.669  27.549   2.309  0.00  0.00    -0.360 OA
BRANCH  16  17
ATOM     17  S   UNL     1     -44.221  27.506   2.833  0.00  0.00    +0.032 S 
ATOM     18  O   UNL     1     -45.109  27.311   1.706  0.00  0.00    -0.062 OA
ATOM     19  O   UNL     1     -44.306  26.699   4.034  0.00  0.00    -0.062 OA
ATOM     20  C   UNL     1     -44.328  29.209   3.318  0.00  0.00    +0.194 C 
ENDBRANCH  16  17
ENDBRANCH  13  16
ENDBRANCH   9  10
ENDBRANCH   8   9
ENDBRANCH   7   8
ENDBRANCH   4   7
BRANCH   1  21
ATOM     21  C   UNL     1     -33.785  26.232   6.195  0.00  0.00    +0.067 C 
BRANCH  21  22
ATOM     22  C   UNL     1     -33.167  27.302   5.281  0.00  0.00    +0.217 C 
BRANCH  22  24
ATOM     23  O   UNL     1     -32.137  29.379   6.017  0.00  0.00    -0.248 OA
ATOM     24  C   UNL     1     -32.164  28.156   6.030  0.00  0.00    +0.342 C 
BRANCH  24  25
ATOM     25  O   UNL     1     -31.289  27.405   6.750  0.00  0.00    -0.479 OA
ATOM     26  H   UNL     1     -31.540  26.554   7.051  0.00  0.00    +0.295 HD
ENDBRANCH  24  25
ENDBRANCH  22  24
BRANCH  22  27
ATOM     27  O   UNL     1     -32.470  26.649   4.227  0.00  0.00    -0.345 OA
BRANCH  27  28
ATOM     28  C   UNL     1     -32.625  27.338   2.995  0.00  0.00    +0.143 C 
ATOM     29  C   UNL     1     -33.623  26.590   2.134  0.00  0.00    +0.035 C 
ENDBRANCH  27  28
ENDBRANCH  22  27
ENDBRANCH  21  22
ENDBRANCH   1  21
TORSDOF 12
ENDMDL
MODEL 9
REMARK VINA RESULT:      -5.7      6.034     10.561
REMARK  Name = 208901
REMARK  12 active torsions:
REMARK  status: ('A' for Active; 'I' for Inactive)
REMARK    1  A    between atoms: C_1  and  C_21
REMARK    2  A    between atoms: C_4  and  O_7
REMARK    3  A    between atoms: O_7  and  C_8
REMARK    4  A    between atoms: C_8  and  C_9
REMARK    5  A    between atoms: C_9  and  C_10
REMARK    6  A    between atoms: C_13  and  O_16
REMARK    7  A    between atoms: O_16  and  S_17
REMARK    8  A    between atoms: C_21  and  C_22
REMARK    9  A    between atoms: C_22  and  C_24
REMARK   10  A    between atoms: C_22  and  O_27
REMARK   11  A    between atoms: C_24  and  O_25
REMARK   12  A    between atoms: O_27  and  C_28
REMARK                            x       y       z     vdW  Elec       q    Type
REMARK                         _______ _______ _______ _____ _____    ______ ____
ROOT
ATOM      1  C   UNL     1     -35.936  22.337   2.263  0.00  0.00    -0.019 C 
ATOM      2  C   UNL     1     -35.718  21.009   2.629  0.00  0.00    -0.001 C 
ATOM      3  C   UNL     1     -35.196  22.905   1.226  0.00  0.00    -0.001 C 
ATOM      4  C   UNL     1     -34.022  20.816   0.920  0.00  0.00    +0.139 C 
ATOM      5  C   UNL     1     -34.761  20.249   1.958  0.00  0.00    +0.037 C 
ATOM      6  C   UNL     1     -34.238  22.145   0.555  0.00  0.00    +0.037 C 
ENDROOT
BRANCH   4   7
ATOM      7  O   UNL     1     -33.081  20.070   0.261  0.00  0.00    -0.475 OA
BRANCH   7   8
ATOM      8  C   UNL     1     -33.486  19.456  -0.956  0.00  0.00    +0.210 C 
BRANCH   8   9
ATOM      9  C   UNL     1     -33.388  17.934  -0.820  0.00  0.00    +0.074 C 
BRANCH   9  10
ATOM     10  C   UNL     1     -34.709  17.283  -0.585  0.00  0.00    -0.018 C 
ATOM     11  C   UNL     1     -35.877  18.045  -0.611  0.00  0.00    -0.001 C 
ATOM     12  C   UNL     1     -34.777  15.911  -0.341  0.00  0.00    -0.001 C 
ATOM     13  C   UNL     1     -37.180  16.064  -0.148  0.00  0.00    +0.171 C 
ATOM     14  C   UNL     1     -37.113  17.436  -0.392  0.00  0.00    +0.039 C 
ATOM     15  C   UNL     1     -36.013  15.302  -0.122  0.00  0.00    +0.039 C 
BRANCH  13  16
ATOM     16  O   UNL     1     -38.386  15.470   0.065  0.00  0.00    -0.360 OA
BRANCH  16  17
ATOM     17  S   UNL     1     -39.526  15.316  -1.101  0.00  0.00    +0.032 S 
ATOM     18  O   UNL     1     -40.525  16.353  -0.945  0.00  0.00    -0.062 OA
ATOM     19  O   UNL     1     -38.886  15.043  -2.373  0.00  0.00    -0.062 OA
ATOM     20  C   UNL     1     -40.227  13.796  -0.513  0.00  0.00    +0.194 C 
ENDBRANCH  16  17
ENDBRANCH  13  16
ENDBRANCH   9  10
ENDBRANCH   8   9
ENDBRANCH   7   8
ENDBRANCH   4   7
BRANCH   1  21
ATOM     21  C   UNL     1     -36.959  23.150   2.981  0.00  0.00    +0.067 C 
BRANCH  21  22
ATOM     22  C   UNL     1     -36.334  24.170   3.946  0.00  0.00    +0.217 C 
BRANCH  22  24
ATOM     23  O   UNL     1     -37.980  25.772   3.146  0.00  0.00    -0.248 OA
ATOM     24  C   UNL     1     -37.109  25.472   3.952  0.00  0.00    +0.342 C 
BRANCH  24  25
ATOM     25  O   UNL     1     -36.741  26.283   4.978  0.00  0.00    -0.479 OA
ATOM     26  H   UNL     1     -37.070  27.159   5.024  0.00  0.00    +0.295 HD
ENDBRANCH  24  25
ENDBRANCH  22  24
BRANCH  22  27
ATOM     27  O   UNL     1     -36.385  23.637   5.264  0.00  0.00    -0.345 OA
BRANCH  27  28
ATOM     28  C   UNL     1     -35.094  23.276   5.731  0.00  0.00    +0.143 C 
ATOM     29  C   UNL     1     -35.150  21.876   6.306  0.00  0.00    +0.035 C 
ENDBRANCH  27  28
ENDBRANCH  22  27
ENDBRANCH  21  22
ENDBRANCH   1  21
TORSDOF 12
ENDMDL
