MODEL 1
REMARK VINA RESULT:      -6.7      0.000      0.000
REMARK  Name = 5802867
REMARK  8 active torsions:
REMARK  status: ('A' for Active; 'I' for Inactive)
REMARK    1  A    between atoms: C_4  and  O_20
REMARK    2  A    between atoms: C_13  and  C_14
REMARK    3  A    between atoms: C_15  and  C_17
REMARK    4  A    between atoms: C_17  and  O_18
REMARK    5  A    between atoms: O_20  and  C_22
REMARK    6  A    between atoms: C_22  and  C_23
REMARK    7  A    between atoms: C_25  and  O_30
REMARK    8  A    between atoms: C_29  and  O_32
REMARK                            x       y       z     vdW  Elec       q    Type
REMARK                         _______ _______ _______ _____ _____    ______ ____
ROOT
ATOM      1  O   UNL     1     -32.330  27.488   3.939  0.00  0.00    -0.471 OA
ATOM      2  O   UNL     1     -34.412  24.517   1.810  0.00  0.00    -0.287 OA
ATOM      3  O   UNL     1     -36.251  22.979   5.824  0.00  0.00    -0.292 OA
ATOM      4  C   UNL     1     -35.844  24.018   3.684  0.00  0.00    +0.241 C 
ATOM      5  C   UNL     1     -34.686  24.718   2.992  0.00  0.00    +0.215 C 
ATOM      6  C   UNL     1     -35.694  23.874   5.190  0.00  0.00    +0.198 C 
ATOM      7  C   UNL     1     -33.920  25.688   3.817  0.00  0.00    +0.056 C 
ATOM      8  C   UNL     1     -34.072  25.731   5.264  0.00  0.00    -0.009 C 
ATOM      9  C   UNL     1     -37.131  24.787   3.388  0.00  0.00    +0.060 C 
ATOM     10  C   UNL     1     -34.882  24.884   5.918  0.00  0.00    +0.095 C 
ATOM     11  C   UNL     1     -33.288  26.714   6.005  0.00  0.00    +0.033 C 
ATOM     12  C   UNL     1     -33.074  26.552   3.238  0.00  0.00    +0.235 C 
ATOM     13  C   UNL     1     -32.467  27.536   5.328  0.00  0.00    +0.139 C 
ENDROOT
BRANCH  13  14
ATOM     14  C   UNL     1     -31.654  28.536   5.961  0.00  0.00    +0.044 C 
ATOM     15  C   UNL     1     -30.317  28.547   5.885  0.00  0.00    +0.085 C 
BRANCH  15  17
ATOM     16  O   UNL     1     -29.029  30.575   6.036  0.00  0.00    -0.245 OA
ATOM     17  C   UNL     1     -29.556  29.612   6.566  0.00  0.00    +0.338 C 
BRANCH  17  18
ATOM     18  O   UNL     1     -29.536  29.351   7.893  0.00  0.00    -0.477 OA
ATOM     19  H   UNL     1     -30.336  29.345   8.382  0.00  0.00    +0.295 HD
ENDBRANCH  17  18
ENDBRANCH  15  17
ENDBRANCH  13  14
BRANCH   4  20
ATOM     20  O   UNL     1     -35.981  22.723   3.124  0.00  0.00    -0.438 OA
BRANCH  20  22
ATOM     21  O   UNL     1     -38.278  22.765   2.976  0.00  0.00    -0.245 OA
ATOM     22  C   UNL     1     -37.182  22.442   2.544  0.00  0.00    +0.344 C 
BRANCH  22  23
ATOM     23  C   UNL     1     -36.997  21.671   1.289  0.00  0.00    +0.105 C 
ATOM     24  C   UNL     1     -37.064  22.327   0.074  0.00  0.00    -0.010 C 
ATOM     25  C   UNL     1     -36.764  20.310   1.371  0.00  0.00    +0.143 C 
ATOM     26  C   UNL     1     -36.889  21.597  -1.101  0.00  0.00    +0.033 C 
ATOM     27  C   UNL     1     -36.589  19.581   0.195  0.00  0.00    +0.073 C 
ATOM     28  C   UNL     1     -37.316  23.797  -0.020  0.00  0.00    +0.031 C 
ATOM     29  C   UNL     1     -36.652  20.224  -1.041  0.00  0.00    +0.136 C 
BRANCH  25  30
ATOM     30  O   UNL     1     -36.699  19.661   2.568  0.00  0.00    -0.505 OA
ATOM     31  H   UNL     1     -36.024  19.030   2.723  0.00  0.00    +0.292 HD
ENDBRANCH  25  30
BRANCH  29  32
ATOM     32  O   UNL     1     -36.482  19.512  -2.189  0.00  0.00    -0.505 OA
ATOM     33  H   UNL     1     -35.733  19.668  -2.730  0.00  0.00    +0.292 HD
ENDBRANCH  29  32
ENDBRANCH  22  23
ENDBRANCH  20  22
ENDBRANCH   4  20
TORSDOF 8
ENDMDL
MODEL 2
REMARK VINA RESULT:      -6.6      3.361      4.278
REMARK  Name = 5802867
REMARK  8 active torsions:
REMARK  status: ('A' for Active; 'I' for Inactive)
REMARK    1  A    between atoms: C_4  and  O_20
REMARK    2  A    between atoms: C_13  and  C_14
REMARK    3  A    between atoms: C_15  and  C_17
REMARK    4  A    between atoms: C_17  and  O_18
REMARK    5  A    between atoms: O_20  and  C_22
REMARK    6  A    between atoms: C_22  and  C_23
REMARK    7  A    between atoms: C_25  and  O_30
REMARK    8  A    between atoms: C_29  and  O_32
REMARK                            x       y       z     vdW  Elec       q    Type
REMARK                         _______ _______ _______ _____ _____    ______ ____
ROOT
ATOM      1  O   UNL     1     -34.940  30.367   2.231  0.00  0.00    -0.471 OA
ATOM      2  O   UNL     1     -36.803  26.599   2.077  0.00  0.00    -0.287 OA
ATOM      3  O   UNL     1     -33.239  24.778   4.494  0.00  0.00    -0.292 OA
ATOM      4  C   UNL     1     -35.356  25.688   3.776  0.00  0.00    +0.241 C 
ATOM      5  C   UNL     1     -35.833  26.763   2.815  0.00  0.00    +0.215 C 
ATOM      6  C   UNL     1     -33.881  25.764   4.139  0.00  0.00    +0.198 C 
ATOM      7  C   UNL     1     -35.080  28.044   2.839  0.00  0.00    +0.056 C 
ATOM      8  C   UNL     1     -33.791  28.148   3.508  0.00  0.00    -0.009 C 
ATOM      9  C   UNL     1     -36.183  25.772   5.058  0.00  0.00    +0.060 C 
ATOM     10  C   UNL     1     -33.214  27.093   4.104  0.00  0.00    +0.095 C 
ATOM     11  C   UNL     1     -33.114  29.440   3.492  0.00  0.00    +0.033 C 
ATOM     12  C   UNL     1     -35.581  29.138   2.246  0.00  0.00    +0.235 C 
ATOM     13  C   UNL     1     -33.703  30.476   2.868  0.00  0.00    +0.139 C 
ENDROOT
BRANCH  13  14
ATOM     14  C   UNL     1     -33.122  31.787   2.796  0.00  0.00    +0.044 C 
ATOM     15  C   UNL     1     -33.731  32.825   2.208  0.00  0.00    +0.085 C 
BRANCH  15  17
ATOM     16  O   UNL     1     -33.611  35.230   2.199  0.00  0.00    -0.245 OA
ATOM     17  C   UNL     1     -33.063  34.140   2.177  0.00  0.00    +0.338 C 
BRANCH  17  18
ATOM     18  O   UNL     1     -31.725  33.948   2.121  0.00  0.00    -0.477 OA
ATOM     19  H   UNL     1     -31.190  34.525   1.612  0.00  0.00    +0.295 HD
ENDBRANCH  17  18
ENDBRANCH  15  17
ENDBRANCH  13  14
BRANCH   4  20
ATOM     20  O   UNL     1     -35.605  24.423   3.189  0.00  0.00    -0.438 OA
BRANCH  20  22
ATOM     21  O   UNL     1     -36.259  23.264   5.068  0.00  0.00    -0.245 OA
ATOM     22  C   UNL     1     -36.407  23.577   3.897  0.00  0.00    +0.344 C 
BRANCH  22  23
ATOM     23  C   UNL     1     -37.515  23.065   3.052  0.00  0.00    +0.105 C 
ATOM     24  C   UNL     1     -37.341  21.892   2.343  0.00  0.00    -0.010 C 
ATOM     25  C   UNL     1     -38.697  23.782   2.997  0.00  0.00    +0.143 C 
ATOM     26  C   UNL     1     -38.385  21.416   1.551  0.00  0.00    +0.033 C 
ATOM     27  C   UNL     1     -39.742  23.305   2.205  0.00  0.00    +0.073 C 
ATOM     28  C   UNL     1     -36.066  21.114   2.398  0.00  0.00    +0.031 C 
ATOM     29  C   UNL     1     -39.586  22.123   1.482  0.00  0.00    +0.136 C 
BRANCH  25  30
ATOM     30  O   UNL     1     -38.871  24.940   3.695  0.00  0.00    -0.505 OA
ATOM     31  H   UNL     1     -39.502  25.570   3.408  0.00  0.00    +0.292 HD
ENDBRANCH  25  30
BRANCH  29  32
ATOM     32  O   UNL     1     -40.606  21.658   0.709  0.00  0.00    -0.505 OA
ATOM     33  H   UNL     1     -40.501  21.603  -0.221  0.00  0.00    +0.292 HD
ENDBRANCH  29  32
ENDBRANCH  22  23
ENDBRANCH  20  22
ENDBRANCH   4  20
TORSDOF 8
ENDMDL
MODEL 3
REMARK VINA RESULT:      -6.6      2.429      9.588
REMARK  Name = 5802867
REMARK  8 active torsions:
REMARK  status: ('A' for Active; 'I' for Inactive)
REMARK    1  A    between atoms: C_4  and  O_20
REMARK    2  A    between atoms: C_13  and  C_14
REMARK    3  A    between atoms: C_15  and  C_17
REMARK    4  A    between atoms: C_17  and  O_18
REMARK    5  A    between atoms: O_20  and  C_22
REMARK    6  A    between atoms: C_22  and  C_23
REMARK    7  A    between atoms: C_25  and  O_30
REMARK    8  A    between atoms: C_29  and  O_32
REMARK                            x       y       z     vdW  Elec       q    Type
REMARK                         _______ _______ _______ _____ _____    ______ ____
ROOT
ATOM      1  O   UNL     1     -37.369  24.687   4.122  0.00  0.00    -0.471 OA
ATOM      2  O   UNL     1     -33.932  26.815   5.281  0.00  0.00    -0.287 OA
ATOM      3  O   UNL     1     -31.856  25.570   1.281  0.00  0.00    -0.292 OA
ATOM      4  C   UNL     1     -32.996  26.735   3.061  0.00  0.00    +0.241 C 
ATOM      5  C   UNL     1     -34.024  26.399   4.127  0.00  0.00    +0.215 C 
ATOM      6  C   UNL     1     -32.885  25.717   1.937  0.00  0.00    +0.198 C 
ATOM      7  C   UNL     1     -35.171  25.562   3.690  0.00  0.00    +0.056 C 
ATOM      8  C   UNL     1     -35.148  24.859   2.415  0.00  0.00    -0.009 C 
ATOM      9  C   UNL     1     -33.338  28.098   2.460  0.00  0.00    +0.060 C 
ATOM     10  C   UNL     1     -34.086  24.910   1.596  0.00  0.00    +0.095 C 
ATOM     11  C   UNL     1     -36.314  24.060   2.053  0.00  0.00    +0.033 C 
ATOM     12  C   UNL     1     -36.260  25.444   4.465  0.00  0.00    +0.235 C 
ATOM     13  C   UNL     1     -37.356  24.007   2.903  0.00  0.00    +0.139 C 
ENDROOT
BRANCH  13  14
ATOM     14  C   UNL     1     -38.549  23.251   2.641  0.00  0.00    +0.044 C 
ATOM     15  C   UNL     1     -38.783  22.637   1.474  0.00  0.00    +0.085 C 
BRANCH  15  17
ATOM     16  O   UNL     1     -40.840  22.025   0.382  0.00  0.00    -0.245 OA
ATOM     17  C   UNL     1     -40.035  21.879   1.287  0.00  0.00    +0.338 C 
BRANCH  17  18
ATOM     18  O   UNL     1     -40.152  20.980   2.290  0.00  0.00    -0.477 OA
ATOM     19  H   UNL     1     -40.069  21.258   3.181  0.00  0.00    +0.295 HD
ENDBRANCH  17  18
ENDBRANCH  15  17
ENDBRANCH  13  14
BRANCH   4  20
ATOM     20  O   UNL     1     -31.728  26.849   3.684  0.00  0.00    -0.438 OA
BRANCH  20  22
ATOM     21  O   UNL     1     -31.045  28.718   2.525  0.00  0.00    -0.245 OA
ATOM     22  C   UNL     1     -31.095  28.049   3.546  0.00  0.00    +0.344 C 
BRANCH  22  23
ATOM     23  C   UNL     1     -30.450  28.458   4.819  0.00  0.00    +0.105 C 
ATOM     24  C   UNL     1     -29.108  28.193   5.016  0.00  0.00    -0.010 C 
ATOM     25  C   UNL     1     -31.216  29.096   5.778  0.00  0.00    +0.143 C 
ATOM     26  C   UNL     1     -28.509  28.580   6.214  0.00  0.00    +0.033 C 
ATOM     27  C   UNL     1     -30.616  29.484   6.977  0.00  0.00    +0.073 C 
ATOM     28  C   UNL     1     -28.276  27.504   3.984  0.00  0.00    +0.031 C 
ATOM     29  C   UNL     1     -29.263  29.226   7.194  0.00  0.00    +0.136 C 
BRANCH  25  30
ATOM     30  O   UNL     1     -32.540  29.358   5.586  0.00  0.00    -0.505 OA
ATOM     31  H   UNL     1     -32.855  29.579   4.732  0.00  0.00    +0.292 HD
ENDBRANCH  25  30
BRANCH  29  32
ATOM     32  O   UNL     1     -28.678  29.604   8.364  0.00  0.00    -0.505 OA
ATOM     33  H   UNL     1     -28.127  29.004   8.827  0.00  0.00    +0.292 HD
ENDBRANCH  29  32
ENDBRANCH  22  23
ENDBRANCH  20  22
ENDBRANCH   4  20
TORSDOF 8
ENDMDL
MODEL 4
REMARK VINA RESULT:      -6.5      2.198      9.853
REMARK  Name = 5802867
REMARK  8 active torsions:
REMARK  status: ('A' for Active; 'I' for Inactive)
REMARK    1  A    between atoms: C_4  and  O_20
REMARK    2  A    between atoms: C_13  and  C_14
REMARK    3  A    between atoms: C_15  and  C_17
REMARK    4  A    between atoms: C_17  and  O_18
REMARK    5  A    between atoms: O_20  and  C_22
REMARK    6  A    between atoms: C_22  and  C_23
REMARK    7  A    between atoms: C_25  and  O_30
REMARK    8  A    between atoms: C_29  and  O_32
REMARK                            x       y       z     vdW  Elec       q    Type
REMARK                         _______ _______ _______ _____ _____    ______ ____
ROOT
ATOM      1  O   UNL     1     -34.823  24.710   5.030  0.00  0.00    -0.471 OA
ATOM      2  O   UNL     1     -32.475  28.074   5.962  0.00  0.00    -0.287 OA
ATOM      3  O   UNL     1     -31.215  28.394   1.471  0.00  0.00    -0.292 OA
ATOM      4  C   UNL     1     -32.227  28.684   3.643  0.00  0.00    +0.241 C 
ATOM      5  C   UNL     1     -32.682  27.789   4.783  0.00  0.00    +0.215 C 
ATOM      6  C   UNL     1     -31.990  27.965   2.323  0.00  0.00    +0.198 C 
ATOM      7  C   UNL     1     -33.424  26.561   4.396  0.00  0.00    +0.056 C 
ATOM      8  C   UNL     1     -33.440  26.093   3.018  0.00  0.00    -0.009 C 
ATOM      9  C   UNL     1     -33.272  29.778   3.428  0.00  0.00    +0.060 C 
ATOM     10  C   UNL     1     -32.766  26.728   2.046  0.00  0.00    +0.095 C 
ATOM     11  C   UNL     1     -34.194  24.882   2.715  0.00  0.00    +0.033 C 
ATOM     12  C   UNL     1     -34.104  25.860   5.316  0.00  0.00    +0.235 C 
ATOM     13  C   UNL     1     -34.843  24.253   3.712  0.00  0.00    +0.139 C 
ENDROOT
BRANCH  13  14
ATOM     14  C   UNL     1     -35.612  23.055   3.519  0.00  0.00    +0.044 C 
ATOM     15  C   UNL     1     -35.540  22.312   2.408  0.00  0.00    +0.085 C 
BRANCH  15  17
ATOM     16  O   UNL     1     -37.522  21.038   1.910  0.00  0.00    -0.245 OA
ATOM     17  C   UNL     1     -36.364  21.094   2.290  0.00  0.00    +0.338 C 
BRANCH  17  18
ATOM     18  O   UNL     1     -35.624  20.029   2.673  0.00  0.00    -0.477 OA
ATOM     19  H   UNL     1     -34.996  19.659   2.084  0.00  0.00    +0.295 HD
ENDBRANCH  17  18
ENDBRANCH  15  17
ENDBRANCH  13  14
BRANCH   4  20
ATOM     20  O   UNL     1     -31.018  29.316   4.027  0.00  0.00    -0.438 OA
BRANCH  20  22
ATOM     21  O   UNL     1     -29.741  27.408   3.863  0.00  0.00    -0.245 OA
ATOM     22  C   UNL     1     -29.989  28.491   4.370  0.00  0.00    +0.344 C 
BRANCH  22  23
ATOM     23  C   UNL     1     -29.180  29.080   5.468  0.00  0.00    +0.105 C 
ATOM     24  C   UNL     1     -28.479  30.249   5.241  0.00  0.00    -0.010 C 
ATOM     25  C   UNL     1     -29.150  28.436   6.691  0.00  0.00    +0.143 C 
ATOM     26  C   UNL     1     -27.722  30.797   6.276  0.00  0.00    +0.033 C 
ATOM     27  C   UNL     1     -28.391  28.985   7.726  0.00  0.00    +0.073 C 
ATOM     28  C   UNL     1     -28.509  30.948   3.921  0.00  0.00    +0.031 C 
ATOM     29  C   UNL     1     -27.678  30.164   7.519  0.00  0.00    +0.136 C 
BRANCH  25  30
ATOM     30  O   UNL     1     -29.839  27.282   6.916  0.00  0.00    -0.505 OA
ATOM     31  H   UNL     1     -29.391  26.522   7.232  0.00  0.00    +0.292 HD
ENDBRANCH  25  30
BRANCH  29  32
ATOM     32  O   UNL     1     -26.938  30.699   8.529  0.00  0.00    -0.505 OA
ATOM     33  H   UNL     1     -26.426  30.141   9.081  0.00  0.00    +0.292 HD
ENDBRANCH  29  32
ENDBRANCH  22  23
ENDBRANCH  20  22
ENDBRANCH   4  20
TORSDOF 8
ENDMDL
MODEL 5
REMARK VINA RESULT:      -6.5      5.078      6.810
REMARK  Name = 5802867
REMARK  8 active torsions:
REMARK  status: ('A' for Active; 'I' for Inactive)
REMARK    1  A    between atoms: C_4  and  O_20
REMARK    2  A    between atoms: C_13  and  C_14
REMARK    3  A    between atoms: C_15  and  C_17
REMARK    4  A    between atoms: C_17  and  O_18
REMARK    5  A    between atoms: O_20  and  C_22
REMARK    6  A    between atoms: C_22  and  C_23
REMARK    7  A    between atoms: C_25  and  O_30
REMARK    8  A    between atoms: C_29  and  O_32
REMARK                            x       y       z     vdW  Elec       q    Type
REMARK                         _______ _______ _______ _____ _____    ______ ____
ROOT
ATOM      1  O   UNL     1     -35.973  31.821   2.581  0.00  0.00    -0.471 OA
ATOM      2  O   UNL     1     -34.124  28.209   3.689  0.00  0.00    -0.287 OA
ATOM      3  O   UNL     1     -36.396  26.026   0.236  0.00  0.00    -0.292 OA
ATOM      4  C   UNL     1     -34.763  27.120   1.637  0.00  0.00    +0.241 C 
ATOM      5  C   UNL     1     -34.744  28.269   2.629  0.00  0.00    +0.215 C 
ATOM      6  C   UNL     1     -35.989  27.072   0.738  0.00  0.00    +0.198 C 
ATOM      7  C   UNL     1     -35.495  29.489   2.233  0.00  0.00    +0.056 C 
ATOM      8  C   UNL     1     -36.434  29.468   1.121  0.00  0.00    -0.009 C 
ATOM      9  C   UNL     1     -33.514  27.207   0.760  0.00  0.00    +0.060 C 
ATOM     10  C   UNL     1     -36.684  28.348   0.426  0.00  0.00    +0.095 C 
ATOM     11  C   UNL     1     -37.129  30.707   0.789  0.00  0.00    +0.033 C 
ATOM     12  C   UNL     1     -35.314  30.642   2.895  0.00  0.00    +0.235 C 
ATOM     13  C   UNL     1     -36.876  31.811   1.517  0.00  0.00    +0.139 C 
ENDROOT
BRANCH  13  14
ATOM     14  C   UNL     1     -37.507  33.077   1.273  0.00  0.00    +0.044 C 
ATOM     15  C   UNL     1     -38.561  33.515   1.974  0.00  0.00    +0.085 C 
BRANCH  15  17
ATOM     16  O   UNL     1     -38.916  35.512   0.675  0.00  0.00    -0.245 OA
ATOM     17  C   UNL     1     -39.150  34.831   1.659  0.00  0.00    +0.338 C 
BRANCH  17  18
ATOM     18  O   UNL     1     -40.008  35.170   2.648  0.00  0.00    -0.477 OA
ATOM     19  H   UNL     1     -40.634  35.855   2.512  0.00  0.00    +0.295 HD
ENDBRANCH  17  18
ENDBRANCH  15  17
ENDBRANCH  13  14
BRANCH   4  20
ATOM     20  O   UNL     1     -34.694  25.904   2.360  0.00  0.00    -0.438 OA
BRANCH  20  22
ATOM     21  O   UNL     1     -36.732  26.335   3.341  0.00  0.00    -0.245 OA
ATOM     22  C   UNL     1     -35.759  25.618   3.161  0.00  0.00    +0.344 C 
BRANCH  22  23
ATOM     23  C   UNL     1     -35.594  24.293   3.811  0.00  0.00    +0.105 C 
ATOM     24  C   UNL     1     -35.214  24.232   5.138  0.00  0.00    -0.010 C 
ATOM     25  C   UNL     1     -35.826  23.152   3.065  0.00  0.00    +0.143 C 
ATOM     26  C   UNL     1     -35.061  22.984   5.742  0.00  0.00    +0.033 C 
ATOM     27  C   UNL     1     -35.673  21.904   3.670  0.00  0.00    +0.073 C 
ATOM     28  C   UNL     1     -34.962  25.461   5.948  0.00  0.00    +0.031 C 
ATOM     29  C   UNL     1     -35.291  21.820   5.008  0.00  0.00    +0.136 C 
BRANCH  25  30
ATOM     30  O   UNL     1     -36.200  23.210   1.756  0.00  0.00    -0.505 OA
ATOM     31  H   UNL     1     -36.934  22.711   1.455  0.00  0.00    +0.292 HD
ENDBRANCH  25  30
BRANCH  29  32
ATOM     32  O   UNL     1     -35.141  20.603   5.599  0.00  0.00    -0.505 OA
ATOM     33  H   UNL     1     -35.808  19.951   5.504  0.00  0.00    +0.292 HD
ENDBRANCH  29  32
ENDBRANCH  22  23
ENDBRANCH  20  22
ENDBRANCH   4  20
TORSDOF 8
ENDMDL
MODEL 6
REMARK VINA RESULT:      -6.4      5.145      8.054
REMARK  Name = 5802867
REMARK  8 active torsions:
REMARK  status: ('A' for Active; 'I' for Inactive)
REMARK    1  A    between atoms: C_4  and  O_20
REMARK    2  A    between atoms: C_13  and  C_14
REMARK    3  A    between atoms: C_15  and  C_17
REMARK    4  A    between atoms: C_17  and  O_18
REMARK    5  A    between atoms: O_20  and  C_22
REMARK    6  A    between atoms: C_22  and  C_23
REMARK    7  A    between atoms: C_25  and  O_30
REMARK    8  A    between atoms: C_29  and  O_32
REMARK                            x       y       z     vdW  Elec       q    Type
REMARK                         _______ _______ _______ _____ _____    ______ ____
ROOT
ATOM      1  O   UNL     1     -35.693  19.933   0.286  0.00  0.00    -0.471 OA
ATOM      2  O   UNL     1     -39.259  22.131  -0.096  0.00  0.00    -0.287 OA
ATOM      3  O   UNL     1     -38.292  24.329   3.916  0.00  0.00    -0.292 OA
ATOM      4  C   UNL     1     -38.602  23.709   1.604  0.00  0.00    +0.241 C 
ATOM      5  C   UNL     1     -38.437  22.457   0.759  0.00  0.00    +0.215 C 
ATOM      6  C   UNL     1     -37.909  23.662   2.957  0.00  0.00    +0.198 C 
ATOM      7  C   UNL     1     -37.206  21.661   1.001  0.00  0.00    +0.056 C 
ATOM      8  C   UNL     1     -36.376  21.894   2.174  0.00  0.00    -0.009 C 
ATOM      9  C   UNL     1     -38.067  24.906   0.818  0.00  0.00    +0.060 C 
ATOM     10  C   UNL     1     -36.699  22.811   3.100  0.00  0.00    +0.095 C 
ATOM     11  C   UNL     1     -35.180  21.075   2.340  0.00  0.00    +0.033 C 
ATOM     12  C   UNL     1     -36.830  20.711   0.131  0.00  0.00    +0.235 C 
ATOM     13  C   UNL     1     -34.892  20.148   1.409  0.00  0.00    +0.139 C 
ENDROOT
BRANCH  13  14
ATOM     14  C   UNL     1     -33.741  19.292   1.478  0.00  0.00    +0.044 C 
ATOM     15  C   UNL     1     -32.659  19.460   0.708  0.00  0.00    +0.085 C 
BRANCH  15  17
ATOM     16  O   UNL     1     -30.480  18.567   0.201  0.00  0.00    -0.245 OA
ATOM     17  C   UNL     1     -31.517  18.535   0.843  0.00  0.00    +0.338 C 
BRANCH  17  18
ATOM     18  O   UNL     1     -31.801  17.631   1.808  0.00  0.00    -0.477 OA
ATOM     19  H   UNL     1     -32.460  17.820   2.448  0.00  0.00    +0.295 HD
ENDBRANCH  17  18
ENDBRANCH  15  17
ENDBRANCH  13  14
BRANCH   4  20
ATOM     20  O   UNL     1     -39.986  23.922   1.820  0.00  0.00    -0.438 OA
BRANCH  20  22
ATOM     21  O   UNL     1     -40.290  25.327   0.021  0.00  0.00    -0.245 OA
ATOM     22  C   UNL     1     -40.541  24.982   1.165  0.00  0.00    +0.344 C 
BRANCH  22  23
ATOM     23  C   UNL     1     -41.516  25.690   2.033  0.00  0.00    +0.105 C 
ATOM     24  C   UNL     1     -42.868  25.574   1.768  0.00  0.00    -0.010 C 
ATOM     25  C   UNL     1     -41.041  26.449   3.086  0.00  0.00    +0.143 C 
ATOM     26  C   UNL     1     -43.778  26.242   2.586  0.00  0.00    +0.033 C 
ATOM     27  C   UNL     1     -41.953  27.117   3.905  0.00  0.00    +0.073 C 
ATOM     28  C   UNL     1     -43.386  24.755   0.631  0.00  0.00    +0.031 C 
ATOM     29  C   UNL     1     -43.321  27.013   3.655  0.00  0.00    +0.136 C 
BRANCH  25  30
ATOM     30  O   UNL     1     -39.709  26.564   3.349  0.00  0.00    -0.505 OA
ATOM     31  H   UNL     1     -39.080  26.228   2.740  0.00  0.00    +0.292 HD
ENDBRANCH  25  30
BRANCH  29  32
ATOM     32  O   UNL     1     -44.210  27.664   4.454  0.00  0.00    -0.505 OA
ATOM     33  H   UNL     1     -43.907  28.305   5.067  0.00  0.00    +0.292 HD
ENDBRANCH  29  32
ENDBRANCH  22  23
ENDBRANCH  20  22
ENDBRANCH   4  20
TORSDOF 8
ENDMDL
MODEL 7
REMARK VINA RESULT:      -6.3      4.666      9.308
REMARK  Name = 5802867
REMARK  8 active torsions:
REMARK  status: ('A' for Active; 'I' for Inactive)
REMARK    1  A    between atoms: C_4  and  O_20
REMARK    2  A    between atoms: C_13  and  C_14
REMARK    3  A    between atoms: C_15  and  C_17
REMARK    4  A    between atoms: C_17  and  O_18
REMARK    5  A    between atoms: O_20  and  C_22
REMARK    6  A    between atoms: C_22  and  C_23
REMARK    7  A    between atoms: C_25  and  O_30
REMARK    8  A    between atoms: C_29  and  O_32
REMARK                            x       y       z     vdW  Elec       q    Type
REMARK                         _______ _______ _______ _____ _____    ______ ____
ROOT
ATOM      1  O   UNL     1     -35.990  25.678   3.501  0.00  0.00    -0.471 OA
ATOM      2  O   UNL     1     -35.064  29.186   1.372  0.00  0.00    -0.287 OA
ATOM      3  O   UNL     1     -31.322  29.813   4.103  0.00  0.00    -0.292 OA
ATOM      4  C   UNL     1     -32.843  29.298   2.301  0.00  0.00    +0.241 C 
ATOM      5  C   UNL     1     -34.241  28.722   2.160  0.00  0.00    +0.215 C 
ATOM      6  C   UNL     1     -32.191  29.067   3.655  0.00  0.00    +0.198 C 
ATOM      7  C   UNL     1     -34.552  27.540   3.006  0.00  0.00    +0.056 C 
ATOM      8  C   UNL     1     -33.687  27.159   4.113  0.00  0.00    -0.009 C 
ATOM      9  C   UNL     1     -31.951  28.697   1.216  0.00  0.00    +0.060 C 
ATOM     10  C   UNL     1     -32.593  27.868   4.436  0.00  0.00    +0.095 C 
ATOM     11  C   UNL     1     -34.055  25.984   4.896  0.00  0.00    +0.033 C 
ATOM     12  C   UNL     1     -35.639  26.795   2.759  0.00  0.00    +0.235 C 
ATOM     13  C   UNL     1     -35.168  25.304   4.565  0.00  0.00    +0.139 C 
ENDROOT
BRANCH  13  14
ATOM     14  C   UNL     1     -35.618  24.137   5.270  0.00  0.00    +0.044 C 
ATOM     15  C   UNL     1     -34.941  22.982   5.276  0.00  0.00    +0.085 C 
BRANCH  15  17
ATOM     16  O   UNL     1     -36.207  21.875   7.000  0.00  0.00    -0.245 OA
ATOM     17  C   UNL     1     -35.473  21.828   6.028  0.00  0.00    +0.338 C 
BRANCH  17  18
ATOM     18  O   UNL     1     -35.013  20.690   5.459  0.00  0.00    -0.477 OA
ATOM     19  H   UNL     1     -35.618  20.053   5.132  0.00  0.00    +0.295 HD
ENDBRANCH  17  18
ENDBRANCH  15  17
ENDBRANCH  13  14
BRANCH   4  20
ATOM     20  O   UNL     1     -32.911  30.695   2.073  0.00  0.00    -0.438 OA
BRANCH  20  22
ATOM     21  O   UNL     1     -34.232  31.042   3.926  0.00  0.00    -0.245 OA
ATOM     22  C   UNL     1     -33.804  31.388   2.836  0.00  0.00    +0.344 C 
BRANCH  22  23
ATOM     23  C   UNL     1     -34.208  32.649   2.166  0.00  0.00    +0.105 C 
ATOM     24  C   UNL     1     -33.341  33.726   2.167  0.00  0.00    -0.010 C 
ATOM     25  C   UNL     1     -35.448  32.712   1.557  0.00  0.00    +0.143 C 
ATOM     26  C   UNL     1     -33.727  34.908   1.536  0.00  0.00    +0.033 C 
ATOM     27  C   UNL     1     -35.834  33.895   0.926  0.00  0.00    +0.073 C 
ATOM     28  C   UNL     1     -32.000  33.663   2.823  0.00  0.00    +0.031 C 
ATOM     29  C   UNL     1     -34.974  34.992   0.915  0.00  0.00    +0.136 C 
BRANCH  25  30
ATOM     30  O   UNL     1     -36.305  31.652   1.556  0.00  0.00    -0.505 OA
ATOM     31  H   UNL     1     -36.686  31.356   2.359  0.00  0.00    +0.292 HD
ENDBRANCH  25  30
BRANCH  29  32
ATOM     32  O   UNL     1     -35.350  36.147   0.299  0.00  0.00    -0.505 OA
ATOM     33  H   UNL     1     -35.212  36.253  -0.622  0.00  0.00    +0.292 HD
ENDBRANCH  29  32
ENDBRANCH  22  23
ENDBRANCH  20  22
ENDBRANCH   4  20
TORSDOF 8
ENDMDL
MODEL 8
REMARK VINA RESULT:      -6.3      4.356      9.939
REMARK  Name = 5802867
REMARK  8 active torsions:
REMARK  status: ('A' for Active; 'I' for Inactive)
REMARK    1  A    between atoms: C_4  and  O_20
REMARK    2  A    between atoms: C_13  and  C_14
REMARK    3  A    between atoms: C_15  and  C_17
REMARK    4  A    between atoms: C_17  and  O_18
REMARK    5  A    between atoms: O_20  and  C_22
REMARK    6  A    between atoms: C_22  and  C_23
REMARK    7  A    between atoms: C_25  and  O_30
REMARK    8  A    between atoms: C_29  and  O_32
REMARK                            x       y       z     vdW  Elec       q    Type
REMARK                         _______ _______ _______ _____ _____    ______ ____
ROOT
ATOM      1  O   UNL     1     -36.133  25.603   3.066  0.00  0.00    -0.471 OA
ATOM      2  O   UNL     1     -35.688  29.618   1.895  0.00  0.00    -0.287 OA
ATOM      3  O   UNL     1     -31.791  29.899   4.463  0.00  0.00    -0.292 OA
ATOM      4  C   UNL     1     -33.412  29.715   2.685  0.00  0.00    +0.241 C 
ATOM      5  C   UNL     1     -34.764  29.054   2.480  0.00  0.00    +0.215 C 
ATOM      6  C   UNL     1     -32.630  29.209   3.887  0.00  0.00    +0.198 C 
ATOM      7  C   UNL     1     -34.902  27.668   2.999  0.00  0.00    +0.056 C 
ATOM      8  C   UNL     1     -33.917  27.104   3.910  0.00  0.00    -0.009 C 
ATOM      9  C   UNL     1     -32.569  29.510   1.427  0.00  0.00    +0.060 C 
ATOM     10  C   UNL     1     -32.863  27.814   4.343  0.00  0.00    +0.095 C 
ATOM     11  C   UNL     1     -34.118  25.735   4.373  0.00  0.00    +0.033 C 
ATOM     12  C   UNL     1     -35.940  26.904   2.629  0.00  0.00    +0.235 C 
ATOM     13  C   UNL     1     -35.194  25.053   3.941  0.00  0.00    +0.139 C 
ENDROOT
BRANCH  13  14
ATOM     14  C   UNL     1     -35.483  23.704   4.336  0.00  0.00    +0.044 C 
ATOM     15  C   UNL     1     -34.977  23.142   5.442  0.00  0.00    +0.085 C 
BRANCH  15  17
ATOM     16  O   UNL     1     -34.829  20.743   5.296  0.00  0.00    -0.245 OA
ATOM     17  C   UNL     1     -35.325  21.748   5.777  0.00  0.00    +0.338 C 
BRANCH  17  18
ATOM     18  O   UNL     1     -36.296  21.757   6.720  0.00  0.00    -0.477 OA
ATOM     19  H   UNL     1     -36.883  22.485   6.781  0.00  0.00    +0.295 HD
ENDBRANCH  17  18
ENDBRANCH  15  17
ENDBRANCH  13  14
BRANCH   4  20
ATOM     20  O   UNL     1     -33.616  31.108   2.841  0.00  0.00    -0.438 OA
BRANCH  20  22
ATOM     21  O   UNL     1     -33.441  31.606   0.600  0.00  0.00    -0.245 OA
ATOM     22  C   UNL     1     -33.277  31.890   1.776  0.00  0.00    +0.344 C 
BRANCH  22  23
ATOM     23  C   UNL     1     -32.664  33.165   2.227  0.00  0.00    +0.105 C 
ATOM     24  C   UNL     1     -33.383  34.340   2.114  0.00  0.00    -0.010 C 
ATOM     25  C   UNL     1     -31.384  33.140   2.750  0.00  0.00    +0.143 C 
ATOM     26  C   UNL     1     -32.801  35.534   2.539  0.00  0.00    +0.033 C 
ATOM     27  C   UNL     1     -30.802  34.335   3.175  0.00  0.00    +0.073 C 
ATOM     28  C   UNL     1     -34.766  34.372   1.550  0.00  0.00    +0.031 C 
ATOM     29  C   UNL     1     -31.511  35.531   3.070  0.00  0.00    +0.136 C 
BRANCH  25  30
ATOM     30  O   UNL     1     -30.673  31.982   2.861  0.00  0.00    -0.505 OA
ATOM     31  H   UNL     1     -30.204  31.647   2.123  0.00  0.00    +0.292 HD
ENDBRANCH  25  30
BRANCH  29  32
ATOM     32  O   UNL     1     -30.944  36.697   3.486  0.00  0.00    -0.505 OA
ATOM     33  H   UNL     1     -30.493  37.243   2.872  0.00  0.00    +0.292 HD
ENDBRANCH  29  32
ENDBRANCH  22  23
ENDBRANCH  20  22
ENDBRANCH   4  20
TORSDOF 8
ENDMDL
MODEL 9
REMARK VINA RESULT:      -6.3      2.232      3.491
REMARK  Name = 5802867
REMARK  8 active torsions:
REMARK  status: ('A' for Active; 'I' for Inactive)
REMARK    1  A    between atoms: C_4  and  O_20
REMARK    2  A    between atoms: C_13  and  C_14
REMARK    3  A    between atoms: C_15  and  C_17
REMARK    4  A    between atoms: C_17  and  O_18
REMARK    5  A    between atoms: O_20  and  C_22
REMARK    6  A    between atoms: C_22  and  C_23
REMARK    7  A    between atoms: C_25  and  O_30
REMARK    8  A    between atoms: C_29  and  O_32
REMARK                            x       y       z     vdW  Elec       q    Type
REMARK                         _______ _______ _______ _____ _____    ______ ____
ROOT
ATOM      1  O   UNL     1     -32.263  27.345   6.764  0.00  0.00    -0.471 OA
ATOM      2  O   UNL     1     -35.742  25.133   5.931  0.00  0.00    -0.287 OA
ATOM      3  O   UNL     1     -35.726  26.816   1.569  0.00  0.00    -0.292 OA
ATOM      4  C   UNL     1     -35.516  25.458   3.554  0.00  0.00    +0.241 C 
ATOM      5  C   UNL     1     -35.132  25.669   5.008  0.00  0.00    +0.215 C 
ATOM      6  C   UNL     1     -35.125  26.591   2.618  0.00  0.00    +0.198 C 
ATOM      7  C   UNL     1     -33.952  26.539   5.254  0.00  0.00    +0.056 C 
ATOM      8  C   UNL     1     -33.399  27.375   4.198  0.00  0.00    -0.009 C 
ATOM      9  C   UNL     1     -34.870  24.165   3.057  0.00  0.00    +0.060 C 
ATOM     10  C   UNL     1     -33.943  27.421   2.972  0.00  0.00    +0.095 C 
ATOM     11  C   UNL     1     -32.237  28.199   4.515  0.00  0.00    +0.033 C 
ATOM     12  C   UNL     1     -33.367  26.565   6.461  0.00  0.00    +0.235 C 
ATOM     13  C   UNL     1     -31.726  28.151   5.759  0.00  0.00    +0.139 C 
ENDROOT
BRANCH  13  14
ATOM     14  C   UNL     1     -30.587  28.921   6.172  0.00  0.00    +0.044 C 
ATOM     15  C   UNL     1     -29.528  28.384   6.792  0.00  0.00    +0.085 C 
BRANCH  15  17
ATOM     16  O   UNL     1     -27.659  29.859   6.429  0.00  0.00    -0.245 OA
ATOM     17  C   UNL     1     -28.396  29.246   7.183  0.00  0.00    +0.338 C 
BRANCH  17  18
ATOM     18  O   UNL     1     -28.303  29.254   8.533  0.00  0.00    -0.477 OA
ATOM     19  H   UNL     1     -29.072  29.139   9.056  0.00  0.00    +0.295 HD
ENDBRANCH  17  18
ENDBRANCH  15  17
ENDBRANCH  13  14
BRANCH   4  20
ATOM     20  O   UNL     1     -36.921  25.288   3.483  0.00  0.00    -0.438 OA
BRANCH  20  22
ATOM     21  O   UNL     1     -36.926  23.004   3.771  0.00  0.00    -0.245 OA
ATOM     22  C   UNL     1     -37.364  24.019   3.252  0.00  0.00    +0.344 C 
BRANCH  22  23
ATOM     23  C   UNL     1     -38.472  24.015   2.264  0.00  0.00    +0.105 C 
ATOM     24  C   UNL     1     -38.227  23.590   0.972  0.00  0.00    -0.010 C 
ATOM     25  C   UNL     1     -39.724  24.441   2.667  0.00  0.00    +0.143 C 
ATOM     26  C   UNL     1     -39.272  23.589   0.049  0.00  0.00    +0.033 C 
ATOM     27  C   UNL     1     -40.770  24.440   1.742  0.00  0.00    +0.073 C 
ATOM     28  C   UNL     1     -36.875  23.129   0.532  0.00  0.00    +0.031 C 
ATOM     29  C   UNL     1     -40.544  24.014   0.434  0.00  0.00    +0.136 C 
BRANCH  25  30
ATOM     30  O   UNL     1     -39.968  24.862   3.940  0.00  0.00    -0.505 OA
ATOM     31  H   UNL     1     -39.981  25.778   4.137  0.00  0.00    +0.292 HD
ENDBRANCH  25  30
BRANCH  29  32
ATOM     32  O   UNL     1     -41.564  24.012  -0.467  0.00  0.00    -0.505 OA
ATOM     33  H   UNL     1     -42.451  24.059  -0.171  0.00  0.00    +0.292 HD
ENDBRANCH  29  32
ENDBRANCH  22  23
ENDBRANCH  20  22
ENDBRANCH   4  20
TORSDOF 8
ENDMDL
