MODEL 1
REMARK VINA RESULT:      -7.2      0.000      0.000
REMARK  Name = 195618
REMARK  8 active torsions:
REMARK  status: ('A' for Active; 'I' for Inactive)
REMARK    1  A    between atoms: C_1  and  N_2
REMARK    2  A    between atoms: C_1  and  C_17
REMARK    3  A    between atoms: N_2  and  C_5
REMARK    4  A    between atoms: C_5  and  C_7
REMARK    5  A    between atoms: C_17  and  C_18
REMARK    6  A    between atoms: C_17  and  O_30
REMARK    7  A    between atoms: C_21  and  N_24
REMARK    8  A    between atoms: N_24  and  S_26
REMARK                            x       y       z     vdW  Elec       q    Type
REMARK                         _______ _______ _______ _____ _____    ______ ____
ROOT
ATOM      1  C   UNL     1     -36.013  23.727   5.224  0.00  0.00    -0.047 C 
ENDROOT
BRANCH   1   2
ATOM      2  N   UNL     1     -36.121  22.547   4.359  0.00  0.00    +0.386 N 
ATOM      3  H   UNL     1     -35.184  22.213   4.139  0.00  0.00    -0.084 HD
ATOM      4  H   UNL     1     -36.658  21.839   4.859  0.00  0.00    -0.084 HD
BRANCH   2   5
ATOM      5  C   UNL     1     -36.806  22.842   3.138  0.00  0.00    -0.074 C 
BRANCH   5   7
ATOM      6  O   UNL     1     -36.018  20.151   2.920  0.00  0.00    -0.291 OA
ATOM      7  C   UNL     1     -36.006  22.355   1.931  0.00  0.00    +0.041 C 
ATOM      8  C   UNL     1     -34.868  23.325   1.622  0.00  0.00    +0.010 C 
ATOM      9  C   UNL     1     -34.081  22.858   0.404  0.00  0.00    +0.027 C 
ATOM     10  C   UNL     1     -35.462  20.950   2.172  0.00  0.00    +0.170 C 
ATOM     11  C   UNL     1     -33.593  21.446   0.577  0.00  0.00    -0.019 C 
ATOM     12  C   UNL     1     -34.252  20.534   1.414  0.00  0.00    +0.031 C 
ATOM     13  C   UNL     1     -32.473  21.012  -0.150  0.00  0.00    -0.004 C 
ATOM     14  C   UNL     1     -33.779  19.222   1.542  0.00  0.00    +0.003 C 
ATOM     15  C   UNL     1     -32.005  19.705  -0.023  0.00  0.00    -0.000 C 
ATOM     16  C   UNL     1     -32.656  18.812   0.824  0.00  0.00    +0.000 C 
ENDBRANCH   5   7
ENDBRANCH   2   5
ENDBRANCH   1   2
BRANCH   1  17
ATOM     17  C   UNL     1     -36.116  25.017   4.401  0.00  0.00    +0.112 C 
BRANCH  17  18
ATOM     18  C   UNL     1     -34.894  25.891   4.584  0.00  0.00    +0.002 C 
ATOM     19  C   UNL     1     -34.344  26.026   5.847  0.00  0.00    -0.001 C 
ATOM     20  C   UNL     1     -34.354  26.536   3.485  0.00  0.00    -0.001 C 
ATOM     21  C   UNL     1     -32.661  27.491   4.920  0.00  0.00    +0.064 C 
ATOM     22  C   UNL     1     -33.218  26.833   6.017  0.00  0.00    +0.016 C 
ATOM     23  C   UNL     1     -33.228  27.343   3.654  0.00  0.00    +0.016 C 
BRANCH  21  24
ATOM     24  N   UNL     1     -31.508  28.317   5.093  0.00  0.00    -0.219 N 
ATOM     25  H   UNL     1     -30.627  28.029   4.763  0.00  0.00    +0.173 HD
BRANCH  24  26
ATOM     26  S   UNL     1     -31.704  29.829   5.895  0.00  0.00    +0.056 S 
ATOM     27  O   UNL     1     -32.857  30.501   5.328  0.00  0.00    -0.154 OA
ATOM     28  O   UNL     1     -31.573  29.674   7.330  0.00  0.00    -0.154 OA
ATOM     29  C   UNL     1     -30.263  30.687   5.303  0.00  0.00    +0.200 C 
ENDBRANCH  24  26
ENDBRANCH  21  24
ENDBRANCH  17  18
BRANCH  17  30
ATOM     30  O   UNL     1     -37.264  25.766   4.800  0.00  0.00    -0.382 OA
ATOM     31  H   UNL     1     -38.061  25.226   4.679  0.00  0.00    +0.211 HD
ENDBRANCH  17  30
ENDBRANCH   1  17
TORSDOF 8
ENDMDL
MODEL 2
REMARK VINA RESULT:      -6.9      2.232      3.608
REMARK  Name = 195618
REMARK  8 active torsions:
REMARK  status: ('A' for Active; 'I' for Inactive)
REMARK    1  A    between atoms: C_1  and  N_2
REMARK    2  A    between atoms: C_1  and  C_17
REMARK    3  A    between atoms: N_2  and  C_5
REMARK    4  A    between atoms: C_5  and  C_7
REMARK    5  A    between atoms: C_17  and  C_18
REMARK    6  A    between atoms: C_17  and  O_30
REMARK    7  A    between atoms: C_21  and  N_24
REMARK    8  A    between atoms: N_24  and  S_26
REMARK                            x       y       z     vdW  Elec       q    Type
REMARK                         _______ _______ _______ _____ _____    ______ ____
ROOT
ATOM      1  C   UNL     1     -35.088  20.797   3.313  0.00  0.00    -0.047 C 
ENDROOT
BRANCH   1   2
ATOM      2  N   UNL     1     -36.077  20.178   2.424  0.00  0.00    +0.386 N 
ATOM      3  H   UNL     1     -36.502  19.386   2.905  0.00  0.00    -0.084 HD
ATOM      4  H   UNL     1     -36.774  20.884   2.188  0.00  0.00    -0.084 HD
BRANCH   2   5
ATOM      5  C   UNL     1     -35.484  19.716   1.206  0.00  0.00    -0.074 C 
BRANCH   5   7
ATOM      6  O   UNL     1     -33.834  21.709   0.103  0.00  0.00    -0.291 OA
ATOM      7  C   UNL     1     -33.964  19.634   1.333  0.00  0.00    +0.041 C 
ATOM      8  C   UNL     1     -33.479  18.224   1.003  0.00  0.00    +0.010 C 
ATOM      9  C   UNL     1     -31.965  18.130   1.153  0.00  0.00    +0.027 C 
ATOM     10  C   UNL     1     -33.288  20.659   0.427  0.00  0.00    +0.170 C 
ATOM     11  C   UNL     1     -31.268  19.178   0.329  0.00  0.00    -0.019 C 
ATOM     12  C   UNL     1     -31.894  20.386  -0.012  0.00  0.00    +0.031 C 
ATOM     13  C   UNL     1     -29.940  18.964  -0.073  0.00  0.00    -0.004 C 
ATOM     14  C   UNL     1     -31.211  21.346  -0.769  0.00  0.00    +0.003 C 
ATOM     15  C   UNL     1     -29.262  19.923  -0.824  0.00  0.00    -0.000 C 
ATOM     16  C   UNL     1     -29.898  21.111  -1.173  0.00  0.00    +0.000 C 
ENDBRANCH   5   7
ENDBRANCH   2   5
ENDBRANCH   1   2
BRANCH   1  17
ATOM     17  C   UNL     1     -35.779  21.541   4.462  0.00  0.00    +0.112 C 
BRANCH  17  18
ATOM     18  C   UNL     1     -35.473  23.022   4.427  0.00  0.00    +0.002 C 
ATOM     19  C   UNL     1     -35.165  23.675   5.609  0.00  0.00    -0.001 C 
ATOM     20  C   UNL     1     -35.508  23.692   3.217  0.00  0.00    -0.001 C 
ATOM     21  C   UNL     1     -34.915  25.732   4.367  0.00  0.00    +0.064 C 
ATOM     22  C   UNL     1     -34.884  25.042   5.578  0.00  0.00    +0.016 C 
ATOM     23  C   UNL     1     -35.226  25.058   3.186  0.00  0.00    +0.016 C 
BRANCH  21  24
ATOM     24  N   UNL     1     -34.626  27.131   4.335  0.00  0.00    -0.219 N 
ATOM     25  H   UNL     1     -35.351  27.796   4.336  0.00  0.00    +0.173 HD
BRANCH  24  26
ATOM     26  S   UNL     1     -32.975  27.620   4.292  0.00  0.00    +0.056 S 
ATOM     27  O   UNL     1     -32.612  28.123   5.603  0.00  0.00    -0.154 OA
ATOM     28  O   UNL     1     -32.156  26.620   3.634  0.00  0.00    -0.154 OA
ATOM     29  C   UNL     1     -33.091  29.028   3.212  0.00  0.00    +0.200 C 
ENDBRANCH  24  26
ENDBRANCH  21  24
ENDBRANCH  17  18
BRANCH  17  30
ATOM     30  O   UNL     1     -35.341  21.024   5.718  0.00  0.00    -0.382 OA
ATOM     31  H   UNL     1     -36.030  21.170   6.386  0.00  0.00    +0.211 HD
ENDBRANCH  17  30
ENDBRANCH   1  17
TORSDOF 8
ENDMDL
MODEL 3
REMARK VINA RESULT:      -6.7      2.474      3.777
REMARK  Name = 195618
REMARK  8 active torsions:
REMARK  status: ('A' for Active; 'I' for Inactive)
REMARK    1  A    between atoms: C_1  and  N_2
REMARK    2  A    between atoms: C_1  and  C_17
REMARK    3  A    between atoms: N_2  and  C_5
REMARK    4  A    between atoms: C_5  and  C_7
REMARK    5  A    between atoms: C_17  and  C_18
REMARK    6  A    between atoms: C_17  and  O_30
REMARK    7  A    between atoms: C_21  and  N_24
REMARK    8  A    between atoms: N_24  and  S_26
REMARK                            x       y       z     vdW  Elec       q    Type
REMARK                         _______ _______ _______ _____ _____    ______ ____
ROOT
ATOM      1  C   UNL     1     -38.088  22.598   0.686  0.00  0.00    -0.047 C 
ENDROOT
BRANCH   1   2
ATOM      2  N   UNL     1     -36.999  21.853   0.047  0.00  0.00    +0.386 N 
ATOM      3  H   UNL     1     -36.962  20.916   0.445  0.00  0.00    -0.084 HD
ATOM      4  H   UNL     1     -37.186  21.821  -0.956  0.00  0.00    -0.084 HD
BRANCH   2   5
ATOM      5  C   UNL     1     -35.731  22.489   0.240  0.00  0.00    -0.074 C 
BRANCH   5   7
ATOM      6  O   UNL     1     -35.404  19.869   1.210  0.00  0.00    -0.291 OA
ATOM      7  C   UNL     1     -34.592  21.604  -0.262  0.00  0.00    +0.041 C 
ATOM      8  C   UNL     1     -33.282  22.388  -0.285  0.00  0.00    +0.010 C 
ATOM      9  C   UNL     1     -32.146  21.518  -0.809  0.00  0.00    +0.027 C 
ATOM     10  C   UNL     1     -34.455  20.355   0.603  0.00  0.00    +0.170 C 
ATOM     11  C   UNL     1     -32.030  20.240  -0.025  0.00  0.00    -0.019 C 
ATOM     12  C   UNL     1     -33.129  19.681   0.643  0.00  0.00    +0.031 C 
ATOM     13  C   UNL     1     -30.801  19.562   0.006  0.00  0.00    -0.004 C 
ATOM     14  C   UNL     1     -32.990  18.481   1.353  0.00  0.00    +0.003 C 
ATOM     15  C   UNL     1     -30.666  18.367   0.711  0.00  0.00    -0.000 C 
ATOM     16  C   UNL     1     -31.758  17.829   1.386  0.00  0.00    +0.000 C 
ENDBRANCH   5   7
ENDBRANCH   2   5
ENDBRANCH   1   2
BRANCH   1  17
ATOM     17  C   UNL     1     -38.261  22.163   2.147  0.00  0.00    +0.112 C 
BRANCH  17  18
ATOM     18  C   UNL     1     -37.435  23.018   3.082  0.00  0.00    +0.002 C 
ATOM     19  C   UNL     1     -37.773  24.349   3.255  0.00  0.00    -0.001 C 
ATOM     20  C   UNL     1     -36.359  22.452   3.744  0.00  0.00    -0.001 C 
ATOM     21  C   UNL     1     -35.923  24.585   4.791  0.00  0.00    +0.064 C 
ATOM     22  C   UNL     1     -37.010  25.139   4.116  0.00  0.00    +0.016 C 
ATOM     23  C   UNL     1     -35.597  23.241   4.605  0.00  0.00    +0.016 C 
BRANCH  21  24
ATOM     24  N   UNL     1     -35.142  25.393   5.673  0.00  0.00    -0.219 N 
ATOM     25  H   UNL     1     -35.299  25.376   6.644  0.00  0.00    +0.173 HD
BRANCH  24  26
ATOM     26  S   UNL     1     -33.920  26.397   4.990  0.00  0.00    +0.056 S 
ATOM     27  O   UNL     1     -33.014  25.559   4.227  0.00  0.00    -0.154 OA
ATOM     28  O   UNL     1     -34.500  27.586   4.397  0.00  0.00    -0.154 OA
ATOM     29  C   UNL     1     -33.055  26.886   6.464  0.00  0.00    +0.200 C 
ENDBRANCH  24  26
ENDBRANCH  21  24
ENDBRANCH  17  18
BRANCH  17  30
ATOM     30  O   UNL     1     -37.853  20.804   2.308  0.00  0.00    -0.382 OA
ATOM     31  H   UNL     1     -38.557  20.215   1.993  0.00  0.00    +0.211 HD
ENDBRANCH  17  30
ENDBRANCH   1  17
TORSDOF 8
ENDMDL
MODEL 4
REMARK VINA RESULT:      -6.7      3.730      5.506
REMARK  Name = 195618
REMARK  8 active torsions:
REMARK  status: ('A' for Active; 'I' for Inactive)
REMARK    1  A    between atoms: C_1  and  N_2
REMARK    2  A    between atoms: C_1  and  C_17
REMARK    3  A    between atoms: N_2  and  C_5
REMARK    4  A    between atoms: C_5  and  C_7
REMARK    5  A    between atoms: C_17  and  C_18
REMARK    6  A    between atoms: C_17  and  O_30
REMARK    7  A    between atoms: C_21  and  N_24
REMARK    8  A    between atoms: N_24  and  S_26
REMARK                            x       y       z     vdW  Elec       q    Type
REMARK                         _______ _______ _______ _____ _____    ______ ____
ROOT
ATOM      1  C   UNL     1     -38.581  20.832   0.109  0.00  0.00    -0.047 C 
ENDROOT
BRANCH   1   2
ATOM      2  N   UNL     1     -37.635  20.267   1.077  0.00  0.00    +0.386 N 
ATOM      3  H   UNL     1     -37.630  20.851   1.912  0.00  0.00    -0.084 HD
ATOM      4  H   UNL     1     -37.935  19.316   1.292  0.00  0.00    -0.084 HD
BRANCH   2   5
ATOM      5  C   UNL     1     -36.306  20.202   0.548  0.00  0.00    -0.074 C 
BRANCH   5   7
ATOM      6  O   UNL     1     -36.129  20.250   3.355  0.00  0.00    -0.291 OA
ATOM      7  C   UNL     1     -35.386  21.193   1.259  0.00  0.00    +0.041 C 
ATOM      8  C   UNL     1     -35.545  22.588   0.658  0.00  0.00    +0.010 C 
ATOM      9  C   UNL     1     -34.611  23.577   1.346  0.00  0.00    +0.027 C 
ATOM     10  C   UNL     1     -35.672  21.219   2.758  0.00  0.00    +0.170 C 
ATOM     11  C   UNL     1     -34.813  23.574   2.837  0.00  0.00    -0.019 C 
ATOM     12  C   UNL     1     -35.313  22.450   3.512  0.00  0.00    +0.031 C 
ATOM     13  C   UNL     1     -34.454  24.708   3.581  0.00  0.00    -0.004 C 
ATOM     14  C   UNL     1     -35.476  22.475   4.903  0.00  0.00    +0.003 C 
ATOM     15  C   UNL     1     -34.615  24.730   4.966  0.00  0.00    -0.000 C 
ATOM     16  C   UNL     1     -35.128  23.616   5.625  0.00  0.00    +0.000 C 
ENDBRANCH   5   7
ENDBRANCH   2   5
ENDBRANCH   1   2
BRANCH   1  17
ATOM     17  C   UNL     1     -39.634  21.693   0.817  0.00  0.00    +0.112 C 
BRANCH  17  18
ATOM     18  C   UNL     1     -39.051  23.005   1.292  0.00  0.00    +0.002 C 
ATOM     19  C   UNL     1     -38.788  23.178   2.640  0.00  0.00    -0.001 C 
ATOM     20  C   UNL     1     -38.793  24.004   0.370  0.00  0.00    -0.001 C 
ATOM     21  C   UNL     1     -37.985  25.407   2.164  0.00  0.00    +0.064 C 
ATOM     22  C   UNL     1     -38.251  24.389   3.080  0.00  0.00    +0.016 C 
ATOM     23  C   UNL     1     -38.255  25.214   0.808  0.00  0.00    +0.016 C 
BRANCH  21  24
ATOM     24  N   UNL     1     -37.435  26.646   2.612  0.00  0.00    -0.219 N 
ATOM     25  H   UNL     1     -37.597  26.969   3.527  0.00  0.00    +0.173 HD
BRANCH  24  26
ATOM     26  S   UNL     1     -36.480  27.559   1.507  0.00  0.00    +0.056 S 
ATOM     27  O   UNL     1     -35.762  26.634   0.650  0.00  0.00    -0.154 OA
ATOM     28  O   UNL     1     -37.248  28.647   0.936  0.00  0.00    -0.154 OA
ATOM     29  C   UNL     1     -35.287  28.259   2.625  0.00  0.00    +0.200 C 
ENDBRANCH  24  26
ENDBRANCH  21  24
ENDBRANCH  17  18
BRANCH  17  30
ATOM     30  O   UNL     1     -40.156  21.000   1.952  0.00  0.00    -0.382 OA
ATOM     31  H   UNL     1     -40.869  20.406   1.669  0.00  0.00    +0.211 HD
ENDBRANCH  17  30
ENDBRANCH   1  17
TORSDOF 8
ENDMDL
MODEL 5
REMARK VINA RESULT:      -6.7      3.142      4.808
REMARK  Name = 195618
REMARK  8 active torsions:
REMARK  status: ('A' for Active; 'I' for Inactive)
REMARK    1  A    between atoms: C_1  and  N_2
REMARK    2  A    between atoms: C_1  and  C_17
REMARK    3  A    between atoms: N_2  and  C_5
REMARK    4  A    between atoms: C_5  and  C_7
REMARK    5  A    between atoms: C_17  and  C_18
REMARK    6  A    between atoms: C_17  and  O_30
REMARK    7  A    between atoms: C_21  and  N_24
REMARK    8  A    between atoms: N_24  and  S_26
REMARK                            x       y       z     vdW  Elec       q    Type
REMARK                         _______ _______ _______ _____ _____    ______ ____
ROOT
ATOM      1  C   UNL     1     -34.201  28.861   2.235  0.00  0.00    -0.047 C 
ENDROOT
BRANCH   1   2
ATOM      2  N   UNL     1     -35.431  28.558   2.975  0.00  0.00    +0.386 N 
ATOM      3  H   UNL     1     -35.236  28.613   3.974  0.00  0.00    -0.084 HD
ATOM      4  H   UNL     1     -36.140  29.237   2.700  0.00  0.00    -0.084 HD
BRANCH   2   5
ATOM      5  C   UNL     1     -35.928  27.251   2.672  0.00  0.00    -0.074 C 
BRANCH   5   7
ATOM      6  O   UNL     1     -35.675  24.605   1.751  0.00  0.00    -0.291 OA
ATOM      7  C   UNL     1     -35.232  26.189   3.521  0.00  0.00    +0.041 C 
ATOM      8  C   UNL     1     -35.720  26.262   4.966  0.00  0.00    +0.010 C 
ATOM      9  C   UNL     1     -35.010  25.221   5.824  0.00  0.00    +0.027 C 
ATOM     10  C   UNL     1     -35.467  24.795   2.946  0.00  0.00    +0.170 C 
ATOM     11  C   UNL     1     -35.158  23.841   5.244  0.00  0.00    -0.019 C 
ATOM     12  C   UNL     1     -35.369  23.636   3.873  0.00  0.00    +0.031 C 
ATOM     13  C   UNL     1     -35.038  22.726   6.087  0.00  0.00    -0.004 C 
ATOM     14  C   UNL     1     -35.488  22.337   3.362  0.00  0.00    +0.003 C 
ATOM     15  C   UNL     1     -35.154  21.433   5.576  0.00  0.00    -0.000 C 
ATOM     16  C   UNL     1     -35.382  21.240   4.216  0.00  0.00    +0.000 C 
ENDBRANCH   5   7
ENDBRANCH   2   5
ENDBRANCH   1   2
BRANCH   1  17
ATOM     17  C   UNL     1     -33.554  30.148   2.759  0.00  0.00    +0.112 C 
BRANCH  17  18
ATOM     18  C   UNL     1     -32.725  29.888   3.999  0.00  0.00    +0.002 C 
ATOM     19  C   UNL     1     -32.245  28.611   4.234  0.00  0.00    -0.001 C 
ATOM     20  C   UNL     1     -32.466  30.931   4.870  0.00  0.00    -0.001 C 
ATOM     21  C   UNL     1     -31.212  29.409   6.266  0.00  0.00    +0.064 C 
ATOM     22  C   UNL     1     -31.482  28.369   5.377  0.00  0.00    +0.016 C 
ATOM     23  C   UNL     1     -31.703  30.690   6.013  0.00  0.00    +0.016 C 
BRANCH  21  24
ATOM     24  N   UNL     1     -30.430  29.163   7.436  0.00  0.00    -0.219 N 
ATOM     25  H   UNL     1     -30.860  28.951   8.295  0.00  0.00    +0.173 HD
BRANCH  24  26
ATOM     26  S   UNL     1     -28.715  29.251   7.301  0.00  0.00    +0.056 S 
ATOM     27  O   UNL     1     -28.388  30.029   6.121  0.00  0.00    -0.154 OA
ATOM     28  O   UNL     1     -28.111  29.565   8.581  0.00  0.00    -0.154 OA
ATOM     29  C   UNL     1     -28.342  27.554   6.921  0.00  0.00    +0.200 C 
ENDBRANCH  24  26
ENDBRANCH  21  24
ENDBRANCH  17  18
BRANCH  17  30
ATOM     30  O   UNL     1     -34.559  31.107   3.089  0.00  0.00    -0.382 OA
ATOM     31  H   UNL     1     -35.301  30.661   3.527  0.00  0.00    +0.211 HD
ENDBRANCH  17  30
ENDBRANCH   1  17
TORSDOF 8
ENDMDL
MODEL 6
REMARK VINA RESULT:      -6.7      3.557      8.271
REMARK  Name = 195618
REMARK  8 active torsions:
REMARK  status: ('A' for Active; 'I' for Inactive)
REMARK    1  A    between atoms: C_1  and  N_2
REMARK    2  A    between atoms: C_1  and  C_17
REMARK    3  A    between atoms: N_2  and  C_5
REMARK    4  A    between atoms: C_5  and  C_7
REMARK    5  A    between atoms: C_17  and  C_18
REMARK    6  A    between atoms: C_17  and  O_30
REMARK    7  A    between atoms: C_21  and  N_24
REMARK    8  A    between atoms: N_24  and  S_26
REMARK                            x       y       z     vdW  Elec       q    Type
REMARK                         _______ _______ _______ _____ _____    ______ ____
ROOT
ATOM      1  C   UNL     1     -34.038  26.079   5.753  0.00  0.00    -0.047 C 
ENDROOT
BRANCH   1   2
ATOM      2  N   UNL     1     -34.025  27.278   4.907  0.00  0.00    +0.386 N 
ATOM      3  H   UNL     1     -34.985  27.530   4.678  0.00  0.00    -0.084 HD
ATOM      4  H   UNL     1     -33.560  28.024   5.425  0.00  0.00    -0.084 HD
BRANCH   2   5
ATOM      5  C   UNL     1     -33.299  27.065   3.692  0.00  0.00    -0.074 C 
BRANCH   5   7
ATOM      6  O   UNL     1     -33.711  29.844   3.837  0.00  0.00    -0.291 OA
ATOM      7  C   UNL     1     -33.941  27.824   2.532  0.00  0.00    +0.041 C 
ATOM      8  C   UNL     1     -35.172  27.076   2.025  0.00  0.00    +0.010 C 
ATOM      9  C   UNL     1     -35.802  27.815   0.851  0.00  0.00    +0.027 C 
ATOM     10  C   UNL     1     -34.312  29.243   2.952  0.00  0.00    +0.170 C 
ATOM     11  C   UNL     1     -36.113  29.243   1.207  0.00  0.00    -0.019 C 
ATOM     12  C   UNL     1     -35.401  29.927   2.203  0.00  0.00    +0.031 C 
ATOM     13  C   UNL     1     -37.112  29.927   0.497  0.00  0.00    -0.004 C 
ATOM     14  C   UNL     1     -35.705  31.261   2.501  0.00  0.00    +0.003 C 
ATOM     15  C   UNL     1     -37.412  31.256   0.794  0.00  0.00    -0.000 C 
ATOM     16  C   UNL     1     -36.712  31.921   1.797  0.00  0.00    +0.000 C 
ENDBRANCH   5   7
ENDBRANCH   2   5
ENDBRANCH   1   2
BRANCH   1  17
ATOM     17  C   UNL     1     -35.462  25.527   5.891  0.00  0.00    +0.112 C 
BRANCH  17  18
ATOM     18  C   UNL     1     -35.638  24.246   5.105  0.00  0.00    +0.002 C 
ATOM     19  C   UNL     1     -36.364  24.271   3.927  0.00  0.00    -0.001 C 
ATOM     20  C   UNL     1     -35.072  23.077   5.581  0.00  0.00    -0.001 C 
ATOM     21  C   UNL     1     -35.964  21.903   3.668  0.00  0.00    +0.064 C 
ATOM     22  C   UNL     1     -36.529  23.090   3.202  0.00  0.00    +0.016 C 
ATOM     23  C   UNL     1     -35.235  21.896   4.857  0.00  0.00    +0.016 C 
BRANCH  21  24
ATOM     24  N   UNL     1     -36.131  20.694   2.926  0.00  0.00    -0.219 N 
ATOM     25  H   UNL     1     -36.857  20.065   3.142  0.00  0.00    +0.173 HD
BRANCH  24  26
ATOM     26  S   UNL     1     -35.027  20.366   1.645  0.00  0.00    +0.056 S 
ATOM     27  O   UNL     1     -34.615  21.629   1.062  0.00  0.00    -0.154 OA
ATOM     28  O   UNL     1     -34.040  19.385   2.051  0.00  0.00    -0.154 OA
ATOM     29  C   UNL     1     -36.121  19.591   0.477  0.00  0.00    +0.200 C 
ENDBRANCH  24  26
ENDBRANCH  21  24
ENDBRANCH  17  18
BRANCH  17  30
ATOM     30  O   UNL     1     -36.410  26.479   5.409  0.00  0.00    -0.382 OA
ATOM     31  H   UNL     1     -37.201  26.017   5.091  0.00  0.00    +0.211 HD
ENDBRANCH  17  30
ENDBRANCH   1  17
TORSDOF 8
ENDMDL
MODEL 7
REMARK VINA RESULT:      -6.5      3.686      5.321
REMARK  Name = 195618
REMARK  8 active torsions:
REMARK  status: ('A' for Active; 'I' for Inactive)
REMARK    1  A    between atoms: C_1  and  N_2
REMARK    2  A    between atoms: C_1  and  C_17
REMARK    3  A    between atoms: N_2  and  C_5
REMARK    4  A    between atoms: C_5  and  C_7
REMARK    5  A    between atoms: C_17  and  C_18
REMARK    6  A    between atoms: C_17  and  O_30
REMARK    7  A    between atoms: C_21  and  N_24
REMARK    8  A    between atoms: N_24  and  S_26
REMARK                            x       y       z     vdW  Elec       q    Type
REMARK                         _______ _______ _______ _____ _____    ______ ____
ROOT
ATOM      1  C   UNL     1     -34.351  30.501   2.987  0.00  0.00    -0.047 C 
ENDROOT
BRANCH   1   2
ATOM      2  N   UNL     1     -35.201  29.331   3.231  0.00  0.00    +0.386 N 
ATOM      3  H   UNL     1     -35.087  29.037   4.200  0.00  0.00    -0.084 HD
ATOM      4  H   UNL     1     -36.167  29.598   3.038  0.00  0.00    -0.084 HD
BRANCH   2   5
ATOM      5  C   UNL     1     -34.864  28.237   2.372  0.00  0.00    -0.074 C 
BRANCH   5   7
ATOM      6  O   UNL     1     -34.475  27.079   4.905  0.00  0.00    -0.291 OA
ATOM      7  C   UNL     1     -35.615  26.971   2.778  0.00  0.00    +0.041 C 
ATOM      8  C   UNL     1     -35.569  25.942   1.650  0.00  0.00    +0.010 C 
ATOM      9  C   UNL     1     -36.338  24.685   2.040  0.00  0.00    +0.027 C 
ATOM     10  C   UNL     1     -35.035  26.385   4.062  0.00  0.00    +0.170 C 
ATOM     11  C   UNL     1     -35.841  24.122   3.343  0.00  0.00    -0.019 C 
ATOM     12  C   UNL     1     -35.226  24.931   4.310  0.00  0.00    +0.031 C 
ATOM     13  C   UNL     1     -36.035  22.760   3.622  0.00  0.00    -0.004 C 
ATOM     14  C   UNL     1     -34.787  24.377   5.520  0.00  0.00    +0.003 C 
ATOM     15  C   UNL     1     -35.600  22.212   4.827  0.00  0.00    -0.000 C 
ATOM     16  C   UNL     1     -34.974  23.019   5.774  0.00  0.00    +0.000 C 
ENDBRANCH   5   7
ENDBRANCH   2   5
ENDBRANCH   1   2
BRANCH   1  17
ATOM     17  C   UNL     1     -32.907  30.074   2.699  0.00  0.00    +0.112 C 
BRANCH  17  18
ATOM     18  C   UNL     1     -32.134  29.830   3.977  0.00  0.00    +0.002 C 
ATOM     19  C   UNL     1     -31.334  28.705   4.077  0.00  0.00    -0.001 C 
ATOM     20  C   UNL     1     -32.246  30.735   5.017  0.00  0.00    -0.001 C 
ATOM     21  C   UNL     1     -30.723  29.382   6.315  0.00  0.00    +0.064 C 
ATOM     22  C   UNL     1     -30.622  28.479   5.256  0.00  0.00    +0.016 C 
ATOM     23  C   UNL     1     -31.534  30.510   6.196  0.00  0.00    +0.016 C 
BRANCH  21  24
ATOM     24  N   UNL     1     -29.994  29.151   7.522  0.00  0.00    -0.219 N 
ATOM     25  H   UNL     1     -30.437  28.773   8.314  0.00  0.00    +0.173 HD
BRANCH  24  26
ATOM     26  S   UNL     1     -28.320  29.556   7.550  0.00  0.00    +0.056 S 
ATOM     27  O   UNL     1     -28.013  30.319   6.355  0.00  0.00    -0.154 OA
ATOM     28  O   UNL     1     -27.928  30.046   8.857  0.00  0.00    -0.154 OA
ATOM     29  C   UNL     1     -27.602  27.944   7.333  0.00  0.00    +0.200 C 
ENDBRANCH  24  26
ENDBRANCH  21  24
ENDBRANCH  17  18
BRANCH  17  30
ATOM     30  O   UNL     1     -32.231  31.089   1.956  0.00  0.00    -0.382 OA
ATOM     31  H   UNL     1     -32.723  31.276   1.141  0.00  0.00    +0.211 HD
ENDBRANCH  17  30
ENDBRANCH   1  17
TORSDOF 8
ENDMDL
MODEL 8
REMARK VINA RESULT:      -6.5      1.601      2.163
REMARK  Name = 195618
REMARK  8 active torsions:
REMARK  status: ('A' for Active; 'I' for Inactive)
REMARK    1  A    between atoms: C_1  and  N_2
REMARK    2  A    between atoms: C_1  and  C_17
REMARK    3  A    between atoms: N_2  and  C_5
REMARK    4  A    between atoms: C_5  and  C_7
REMARK    5  A    between atoms: C_17  and  C_18
REMARK    6  A    between atoms: C_17  and  O_30
REMARK    7  A    between atoms: C_21  and  N_24
REMARK    8  A    between atoms: N_24  and  S_26
REMARK                            x       y       z     vdW  Elec       q    Type
REMARK                         _______ _______ _______ _____ _____    ______ ____
ROOT
ATOM      1  C   UNL     1     -38.413  24.128   2.842  0.00  0.00    -0.047 C 
ENDROOT
BRANCH   1   2
ATOM      2  N   UNL     1     -37.638  23.394   1.835  0.00  0.00    +0.386 N 
ATOM      3  H   UNL     1     -38.272  22.802   1.299  0.00  0.00    -0.084 HD
ATOM      4  H   UNL     1     -37.176  24.077   1.235  0.00  0.00    -0.084 HD
BRANCH   2   5
ATOM      5  C   UNL     1     -36.629  22.573   2.431  0.00  0.00    -0.074 C 
BRANCH   5   7
ATOM      6  O   UNL     1     -35.787  19.892   2.553  0.00  0.00    -0.291 OA
ATOM      7  C   UNL     1     -35.696  21.996   1.369  0.00  0.00    +0.041 C 
ATOM      8  C   UNL     1     -34.543  22.960   1.096  0.00  0.00    +0.010 C 
ATOM      9  C   UNL     1     -33.621  22.400   0.019  0.00  0.00    +0.027 C 
ATOM     10  C   UNL     1     -35.163  20.632   1.799  0.00  0.00    +0.170 C 
ATOM     11  C   UNL     1     -33.136  21.022   0.376  0.00  0.00    -0.019 C 
ATOM     12  C   UNL     1     -33.872  20.176   1.218  0.00  0.00    +0.031 C 
ATOM     13  C   UNL     1     -31.938  20.550  -0.182  0.00  0.00    -0.004 C 
ATOM     14  C   UNL     1     -33.399  18.892   1.519  0.00  0.00    +0.003 C 
ATOM     15  C   UNL     1     -31.470  19.271   0.117  0.00  0.00    -0.000 C 
ATOM     16  C   UNL     1     -32.198  18.445   0.969  0.00  0.00    +0.000 C 
ENDBRANCH   5   7
ENDBRANCH   2   5
ENDBRANCH   1   2
BRANCH   1  17
ATOM     17  C   UNL     1     -38.109  25.630   2.774  0.00  0.00    +0.112 C 
BRANCH  17  18
ATOM     18  C   UNL     1     -36.827  25.970   3.501  0.00  0.00    +0.002 C 
ATOM     19  C   UNL     1     -35.833  26.661   2.830  0.00  0.00    -0.001 C 
ATOM     20  C   UNL     1     -36.675  25.583   4.821  0.00  0.00    -0.001 C 
ATOM     21  C   UNL     1     -34.480  26.591   4.830  0.00  0.00    +0.064 C 
ATOM     22  C   UNL     1     -34.649  26.974   3.499  0.00  0.00    +0.016 C 
ATOM     23  C   UNL     1     -35.492  25.896   5.491  0.00  0.00    +0.016 C 
BRANCH  21  24
ATOM     24  N   UNL     1     -33.269  26.912   5.516  0.00  0.00    -0.219 N 
ATOM     25  H   UNL     1     -33.014  26.438   6.340  0.00  0.00    +0.173 HD
BRANCH  24  26
ATOM     26  S   UNL     1     -32.268  28.154   4.863  0.00  0.00    +0.056 S 
ATOM     27  O   UNL     1     -31.354  27.551   3.911  0.00  0.00    -0.154 OA
ATOM     28  O   UNL     1     -33.056  29.313   4.495  0.00  0.00    -0.154 OA
ATOM     29  C   UNL     1     -31.312  28.576   6.302  0.00  0.00    +0.200 C 
ENDBRANCH  24  26
ENDBRANCH  21  24
ENDBRANCH  17  18
BRANCH  17  30
ATOM     30  O   UNL     1     -39.171  26.375   3.370  0.00  0.00    -0.382 OA
ATOM     31  H   UNL     1     -40.002  26.182   2.907  0.00  0.00    +0.211 HD
ENDBRANCH  17  30
ENDBRANCH   1  17
TORSDOF 8
ENDMDL
MODEL 9
REMARK VINA RESULT:      -6.4      4.574      8.865
REMARK  Name = 195618
REMARK  8 active torsions:
REMARK  status: ('A' for Active; 'I' for Inactive)
REMARK    1  A    between atoms: C_1  and  N_2
REMARK    2  A    between atoms: C_1  and  C_17
REMARK    3  A    between atoms: N_2  and  C_5
REMARK    4  A    between atoms: C_5  and  C_7
REMARK    5  A    between atoms: C_17  and  C_18
REMARK    6  A    between atoms: C_17  and  O_30
REMARK    7  A    between atoms: C_21  and  N_24
REMARK    8  A    between atoms: N_24  and  S_26
REMARK                            x       y       z     vdW  Elec       q    Type
REMARK                         _______ _______ _______ _____ _____    ______ ____
ROOT
ATOM      1  C   UNL     1     -36.339  19.790   0.876  0.00  0.00    -0.047 C 
ENDROOT
BRANCH   1   2
ATOM      2  N   UNL     1     -36.517  21.008   1.674  0.00  0.00    +0.386 N 
ATOM      3  H   UNL     1     -36.231  21.812   1.117  0.00  0.00    -0.084 HD
ATOM      4  H   UNL     1     -37.501  21.071   1.936  0.00  0.00    -0.084 HD
BRANCH   2   5
ATOM      5  C   UNL     1     -35.740  20.977   2.875  0.00  0.00    -0.074 C 
BRANCH   5   7
ATOM      6  O   UNL     1     -34.791  23.344   1.690  0.00  0.00    -0.291 OA
ATOM      7  C   UNL     1     -35.822  22.311   3.615  0.00  0.00    +0.041 C 
ATOM      8  C   UNL     1     -35.348  22.149   5.057  0.00  0.00    +0.010 C 
ATOM      9  C   UNL     1     -35.452  23.471   5.807  0.00  0.00    +0.027 C 
ATOM     10  C   UNL     1     -35.001  23.379   2.898  0.00  0.00    +0.170 C 
ATOM     11  C   UNL     1     -34.714  24.567   5.088  0.00  0.00    -0.019 C 
ATOM     12  C   UNL     1     -34.504  24.528   3.701  0.00  0.00    +0.031 C 
ATOM     13  C   UNL     1     -34.261  25.680   5.812  0.00  0.00    -0.004 C 
ATOM     14  C   UNL     1     -33.825  25.572   3.060  0.00  0.00    +0.003 C 
ATOM     15  C   UNL     1     -33.588  26.720   5.171  0.00  0.00    -0.000 C 
ATOM     16  C   UNL     1     -33.368  26.664   3.797  0.00  0.00    +0.000 C 
ENDBRANCH   5   7
ENDBRANCH   2   5
ENDBRANCH   1   2
BRANCH   1  17
ATOM     17  C   UNL     1     -35.283  20.004  -0.215  0.00  0.00    +0.112 C 
BRANCH  17  18
ATOM     18  C   UNL     1     -33.969  19.347   0.148  0.00  0.00    +0.002 C 
ATOM     19  C   UNL     1     -33.950  17.996   0.448  0.00  0.00    -0.001 C 
ATOM     20  C   UNL     1     -32.816  20.112   0.173  0.00  0.00    -0.001 C 
ATOM     21  C   UNL     1     -31.566  18.146   0.815  0.00  0.00    +0.064 C 
ATOM     22  C   UNL     1     -32.738  17.391   0.784  0.00  0.00    +0.016 C 
ATOM     23  C   UNL     1     -31.605  19.507   0.509  0.00  0.00    +0.016 C 
BRANCH  21  24
ATOM     24  N   UNL     1     -30.326  17.527   1.158  0.00  0.00    -0.219 N 
ATOM     25  H   UNL     1     -29.873  17.739   2.006  0.00  0.00    +0.173 HD
BRANCH  24  26
ATOM     26  S   UNL     1     -29.645  16.400   0.047  0.00  0.00    +0.056 S 
ATOM     27  O   UNL     1     -30.150  15.079   0.368  0.00  0.00    -0.154 OA
ATOM     28  O   UNL     1     -29.713  16.906  -1.309  0.00  0.00    -0.154 OA
ATOM     29  C   UNL     1     -27.943  16.442   0.562  0.00  0.00    +0.200 C 
ENDBRANCH  24  26
ENDBRANCH  21  24
ENDBRANCH  17  18
BRANCH  17  30
ATOM     30  O   UNL     1     -35.047  21.399  -0.407  0.00  0.00    -0.382 OA
ATOM     31  H   UNL     1     -34.132  21.535  -0.700  0.00  0.00    +0.211 HD
ENDBRANCH  17  30
ENDBRANCH   1  17
TORSDOF 8
ENDMDL
