MODEL 1
REMARK VINA RESULT:      -7.4      0.000      0.000
REMARK  Name = 191593
REMARK  5 active torsions:
REMARK  status: ('A' for Active; 'I' for Inactive)
REMARK    1  A    between atoms: C_3  and  S_11
REMARK    2  A    between atoms: C_4  and  O_15
REMARK    3  A    between atoms: O_15  and  S_16
REMARK    4  A    between atoms: S_16  and  C_19
REMARK    5  A    between atoms: C_22  and  N_27
REMARK                            x       y       z     vdW  Elec       q    Type
REMARK                         _______ _______ _______ _____ _____    ______ ____
ROOT
ATOM      1  C   UNL     1     -33.980  25.217   3.252  0.00  0.00    +0.003 C 
ATOM      2  C   UNL     1     -34.284  25.253   4.633  0.00  0.00    +0.001 C 
ATOM      3  C   UNL     1     -32.845  27.199   4.885  0.00  0.00    +0.112 C 
ATOM      4  C   UNL     1     -35.418  23.271   2.999  0.00  0.00    +0.172 C 
ATOM      5  C   UNL     1     -34.555  24.218   2.448  0.00  0.00    +0.040 C 
ATOM      6  C   UNL     1     -33.708  26.251   5.437  0.00  0.00    +0.019 C 
ATOM      7  C   UNL     1     -35.154  24.291   5.171  0.00  0.00    +0.003 C 
ATOM      8  C   UNL     1     -33.109  26.178   2.714  0.00  0.00    +0.001 C 
ATOM      9  C   UNL     1     -35.717  23.307   4.358  0.00  0.00    +0.040 C 
ATOM     10  C   UNL     1     -32.547  27.163   3.526  0.00  0.00    +0.019 C 
ENDROOT
BRANCH   3  11
ATOM     11  S   UNL     1     -32.140  28.433   5.901  0.00  0.00    +0.042 S 
ATOM     12  O   UNL     1     -30.525  28.213   5.784  0.00  0.00    -0.065 OA
ATOM     13  O   UNL     1     -32.437  29.728   5.307  0.00  0.00    -0.065 OA
ATOM     14  O   UNL     1     -32.539  28.134   7.268  0.00  0.00    -0.065 OA
ENDBRANCH   3  11
BRANCH   4  15
ATOM     15  O   UNL     1     -35.968  22.309   2.207  0.00  0.00    -0.357 OA
BRANCH  15  16
ATOM     16  S   UNL     1     -35.701  20.706   2.419  0.00  0.00    +0.051 S 
ATOM     17  O   UNL     1     -36.778  19.957   1.802  0.00  0.00    -0.057 OA
ATOM     18  O   UNL     1     -35.317  20.492   3.802  0.00  0.00    -0.057 OA
BRANCH  16  19
ATOM     19  C   UNL     1     -34.268  20.370   1.442  0.00  0.00    +0.122 C 
ATOM     20  C   UNL     1     -33.608  19.164   1.600  0.00  0.00    +0.044 C 
ATOM     21  C   UNL     1     -33.830  21.320   0.535  0.00  0.00    +0.020 C 
ATOM     22  C   UNL     1     -32.476  18.899   0.829  0.00  0.00    +0.144 C 
ATOM     23  C   UNL     1     -32.699  21.055  -0.236  0.00  0.00    +0.003 C 
ATOM     24  C   UNL     1     -32.021  19.845  -0.089  0.00  0.00    +0.024 C 
BRANCH  22  27
ATOM     25  O   UNL     1     -30.634  17.673   1.478  0.00  0.00    -0.126 OA
ATOM     26  O   UNL     1     -32.345  16.607   0.610  0.00  0.00    -0.126 OA
ATOM     27  N   UNL     1     -31.785  17.668   0.979  0.00  0.00    +0.058 N 
ENDBRANCH  22  27
ENDBRANCH  16  19
ENDBRANCH  15  16
ENDBRANCH   4  15
TORSDOF 5
ENDMDL
MODEL 2
REMARK VINA RESULT:      -7.3      3.345      8.118
REMARK  Name = 191593
REMARK  5 active torsions:
REMARK  status: ('A' for Active; 'I' for Inactive)
REMARK    1  A    between atoms: C_3  and  S_11
REMARK    2  A    between atoms: C_4  and  O_15
REMARK    3  A    between atoms: O_15  and  S_16
REMARK    4  A    between atoms: S_16  and  C_19
REMARK    5  A    between atoms: C_22  and  N_27
REMARK                            x       y       z     vdW  Elec       q    Type
REMARK                         _______ _______ _______ _____ _____    ______ ____
ROOT
ATOM      1  C   UNL     1     -33.275  19.713   0.959  0.00  0.00    +0.003 C 
ATOM      2  C   UNL     1     -32.212  20.262   0.203  0.00  0.00    +0.001 C 
ATOM      3  C   UNL     1     -30.939  18.215   0.530  0.00  0.00    +0.112 C 
ATOM      4  C   UNL     1     -34.548  21.760   0.632  0.00  0.00    +0.172 C 
ATOM      5  C   UNL     1     -34.436  20.476   1.165  0.00  0.00    +0.040 C 
ATOM      6  C   UNL     1     -31.050  19.500  -0.003  0.00  0.00    +0.019 C 
ATOM      7  C   UNL     1     -32.342  21.557  -0.325  0.00  0.00    +0.003 C 
ATOM      8  C   UNL     1     -33.145  18.419   1.487  0.00  0.00    +0.001 C 
ATOM      9  C   UNL     1     -33.503  22.300  -0.112  0.00  0.00    +0.040 C 
ATOM     10  C   UNL     1     -31.984  17.676   1.273  0.00  0.00    +0.019 C 
ENDROOT
BRANCH   3  11
ATOM     11  S   UNL     1     -29.486  17.283   0.262  0.00  0.00    +0.042 S 
ATOM     12  O   UNL     1     -29.952  15.720   0.375  0.00  0.00    -0.065 OA
ATOM     13  O   UNL     1     -29.059  17.501  -1.112  0.00  0.00    -0.065 OA
ATOM     14  O   UNL     1     -28.590  17.568   1.372  0.00  0.00    -0.065 OA
ENDBRANCH   3  11
BRANCH   4  15
ATOM     15  O   UNL     1     -35.680  22.487   0.840  0.00  0.00    -0.357 OA
BRANCH  15  16
ATOM     16  S   UNL     1     -36.804  22.102   1.969  0.00  0.00    +0.051 S 
ATOM     17  O   UNL     1     -36.993  20.664   1.984  0.00  0.00    -0.057 OA
ATOM     18  O   UNL     1     -37.921  23.017   1.824  0.00  0.00    -0.057 OA
BRANCH  16  19
ATOM     19  C   UNL     1     -36.029  22.494   3.508  0.00  0.00    +0.122 C 
ATOM     20  C   UNL     1     -35.769  23.818   3.818  0.00  0.00    +0.044 C 
ATOM     21  C   UNL     1     -35.694  21.469   4.377  0.00  0.00    +0.020 C 
ATOM     22  C   UNL     1     -35.156  24.127   5.032  0.00  0.00    +0.144 C 
ATOM     23  C   UNL     1     -35.082  21.778   5.591  0.00  0.00    +0.003 C 
ATOM     24  C   UNL     1     -34.813  23.107   5.919  0.00  0.00    +0.024 C 
BRANCH  22  27
ATOM     25  O   UNL     1     -33.689  25.868   5.390  0.00  0.00    -0.126 OA
ATOM     26  O   UNL     1     -35.837  26.249   5.625  0.00  0.00    -0.126 OA
ATOM     27  N   UNL     1     -34.881  25.479   5.366  0.00  0.00    +0.058 N 
ENDBRANCH  22  27
ENDBRANCH  16  19
ENDBRANCH  15  16
ENDBRANCH   4  15
TORSDOF 5
ENDMDL
MODEL 3
REMARK VINA RESULT:      -7.3      3.289      7.752
REMARK  Name = 191593
REMARK  5 active torsions:
REMARK  status: ('A' for Active; 'I' for Inactive)
REMARK    1  A    between atoms: C_3  and  S_11
REMARK    2  A    between atoms: C_4  and  O_15
REMARK    3  A    between atoms: O_15  and  S_16
REMARK    4  A    between atoms: S_16  and  C_19
REMARK    5  A    between atoms: C_22  and  N_27
REMARK                            x       y       z     vdW  Elec       q    Type
REMARK                         _______ _______ _______ _____ _____    ______ ____
ROOT
ATOM      1  C   UNL     1     -34.689  22.215   0.749  0.00  0.00    +0.003 C 
ATOM      2  C   UNL     1     -35.040  21.045   1.463  0.00  0.00    +0.001 C 
ATOM      3  C   UNL     1     -33.003  19.971   0.677  0.00  0.00    +0.112 C 
ATOM      4  C   UNL     1     -36.725  23.290   1.535  0.00  0.00    +0.172 C 
ATOM      5  C   UNL     1     -35.544  23.329   0.794  0.00  0.00    +0.040 C 
ATOM      6  C   UNL     1     -34.185  19.931   1.417  0.00  0.00    +0.019 C 
ATOM      7  C   UNL     1     -36.233  21.023   2.202  0.00  0.00    +0.003 C 
ATOM      8  C   UNL     1     -33.496  22.237   0.009  0.00  0.00    +0.001 C 
ATOM      9  C   UNL     1     -37.070  22.138   2.237  0.00  0.00    +0.040 C 
ATOM     10  C   UNL     1     -32.659  21.122  -0.025  0.00  0.00    +0.019 C 
ENDROOT
BRANCH   3  11
ATOM     11  S   UNL     1     -31.954  18.575   0.633  0.00  0.00    +0.042 S 
ATOM     12  O   UNL     1     -32.468  17.692  -0.643  0.00  0.00    -0.065 OA
ATOM     13  O   UNL     1     -30.609  19.033   0.319  0.00  0.00    -0.065 OA
ATOM     14  O   UNL     1     -32.214  17.812   1.844  0.00  0.00    -0.065 OA
ENDBRANCH   3  11
BRANCH   4  15
ATOM     15  O   UNL     1     -37.543  24.378   1.569  0.00  0.00    -0.357 OA
BRANCH  15  16
ATOM     16  S   UNL     1     -37.968  25.142   2.955  0.00  0.00    +0.051 S 
ATOM     17  O   UNL     1     -38.823  24.271   3.739  0.00  0.00    -0.057 OA
ATOM     18  O   UNL     1     -38.363  26.498   2.620  0.00  0.00    -0.057 OA
BRANCH  16  19
ATOM     19  C   UNL     1     -36.459  25.268   3.865  0.00  0.00    +0.122 C 
ATOM     20  C   UNL     1     -35.573  26.289   3.569  0.00  0.00    +0.044 C 
ATOM     21  C   UNL     1     -36.188  24.341   4.857  0.00  0.00    +0.020 C 
ATOM     22  C   UNL     1     -34.381  26.388   4.286  0.00  0.00    +0.144 C 
ATOM     23  C   UNL     1     -34.996  24.440   5.574  0.00  0.00    +0.003 C 
ATOM     24  C   UNL     1     -34.092  25.463   5.289  0.00  0.00    +0.024 C 
BRANCH  22  27
ATOM     25  O   UNL     1     -33.900  28.573   3.728  0.00  0.00    -0.126 OA
ATOM     26  O   UNL     1     -32.231  27.177   4.014  0.00  0.00    -0.126 OA
ATOM     27  N   UNL     1     -33.460  27.429   3.995  0.00  0.00    +0.058 N 
ENDBRANCH  22  27
ENDBRANCH  16  19
ENDBRANCH  15  16
ENDBRANCH   4  15
TORSDOF 5
ENDMDL
MODEL 4
REMARK VINA RESULT:      -7.3      3.180      7.825
REMARK  Name = 191593
REMARK  5 active torsions:
REMARK  status: ('A' for Active; 'I' for Inactive)
REMARK    1  A    between atoms: C_3  and  S_11
REMARK    2  A    between atoms: C_4  and  O_15
REMARK    3  A    between atoms: O_15  and  S_16
REMARK    4  A    between atoms: S_16  and  C_19
REMARK    5  A    between atoms: C_22  and  N_27
REMARK                            x       y       z     vdW  Elec       q    Type
REMARK                         _______ _______ _______ _____ _____    ______ ____
ROOT
ATOM      1  C   UNL     1     -33.514  19.535   1.130  0.00  0.00    +0.003 C 
ATOM      2  C   UNL     1     -32.756  20.455   0.369  0.00  0.00    +0.001 C 
ATOM      3  C   UNL     1     -30.885  18.899   0.376  0.00  0.00    +0.112 C 
ATOM      4  C   UNL     1     -35.385  21.089   1.124  0.00  0.00    +0.172 C 
ATOM      5  C   UNL     1     -34.828  19.868   1.501  0.00  0.00    +0.040 C 
ATOM      6  C   UNL     1     -31.442  20.122  -0.001  0.00  0.00    +0.019 C 
ATOM      7  C   UNL     1     -33.332  21.681  -0.000  0.00  0.00    +0.003 C 
ATOM      8  C   UNL     1     -32.937  18.309   1.500  0.00  0.00    +0.001 C 
ATOM      9  C   UNL     1     -34.639  21.995   0.375  0.00  0.00    +0.040 C 
ATOM     10  C   UNL     1     -31.632  17.995   1.124  0.00  0.00    +0.019 C 
ENDROOT
BRANCH   3  11
ATOM     11  S   UNL     1     -29.250  18.504  -0.094  0.00  0.00    +0.042 S 
ATOM     12  O   UNL     1     -28.536  19.939  -0.414  0.00  0.00    -0.065 OA
ATOM     13  O   UNL     1     -28.573  17.941   1.064  0.00  0.00    -0.065 OA
ATOM     14  O   UNL     1     -29.337  17.755  -1.339  0.00  0.00    -0.065 OA
ENDBRANCH   3  11
BRANCH   4  15
ATOM     15  O   UNL     1     -36.660  21.398   1.490  0.00  0.00    -0.357 OA
BRANCH  15  16
ATOM     16  S   UNL     1     -37.108  22.878   2.032  0.00  0.00    +0.051 S 
ATOM     17  O   UNL     1     -38.458  22.806   2.558  0.00  0.00    -0.057 OA
ATOM     18  O   UNL     1     -36.731  23.859   1.030  0.00  0.00    -0.057 OA
BRANCH  16  19
ATOM     19  C   UNL     1     -36.069  23.164   3.431  0.00  0.00    +0.122 C 
ATOM     20  C   UNL     1     -35.396  24.369   3.541  0.00  0.00    +0.044 C 
ATOM     21  C   UNL     1     -35.944  22.177   4.394  0.00  0.00    +0.020 C 
ATOM     22  C   UNL     1     -34.574  24.594   4.646  0.00  0.00    +0.144 C 
ATOM     23  C   UNL     1     -35.123  22.402   5.499  0.00  0.00    +0.003 C 
ATOM     24  C   UNL     1     -34.438  23.611   5.625  0.00  0.00    +0.024 C 
BRANCH  22  27
ATOM     25  O   UNL     1     -32.938  26.075   3.979  0.00  0.00    -0.126 OA
ATOM     26  O   UNL     1     -34.215  26.625   5.677  0.00  0.00    -0.126 OA
ATOM     27  N   UNL     1     -33.876  25.824   4.773  0.00  0.00    +0.058 N 
ENDBRANCH  22  27
ENDBRANCH  16  19
ENDBRANCH  15  16
ENDBRANCH   4  15
TORSDOF 5
ENDMDL
MODEL 5
REMARK VINA RESULT:      -7.2      3.114      8.053
REMARK  Name = 191593
REMARK  5 active torsions:
REMARK  status: ('A' for Active; 'I' for Inactive)
REMARK    1  A    between atoms: C_3  and  S_11
REMARK    2  A    between atoms: C_4  and  O_15
REMARK    3  A    between atoms: O_15  and  S_16
REMARK    4  A    between atoms: S_16  and  C_19
REMARK    5  A    between atoms: C_22  and  N_27
REMARK                            x       y       z     vdW  Elec       q    Type
REMARK                         _______ _______ _______ _____ _____    ______ ____
ROOT
ATOM      1  C   UNL     1     -32.466  20.450   0.200  0.00  0.00    +0.003 C 
ATOM      2  C   UNL     1     -32.803  19.261   0.888  0.00  0.00    +0.001 C 
ATOM      3  C   UNL     1     -30.625  18.334   0.327  0.00  0.00    +0.112 C 
ATOM      4  C   UNL     1     -34.645  21.377   0.760  0.00  0.00    +0.172 C 
ATOM      5  C   UNL     1     -33.399  21.499   0.144  0.00  0.00    +0.040 C 
ATOM      6  C   UNL     1     -31.871  18.211   0.943  0.00  0.00    +0.019 C 
ATOM      7  C   UNL     1     -34.063  19.154   1.500  0.00  0.00    +0.003 C 
ATOM      8  C   UNL     1     -31.208  20.556  -0.413  0.00  0.00    +0.001 C 
ATOM      9  C   UNL     1     -34.976  20.207   1.436  0.00  0.00    +0.040 C 
ATOM     10  C   UNL     1     -30.294  19.504  -0.349  0.00  0.00    +0.019 C 
ENDROOT
BRANCH   3  11
ATOM     11  S   UNL     1     -29.479  17.018   0.408  0.00  0.00    +0.042 S 
ATOM     12  O   UNL     1     -28.616  17.115  -0.977  0.00  0.00    -0.065 OA
ATOM     13  O   UNL     1     -28.559  17.290   1.502  0.00  0.00    -0.065 OA
ATOM     14  O   UNL     1     -30.249  15.784   0.375  0.00  0.00    -0.065 OA
ENDBRANCH   3  11
BRANCH   4  15
ATOM     15  O   UNL     1     -35.538  22.402   0.697  0.00  0.00    -0.357 OA
BRANCH  15  16
ATOM     16  S   UNL     1     -36.729  22.628   1.800  0.00  0.00    +0.051 S 
ATOM     17  O   UNL     1     -37.383  21.361   2.063  0.00  0.00    -0.057 OA
ATOM     18  O   UNL     1     -37.480  23.810   1.418  0.00  0.00    -0.057 OA
BRANCH  16  19
ATOM     19  C   UNL     1     -35.872  23.037   3.290  0.00  0.00    +0.122 C 
ATOM     20  C   UNL     1     -35.221  24.256   3.385  0.00  0.00    +0.044 C 
ATOM     21  C   UNL     1     -35.865  22.131   4.337  0.00  0.00    +0.020 C 
ATOM     22  C   UNL     1     -34.544  24.577   4.561  0.00  0.00    +0.144 C 
ATOM     23  C   UNL     1     -35.188  22.453   5.512  0.00  0.00    +0.003 C 
ATOM     24  C   UNL     1     -34.526  23.676   5.625  0.00  0.00    +0.024 C 
BRANCH  22  27
ATOM     25  O   UNL     1     -34.225  26.625   5.572  0.00  0.00    -0.126 OA
ATOM     26  O   UNL     1     -32.938  26.085   3.878  0.00  0.00    -0.126 OA
ATOM     27  N   UNL     1     -33.870  25.822   4.675  0.00  0.00    +0.058 N 
ENDBRANCH  22  27
ENDBRANCH  16  19
ENDBRANCH  15  16
ENDBRANCH   4  15
TORSDOF 5
ENDMDL
MODEL 6
REMARK VINA RESULT:      -7.0      3.172      7.901
REMARK  Name = 191593
REMARK  5 active torsions:
REMARK  status: ('A' for Active; 'I' for Inactive)
REMARK    1  A    between atoms: C_3  and  S_11
REMARK    2  A    between atoms: C_4  and  O_15
REMARK    3  A    between atoms: O_15  and  S_16
REMARK    4  A    between atoms: S_16  and  C_19
REMARK    5  A    between atoms: C_22  and  N_27
REMARK                            x       y       z     vdW  Elec       q    Type
REMARK                         _______ _______ _______ _____ _____    ______ ____
ROOT
ATOM      1  C   UNL     1     -34.282  21.724   0.796  0.00  0.00    +0.003 C 
ATOM      2  C   UNL     1     -34.435  20.437   1.362  0.00  0.00    +0.001 C 
ATOM      3  C   UNL     1     -32.327  19.758   0.355  0.00  0.00    +0.112 C 
ATOM      4  C   UNL     1     -36.390  22.404   1.802  0.00  0.00    +0.172 C 
ATOM      5  C   UNL     1     -35.270  22.697   1.025  0.00  0.00    +0.040 C 
ATOM      6  C   UNL     1     -33.448  19.464   1.133  0.00  0.00    +0.019 C 
ATOM      7  C   UNL     1     -35.570  20.159   2.141  0.00  0.00    +0.003 C 
ATOM      8  C   UNL     1     -33.148  22.001   0.016  0.00  0.00    +0.001 C 
ATOM      9  C   UNL     1     -36.540  21.137   2.359  0.00  0.00    +0.040 C 
ATOM     10  C   UNL     1     -32.177  21.024  -0.201  0.00  0.00    +0.019 C 
ENDROOT
BRANCH   3  11
ATOM     11  S   UNL     1     -31.110  18.534   0.082  0.00  0.00    +0.042 S 
ATOM     12  O   UNL     1     -31.125  17.607   1.428  0.00  0.00    -0.065 OA
ATOM     13  O   UNL     1     -31.557  17.694  -1.019  0.00  0.00    -0.065 OA
ATOM     14  O   UNL     1     -29.828  19.219   0.020  0.00  0.00    -0.065 OA
ENDBRANCH   3  11
BRANCH   4  15
ATOM     15  O   UNL     1     -37.339  23.357   2.015  0.00  0.00    -0.357 OA
BRANCH  15  16
ATOM     16  S   UNL     1     -37.456  24.217   3.406  0.00  0.00    +0.051 S 
ATOM     17  O   UNL     1     -36.753  23.515   4.462  0.00  0.00    -0.057 OA
ATOM     18  O   UNL     1     -38.836  24.641   3.559  0.00  0.00    -0.057 OA
BRANCH  16  19
ATOM     19  C   UNL     1     -36.512  25.677   3.097  0.00  0.00    +0.122 C 
ATOM     20  C   UNL     1     -35.394  25.938   3.871  0.00  0.00    +0.044 C 
ATOM     21  C   UNL     1     -36.907  26.537   2.086  0.00  0.00    +0.020 C 
ATOM     22  C   UNL     1     -34.650  27.092   3.628  0.00  0.00    +0.144 C 
ATOM     23  C   UNL     1     -36.162  27.690   1.843  0.00  0.00    +0.003 C 
ATOM     24  C   UNL     1     -35.033  27.969   2.614  0.00  0.00    +0.024 C 
BRANCH  22  27
ATOM     25  O   UNL     1     -32.975  26.450   5.077  0.00  0.00    -0.126 OA
ATOM     26  O   UNL     1     -33.044  28.544   4.422  0.00  0.00    -0.126 OA
ATOM     27  N   UNL     1     -33.501  27.376   4.414  0.00  0.00    +0.058 N 
ENDBRANCH  22  27
ENDBRANCH  16  19
ENDBRANCH  15  16
ENDBRANCH   4  15
TORSDOF 5
ENDMDL
MODEL 7
REMARK VINA RESULT:      -6.9      1.798      2.168
REMARK  Name = 191593
REMARK  5 active torsions:
REMARK  status: ('A' for Active; 'I' for Inactive)
REMARK    1  A    between atoms: C_3  and  S_11
REMARK    2  A    between atoms: C_4  and  O_15
REMARK    3  A    between atoms: O_15  and  S_16
REMARK    4  A    between atoms: S_16  and  C_19
REMARK    5  A    between atoms: C_22  and  N_27
REMARK                            x       y       z     vdW  Elec       q    Type
REMARK                         _______ _______ _______ _____ _____    ______ ____
ROOT
ATOM      1  C   UNL     1     -33.995  25.160   3.039  0.00  0.00    +0.003 C 
ATOM      2  C   UNL     1     -34.285  25.167   4.423  0.00  0.00    +0.001 C 
ATOM      3  C   UNL     1     -32.881  27.135   4.695  0.00  0.00    +0.112 C 
ATOM      4  C   UNL     1     -35.399  23.192   2.767  0.00  0.00    +0.172 C 
ATOM      5  C   UNL     1     -34.560  24.165   2.224  0.00  0.00    +0.040 C 
ATOM      6  C   UNL     1     -33.720  26.162   5.239  0.00  0.00    +0.019 C 
ATOM      7  C   UNL     1     -35.131  24.179   4.953  0.00  0.00    +0.003 C 
ATOM      8  C   UNL     1     -33.149  26.147   2.509  0.00  0.00    +0.001 C 
ATOM      9  C   UNL     1     -35.684  23.199   4.129  0.00  0.00    +0.040 C 
ATOM     10  C   UNL     1     -32.596  27.128   3.333  0.00  0.00    +0.019 C 
ENDROOT
BRANCH   3  11
ATOM     11  S   UNL     1     -32.188  28.364   5.725  0.00  0.00    +0.042 S 
ATOM     12  O   UNL     1     -30.570  28.193   5.569  0.00  0.00    -0.065 OA
ATOM     13  O   UNL     1     -32.534  29.663   5.169  0.00  0.00    -0.065 OA
ATOM     14  O   UNL     1     -32.549  28.022   7.093  0.00  0.00    -0.065 OA
ENDBRANCH   3  11
BRANCH   4  15
ATOM     15  O   UNL     1     -35.939  22.234   1.964  0.00  0.00    -0.357 OA
BRANCH  15  16
ATOM     16  S   UNL     1     -35.670  20.630   2.168  0.00  0.00    +0.051 S 
ATOM     17  O   UNL     1     -36.683  19.880   1.452  0.00  0.00    -0.057 OA
ATOM     18  O   UNL     1     -35.397  20.394   3.574  0.00  0.00    -0.057 OA
BRANCH  16  19
ATOM     19  C   UNL     1     -34.159  20.329   1.305  0.00  0.00    +0.122 C 
ATOM     20  C   UNL     1     -33.675  21.286   0.430  0.00  0.00    +0.044 C 
ATOM     21  C   UNL     1     -33.484  19.138   1.517  0.00  0.00    +0.020 C 
ATOM     22  C   UNL     1     -32.482  21.047  -0.253  0.00  0.00    +0.144 C 
ATOM     23  C   UNL     1     -32.291  18.900   0.835  0.00  0.00    +0.003 C 
ATOM     24  C   UNL     1     -31.790  19.854  -0.051  0.00  0.00    +0.024 C 
BRANCH  22  27
ATOM     25  O   UNL     1     -32.531  22.165  -2.269  0.00  0.00    -0.126 OA
ATOM     26  O   UNL     1     -30.979  22.703  -0.814  0.00  0.00    -0.126 OA
ATOM     27  N   UNL     1     -31.973  22.018  -1.155  0.00  0.00    +0.058 N 
ENDBRANCH  22  27
ENDBRANCH  16  19
ENDBRANCH  15  16
ENDBRANCH   4  15
TORSDOF 5
ENDMDL
MODEL 8
REMARK VINA RESULT:      -6.9      3.186      8.899
REMARK  Name = 191593
REMARK  5 active torsions:
REMARK  status: ('A' for Active; 'I' for Inactive)
REMARK    1  A    between atoms: C_3  and  S_11
REMARK    2  A    between atoms: C_4  and  O_15
REMARK    3  A    between atoms: O_15  and  S_16
REMARK    4  A    between atoms: S_16  and  C_19
REMARK    5  A    between atoms: C_22  and  N_27
REMARK                            x       y       z     vdW  Elec       q    Type
REMARK                         _______ _______ _______ _____ _____    ______ ____
ROOT
ATOM      1  C   UNL     1     -34.133  19.006   1.156  0.00  0.00    +0.003 C 
ATOM      2  C   UNL     1     -34.732  18.227   0.137  0.00  0.00    +0.001 C 
ATOM      3  C   UNL     1     -32.668  16.958  -0.087  0.00  0.00    +0.112 C 
ATOM      4  C   UNL     1     -36.196  20.276   1.380  0.00  0.00    +0.172 C 
ATOM      5  C   UNL     1     -34.879  20.028   1.767  0.00  0.00    +0.040 C 
ATOM      6  C   UNL     1     -33.985  17.206  -0.475  0.00  0.00    +0.019 C 
ATOM      7  C   UNL     1     -36.058  18.492  -0.241  0.00  0.00    +0.003 C 
ATOM      8  C   UNL     1     -32.807  18.741   1.533  0.00  0.00    +0.001 C 
ATOM      9  C   UNL     1     -36.784  19.509   0.378  0.00  0.00    +0.040 C 
ATOM     10  C   UNL     1     -32.081  17.724   0.915  0.00  0.00    +0.019 C 
ENDROOT
BRANCH   3  11
ATOM     11  S   UNL     1     -31.757  15.683  -0.859  0.00  0.00    +0.042 S 
ATOM     12  O   UNL     1     -30.418  16.410  -1.451  0.00  0.00    -0.065 OA
ATOM     13  O   UNL     1     -31.317  14.756   0.173  0.00  0.00    -0.065 OA
ATOM     14  O   UNL     1     -32.553  15.217  -1.985  0.00  0.00    -0.065 OA
ENDBRANCH   3  11
BRANCH   4  15
ATOM     15  O   UNL     1     -36.907  21.269   1.982  0.00  0.00    -0.357 OA
BRANCH  15  16
ATOM     16  S   UNL     1     -36.631  22.863   1.715  0.00  0.00    +0.051 S 
ATOM     17  O   UNL     1     -37.901  23.558   1.627  0.00  0.00    -0.057 OA
ATOM     18  O   UNL     1     -35.624  22.979   0.677  0.00  0.00    -0.057 OA
BRANCH  16  19
ATOM     19  C   UNL     1     -35.882  23.432   3.210  0.00  0.00    +0.122 C 
ATOM     20  C   UNL     1     -35.326  24.700   3.249  0.00  0.00    +0.044 C 
ATOM     21  C   UNL     1     -35.861  22.600   4.316  0.00  0.00    +0.020 C 
ATOM     22  C   UNL     1     -34.733  25.148   4.429  0.00  0.00    +0.144 C 
ATOM     23  C   UNL     1     -35.269  23.049   5.496  0.00  0.00    +0.003 C 
ATOM     24  C   UNL     1     -34.704  24.323   5.553  0.00  0.00    +0.024 C 
BRANCH  22  27
ATOM     25  O   UNL     1     -32.982  26.570   4.907  0.00  0.00    -0.126 OA
ATOM     26  O   UNL     1     -34.839  27.431   4.115  0.00  0.00    -0.126 OA
ATOM     27  N   UNL     1     -34.157  26.445   4.487  0.00  0.00    +0.058 N 
ENDBRANCH  22  27
ENDBRANCH  16  19
ENDBRANCH  15  16
ENDBRANCH   4  15
TORSDOF 5
ENDMDL
MODEL 9
REMARK VINA RESULT:      -6.9      2.864      3.726
REMARK  Name = 191593
REMARK  5 active torsions:
REMARK  status: ('A' for Active; 'I' for Inactive)
REMARK    1  A    between atoms: C_3  and  S_11
REMARK    2  A    between atoms: C_4  and  O_15
REMARK    3  A    between atoms: O_15  and  S_16
REMARK    4  A    between atoms: S_16  and  C_19
REMARK    5  A    between atoms: C_22  and  N_27
REMARK                            x       y       z     vdW  Elec       q    Type
REMARK                         _______ _______ _______ _____ _____    ______ ____
ROOT
ATOM      1  C   UNL     1     -36.493  24.984   4.024  0.00  0.00    +0.003 C 
ATOM      2  C   UNL     1     -36.286  26.118   3.204  0.00  0.00    +0.001 C 
ATOM      3  C   UNL     1     -34.222  26.591   4.402  0.00  0.00    +0.112 C 
ATOM      4  C   UNL     1     -38.557  24.511   2.826  0.00  0.00    +0.172 C 
ATOM      5  C   UNL     1     -37.635  24.191   3.823  0.00  0.00    +0.040 C 
ATOM      6  C   UNL     1     -35.144  26.912   3.405  0.00  0.00    +0.019 C 
ATOM      7  C   UNL     1     -37.225  26.426   2.207  0.00  0.00    +0.003 C 
ATOM      8  C   UNL     1     -35.554  24.677   5.022  0.00  0.00    +0.001 C 
ATOM      9  C   UNL     1     -38.353  25.627   2.020  0.00  0.00    +0.040 C 
ATOM     10  C   UNL     1     -34.426  25.476   5.208  0.00  0.00    +0.019 C 
ENDROOT
BRANCH   3  11
ATOM     11  S   UNL     1     -32.808  27.590   4.636  0.00  0.00    +0.042 S 
ATOM     12  O   UNL     1     -31.694  27.009   3.591  0.00  0.00    -0.065 OA
ATOM     13  O   UNL     1     -33.136  28.940   4.202  0.00  0.00    -0.065 OA
ATOM     14  O   UNL     1     -32.333  27.340   5.989  0.00  0.00    -0.065 OA
ENDBRANCH   3  11
BRANCH   4  15
ATOM     15  O   UNL     1     -39.659  23.732   2.643  0.00  0.00    -0.357 OA
BRANCH  15  16
ATOM     16  S   UNL     1     -39.732  22.517   1.546  0.00  0.00    +0.051 S 
ATOM     17  O   UNL     1     -40.372  23.001   0.339  0.00  0.00    -0.057 OA
ATOM     18  O   UNL     1     -40.193  21.321   2.228  0.00  0.00    -0.057 OA
BRANCH  16  19
ATOM     19  C   UNL     1     -38.046  22.226   1.105  0.00  0.00    +0.122 C 
ATOM     20  C   UNL     1     -37.261  21.426   1.918  0.00  0.00    +0.044 C 
ATOM     21  C   UNL     1     -37.539  22.805  -0.046  0.00  0.00    +0.020 C 
ATOM     22  C   UNL     1     -35.930  21.198   1.570  0.00  0.00    +0.144 C 
ATOM     23  C   UNL     1     -36.208  22.576  -0.394  0.00  0.00    +0.003 C 
ATOM     24  C   UNL     1     -35.402  21.773   0.414  0.00  0.00    +0.024 C 
BRANCH  22  27
ATOM     25  O   UNL     1     -35.196  20.495   3.640  0.00  0.00    -0.126 OA
ATOM     26  O   UNL     1     -34.322  19.569   1.852  0.00  0.00    -0.126 OA
ATOM     27  N   UNL     1     -35.110  20.382   2.393  0.00  0.00    +0.058 N 
ENDBRANCH  22  27
ENDBRANCH  16  19
ENDBRANCH  15  16
ENDBRANCH   4  15
TORSDOF 5
ENDMDL
