MODEL 1
REMARK VINA RESULT:      -5.5      0.000      0.000
REMARK  Name = 53298813
REMARK  7 active torsions:
REMARK  status: ('A' for Active; 'I' for Inactive)
REMARK    1  A    between atoms: N_1  and  C1*_8
REMARK    2  A    between atoms: C_3  and  N_23
REMARK    3  A    between atoms: C_5  and  C_20
REMARK    4  A    between atoms: C2*_7  and  O2*_11
REMARK    5  A    between atoms: C3*_9  and  O3*_13
REMARK    6  A    between atoms: C4*_10  and  C5*_15
REMARK    7  A    between atoms: C5*_15  and  O5*_16
REMARK                            x       y       z     vdW  Elec       q    Type
REMARK                         _______ _______ _______ _____ _____    ______ ____
ROOT
ATOM      1  N   UNL     1     -34.742  26.190   4.306  0.00  0.00    -0.211 NA
ATOM      2  N   UNL     1     -33.636  27.247   2.695  0.00  0.00    -0.249 NA
ATOM      3  C   UNL     1     -33.653  26.755   4.907  0.00  0.00    +0.161 C 
ATOM      4  C   UNL     1     -34.690  26.513   2.978  0.00  0.00    +0.204 C 
ATOM      5  C   UNL     1     -32.985  27.401   3.894  0.00  0.00    +0.138 C 
ENDROOT
BRANCH   1   8
ATOM      6  O4* UNL     1     -35.252  24.388   5.862  0.00  0.00    -0.336 OA
ATOM      7  C2* UNL     1     -36.681  24.591   3.949  0.00  0.00    +0.183 C 
ATOM      8  C1* UNL     1     -35.822  25.360   4.962  0.00  0.00    +0.209 C 
ATOM      9  C3* UNL     1     -36.244  23.149   4.116  0.00  0.00    +0.171 C 
ATOM     10  C4* UNL     1     -35.826  23.101   5.579  0.00  0.00    +0.175 C 
BRANCH   7  11
ATOM     11  O2* UNL     1     -38.059  24.726   4.293  0.00  0.00    -0.378 OA
ATOM     12  H2* UNL     1     -38.221  25.619   4.635  0.00  0.00    +0.211 HD
ENDBRANCH   7  11
BRANCH   9  13
ATOM     13  O3* UNL     1     -35.131  22.889   3.269  0.00  0.00    -0.379 OA
ATOM     14  H3* UNL     1     -34.358  22.662   3.811  0.00  0.00    +0.211 HD
ENDBRANCH   9  13
BRANCH  10  15
ATOM     15  C5* UNL     1     -34.825  22.017   5.936  0.00  0.00    +0.169 C 
BRANCH  15  16
ATOM     16  O5* UNL     1     -35.360  20.757   5.562  0.00  0.00    -0.379 OA
ATOM     17  H5* UNL     1     -36.184  20.890   5.068  0.00  0.00    +0.211 HD
ENDBRANCH  15  16
ENDBRANCH  10  15
ENDBRANCH   1   8
BRANCH   5  20
ATOM     18  O   UNL     1     -30.906  27.891   4.884  0.00  0.00    -0.269 OA
ATOM     19  N   UNL     1     -31.539  29.198   3.110  0.00  0.00    -0.324 N 
ATOM     20  C   UNL     1     -31.771  28.150   4.013  0.00  0.00    +0.259 C 
ATOM     21  H   UNL     1     -30.710  29.727   3.173  0.00  0.00    +0.145 HD
ATOM     22  H   UNL     1     -32.203  29.404   2.413  0.00  0.00    +0.145 HD
ENDBRANCH   5  20
BRANCH   3  23
ATOM     23  N   UNL     1     -33.414  26.619   6.228  0.00  0.00    -0.305 NA
ATOM     24  H   UNL     1     -33.656  25.783   6.689  0.00  0.00    +0.120 HD
ATOM     25  H   UNL     1     -32.998  27.356   6.732  0.00  0.00    +0.120 HD
ENDBRANCH   3  23
TORSDOF 7
ENDMDL
MODEL 2
REMARK VINA RESULT:      -5.5      3.656      5.528
REMARK  Name = 53298813
REMARK  7 active torsions:
REMARK  status: ('A' for Active; 'I' for Inactive)
REMARK    1  A    between atoms: N_1  and  C1*_8
REMARK    2  A    between atoms: C_3  and  N_23
REMARK    3  A    between atoms: C_5  and  C_20
REMARK    4  A    between atoms: C2*_7  and  O2*_11
REMARK    5  A    between atoms: C3*_9  and  O3*_13
REMARK    6  A    between atoms: C4*_10  and  C5*_15
REMARK    7  A    between atoms: C5*_15  and  O5*_16
REMARK                            x       y       z     vdW  Elec       q    Type
REMARK                         _______ _______ _______ _____ _____    ______ ____
ROOT
ATOM      1  N   UNL     1     -37.049  24.540   4.093  0.00  0.00    -0.211 NA
ATOM      2  N   UNL     1     -35.403  24.016   5.489  0.00  0.00    -0.249 NA
ATOM      3  C   UNL     1     -36.835  23.199   3.935  0.00  0.00    +0.161 C 
ATOM      4  C   UNL     1     -36.167  24.986   5.037  0.00  0.00    +0.204 C 
ATOM      5  C   UNL     1     -35.814  22.900   4.806  0.00  0.00    +0.138 C 
ENDROOT
BRANCH   1   8
ATOM      6  O4* UNL     1     -39.262  24.641   3.082  0.00  0.00    -0.336 OA
ATOM      7  C2* UNL     1     -37.546  25.951   2.043  0.00  0.00    +0.183 C 
ATOM      8  C1* UNL     1     -38.068  25.395   3.374  0.00  0.00    +0.209 C 
ATOM      9  C3* UNL     1     -38.294  25.152   0.992  0.00  0.00    +0.171 C 
ATOM     10  C4* UNL     1     -39.603  24.828   1.699  0.00  0.00    +0.175 C 
BRANCH   7  11
ATOM     11  O2* UNL     1     -37.885  27.333   1.938  0.00  0.00    -0.378 OA
ATOM     12  H2* UNL     1     -38.845  27.438   2.022  0.00  0.00    +0.211 HD
ENDBRANCH   7  11
BRANCH   9  13
ATOM     13  O3* UNL     1     -37.575  23.961   0.700  0.00  0.00    -0.379 OA
ATOM     14  H3* UNL     1     -37.721  23.714  -0.227  0.00  0.00    +0.211 HD
ENDBRANCH   9  13
BRANCH  10  15
ATOM     15  C5* UNL     1     -40.331  23.597   1.190  0.00  0.00    +0.169 C 
BRANCH  15  16
ATOM     16  O5* UNL     1     -40.191  22.555   2.142  0.00  0.00    -0.379 OA
ATOM     17  H5* UNL     1     -41.066  22.198   2.363  0.00  0.00    +0.211 HD
ENDBRANCH  15  16
ENDBRANCH  10  15
ENDBRANCH   1   8
BRANCH   5  20
ATOM     18  O   UNL     1     -35.207  20.728   4.126  0.00  0.00    -0.269 OA
ATOM     19  N   UNL     1     -34.619  21.347   6.254  0.00  0.00    -0.324 N 
ATOM     20  C   UNL     1     -35.220  21.614   5.015  0.00  0.00    +0.259 C 
ATOM     21  H   UNL     1     -34.204  20.469   6.421  0.00  0.00    +0.145 HD
ATOM     22  H   UNL     1     -34.611  22.037   6.956  0.00  0.00    +0.145 HD
ENDBRANCH   5  20
BRANCH   3  23
ATOM     23  N   UNL     1     -37.552  22.458   3.066  0.00  0.00    -0.305 NA
ATOM     24  H   UNL     1     -38.210  21.805   3.401  0.00  0.00    +0.120 HD
ATOM     25  H   UNL     1     -37.419  22.567   2.097  0.00  0.00    +0.120 HD
ENDBRANCH   3  23
TORSDOF 7
ENDMDL
MODEL 3
REMARK VINA RESULT:      -5.4      3.131      5.422
REMARK  Name = 53298813
REMARK  7 active torsions:
REMARK  status: ('A' for Active; 'I' for Inactive)
REMARK    1  A    between atoms: N_1  and  C1*_8
REMARK    2  A    between atoms: C_3  and  N_23
REMARK    3  A    between atoms: C_5  and  C_20
REMARK    4  A    between atoms: C2*_7  and  O2*_11
REMARK    5  A    between atoms: C3*_9  and  O3*_13
REMARK    6  A    between atoms: C4*_10  and  C5*_15
REMARK    7  A    between atoms: C5*_15  and  O5*_16
REMARK                            x       y       z     vdW  Elec       q    Type
REMARK                         _______ _______ _______ _____ _____    ______ ____
ROOT
ATOM      1  N   UNL     1     -36.999  26.036   2.528  0.00  0.00    -0.211 NA
ATOM      2  N   UNL     1     -38.628  27.010   1.374  0.00  0.00    -0.249 NA
ATOM      3  C   UNL     1     -38.167  25.602   3.089  0.00  0.00    +0.161 C 
ATOM      4  C   UNL     1     -37.325  26.878   1.502  0.00  0.00    +0.204 C 
ATOM      5  C   UNL     1     -39.157  26.217   2.361  0.00  0.00    +0.138 C 
ENDROOT
BRANCH   1   8
ATOM      6  O4* UNL     1     -35.550  24.340   3.506  0.00  0.00    -0.336 OA
ATOM      7  C2* UNL     1     -35.009  26.623   3.991  0.00  0.00    +0.183 C 
ATOM      8  C1* UNL     1     -35.592  25.667   2.943  0.00  0.00    +0.209 C 
ATOM      9  C3* UNL     1     -35.007  25.809   5.271  0.00  0.00    +0.171 C 
ATOM     10  C4* UNL     1     -34.837  24.387   4.753  0.00  0.00    +0.175 C 
BRANCH   7  11
ATOM     11  O2* UNL     1     -33.673  26.969   3.630  0.00  0.00    -0.378 OA
ATOM     12  H2* UNL     1     -33.085  26.820   4.387  0.00  0.00    +0.211 HD
ENDBRANCH   7  11
BRANCH   9  13
ATOM     13  O3* UNL     1     -36.259  25.955   5.929  0.00  0.00    -0.379 OA
ATOM     14  H3* UNL     1     -36.154  25.751   6.873  0.00  0.00    +0.211 HD
ENDBRANCH   9  13
BRANCH  10  15
ATOM     15  C5* UNL     1     -35.355  23.293   5.669  0.00  0.00    +0.169 C 
BRANCH  15  16
ATOM     16  O5* UNL     1     -36.377  22.575   4.995  0.00  0.00    -0.379 OA
ATOM     17  H5* UNL     1     -37.238  22.795   5.385  0.00  0.00    +0.211 HD
ENDBRANCH  15  16
ENDBRANCH  10  15
ENDBRANCH   1   8
BRANCH   5  20
ATOM     18  O   UNL     1     -41.355  25.811   1.618  0.00  0.00    -0.269 OA
ATOM     19  N   UNL     1     -41.084  26.253   3.852  0.00  0.00    -0.324 N 
ATOM     20  C   UNL     1     -40.570  26.085   2.558  0.00  0.00    +0.259 C 
ATOM     21  H   UNL     1     -42.053  26.167   4.012  0.00  0.00    +0.145 HD
ATOM     22  H   UNL     1     -40.478  26.455   4.601  0.00  0.00    +0.145 HD
ENDBRANCH   5  20
BRANCH   3  23
ATOM     23  N   UNL     1     -38.186  24.751   4.135  0.00  0.00    -0.305 NA
ATOM     24  H   UNL     1     -38.683  24.986   4.953  0.00  0.00    +0.120 HD
ATOM     25  H   UNL     1     -37.704  23.894   4.082  0.00  0.00    +0.120 HD
ENDBRANCH   3  23
TORSDOF 7
ENDMDL
MODEL 4
REMARK VINA RESULT:      -5.3      4.054      6.303
REMARK  Name = 53298813
REMARK  7 active torsions:
REMARK  status: ('A' for Active; 'I' for Inactive)
REMARK    1  A    between atoms: N_1  and  C1*_8
REMARK    2  A    between atoms: C_3  and  N_23
REMARK    3  A    between atoms: C_5  and  C_20
REMARK    4  A    between atoms: C2*_7  and  O2*_11
REMARK    5  A    between atoms: C3*_9  and  O3*_13
REMARK    6  A    between atoms: C4*_10  and  C5*_15
REMARK    7  A    between atoms: C5*_15  and  O5*_16
REMARK                            x       y       z     vdW  Elec       q    Type
REMARK                         _______ _______ _______ _____ _____    ______ ____
ROOT
ATOM      1  N   UNL     1     -35.729  21.959   2.553  0.00  0.00    -0.211 NA
ATOM      2  N   UNL     1     -34.425  21.863   0.757  0.00  0.00    -0.249 NA
ATOM      3  C   UNL     1     -35.865  20.692   2.058  0.00  0.00    +0.161 C 
ATOM      4  C   UNL     1     -34.855  22.624   1.740  0.00  0.00    +0.204 C 
ATOM      5  C   UNL     1     -35.052  20.657   0.950  0.00  0.00    +0.138 C 
ENDROOT
BRANCH   1   8
ATOM      6  O4* UNL     1     -36.865  23.885   3.517  0.00  0.00    -0.336 OA
ATOM      7  C2* UNL     1     -35.479  22.604   4.995  0.00  0.00    +0.183 C 
ATOM      8  C1* UNL     1     -36.405  22.542   3.773  0.00  0.00    +0.209 C 
ATOM      9  C3* UNL     1     -35.168  24.081   5.145  0.00  0.00    +0.171 C 
ATOM     10  C4* UNL     1     -36.422  24.738   4.585  0.00  0.00    +0.175 C 
BRANCH   7  11
ATOM     11  O2* UNL     1     -36.178  22.133   6.147  0.00  0.00    -0.378 OA
ATOM     12  H2* UNL     1     -36.721  22.850   6.510  0.00  0.00    +0.211 HD
ENDBRANCH   7  11
BRANCH   9  13
ATOM     13  O3* UNL     1     -34.034  24.411   4.352  0.00  0.00    -0.379 OA
ATOM     14  H3* UNL     1     -33.690  25.277   4.624  0.00  0.00    +0.211 HD
ENDBRANCH   9  13
BRANCH  10  15
ATOM     15  C5* UNL     1     -36.239  26.149   4.057  0.00  0.00    +0.169 C 
BRANCH  15  16
ATOM     16  O5* UNL     1     -35.543  26.916   5.026  0.00  0.00    -0.379 OA
ATOM     17  H5* UNL     1     -35.871  26.693   5.912  0.00  0.00    +0.211 HD
ENDBRANCH  15  16
ENDBRANCH  10  15
ENDBRANCH   1   8
BRANCH   5  20
ATOM     18  O   UNL     1     -34.864  19.655  -1.173  0.00  0.00    -0.269 OA
ATOM     19  N   UNL     1     -34.598  18.283   0.645  0.00  0.00    -0.324 N 
ATOM     20  C   UNL     1     -34.846  19.541   0.077  0.00  0.00    +0.259 C 
ATOM     21  H   UNL     1     -34.453  17.500   0.064  0.00  0.00    +0.145 HD
ATOM     22  H   UNL     1     -34.568  18.181   1.624  0.00  0.00    +0.145 HD
ENDBRANCH   5  20
BRANCH   3  23
ATOM     23  N   UNL     1     -36.667  19.778   2.642  0.00  0.00    -0.305 NA
ATOM     24  H   UNL     1     -37.379  19.342   2.119  0.00  0.00    +0.120 HD
ATOM     25  H   UNL     1     -36.540  19.545   3.590  0.00  0.00    +0.120 HD
ENDBRANCH   3  23
TORSDOF 7
ENDMDL
MODEL 5
REMARK VINA RESULT:      -5.3      3.726      6.143
REMARK  Name = 53298813
REMARK  7 active torsions:
REMARK  status: ('A' for Active; 'I' for Inactive)
REMARK    1  A    between atoms: N_1  and  C1*_8
REMARK    2  A    between atoms: C_3  and  N_23
REMARK    3  A    between atoms: C_5  and  C_20
REMARK    4  A    between atoms: C2*_7  and  O2*_11
REMARK    5  A    between atoms: C3*_9  and  O3*_13
REMARK    6  A    between atoms: C4*_10  and  C5*_15
REMARK    7  A    between atoms: C5*_15  and  O5*_16
REMARK                            x       y       z     vdW  Elec       q    Type
REMARK                         _______ _______ _______ _____ _____    ______ ____
ROOT
ATOM      1  N   UNL     1     -36.476  23.144   4.114  0.00  0.00    -0.211 NA
ATOM      2  N   UNL     1     -35.233  21.328   4.414  0.00  0.00    -0.249 NA
ATOM      3  C   UNL     1     -36.569  22.430   2.953  0.00  0.00    +0.161 C 
ATOM      4  C   UNL     1     -35.664  22.443   4.962  0.00  0.00    +0.204 C 
ATOM      5  C   UNL     1     -35.793  21.315   3.161  0.00  0.00    +0.138 C 
ENDROOT
BRANCH   1   8
ATOM      6  O4* UNL     1     -38.362  24.623   3.684  0.00  0.00    -0.336 OA
ATOM      7  C2* UNL     1     -36.250  25.672   4.109  0.00  0.00    +0.183 C 
ATOM      8  C1* UNL     1     -37.140  24.465   4.432  0.00  0.00    +0.209 C 
ATOM      9  C3* UNL     1     -36.889  26.280   2.875  0.00  0.00    +0.171 C 
ATOM     10  C4* UNL     1     -38.356  25.915   3.054  0.00  0.00    +0.175 C 
BRANCH   7  11
ATOM     11  O2* UNL     1     -36.296  26.602   5.190  0.00  0.00    -0.378 OA
ATOM     12  H2* UNL     1     -35.692  27.338   5.009  0.00  0.00    +0.211 HD
ENDBRANCH   7  11
BRANCH   9  13
ATOM     13  O3* UNL     1     -36.358  25.660   1.710  0.00  0.00    -0.379 OA
ATOM     14  H3* UNL     1     -35.519  25.224   1.930  0.00  0.00    +0.211 HD
ENDBRANCH   9  13
BRANCH  10  15
ATOM     15  C5* UNL     1     -39.174  25.853   1.776  0.00  0.00    +0.169 C 
BRANCH  15  16
ATOM     16  O5* UNL     1     -39.012  27.072   1.069  0.00  0.00    -0.379 OA
ATOM     17  H5* UNL     1     -39.489  27.022   0.225  0.00  0.00    +0.211 HD
ENDBRANCH  15  16
ENDBRANCH  10  15
ENDBRANCH   1   8
BRANCH   5  20
ATOM     18  O   UNL     1     -34.409  19.879   1.908  0.00  0.00    -0.269 OA
ATOM     19  N   UNL     1     -36.672  19.586   1.686  0.00  0.00    -0.324 N 
ATOM     20  C   UNL     1     -35.564  20.248   2.233  0.00  0.00    +0.259 C 
ATOM     21  H   UNL     1     -36.539  18.849   1.046  0.00  0.00    +0.145 HD
ATOM     22  H   UNL     1     -37.583  19.857   1.943  0.00  0.00    +0.145 HD
ENDBRANCH   5  20
BRANCH   3  23
ATOM     23  N   UNL     1     -37.305  22.858   1.907  0.00  0.00    -0.305 NA
ATOM     24  H   UNL     1     -38.288  22.791   1.935  0.00  0.00    +0.120 HD
ATOM     25  H   UNL     1     -36.861  23.239   1.115  0.00  0.00    +0.120 HD
ENDBRANCH   3  23
TORSDOF 7
ENDMDL
MODEL 6
REMARK VINA RESULT:      -5.2      3.683      6.144
REMARK  Name = 53298813
REMARK  7 active torsions:
REMARK  status: ('A' for Active; 'I' for Inactive)
REMARK    1  A    between atoms: N_1  and  C1*_8
REMARK    2  A    between atoms: C_3  and  N_23
REMARK    3  A    between atoms: C_5  and  C_20
REMARK    4  A    between atoms: C2*_7  and  O2*_11
REMARK    5  A    between atoms: C3*_9  and  O3*_13
REMARK    6  A    between atoms: C4*_10  and  C5*_15
REMARK    7  A    between atoms: C5*_15  and  O5*_16
REMARK                            x       y       z     vdW  Elec       q    Type
REMARK                         _______ _______ _______ _____ _____    ______ ____
ROOT
ATOM      1  N   UNL     1     -38.336  23.752   2.991  0.00  0.00    -0.211 NA
ATOM      2  N   UNL     1     -40.324  23.511   2.029  0.00  0.00    -0.249 NA
ATOM      3  C   UNL     1     -38.935  24.978   3.055  0.00  0.00    +0.161 C 
ATOM      4  C   UNL     1     -39.208  22.903   2.367  0.00  0.00    +0.204 C 
ATOM      5  C   UNL     1     -40.159  24.805   2.454  0.00  0.00    +0.138 C 
ENDROOT
BRANCH   1   8
ATOM      6  O4* UNL     1     -36.632  24.133   4.688  0.00  0.00    -0.336 OA
ATOM      7  C2* UNL     1     -35.853  23.617   2.481  0.00  0.00    +0.183 C 
ATOM      8  C1* UNL     1     -36.967  23.374   3.509  0.00  0.00    +0.209 C 
ATOM      9  C3* UNL     1     -35.114  24.827   3.021  0.00  0.00    +0.171 C 
ATOM     10  C4* UNL     1     -35.319  24.692   4.523  0.00  0.00    +0.175 C 
BRANCH   7  11
ATOM     11  O2* UNL     1     -34.982  22.488   2.446  0.00  0.00    -0.378 OA
ATOM     12  H2* UNL     1     -34.457  22.511   1.631  0.00  0.00    +0.211 HD
ENDBRANCH   7  11
BRANCH   9  13
ATOM     13  O3* UNL     1     -35.729  26.014   2.537  0.00  0.00    -0.379 OA
ATOM     14  H3* UNL     1     -35.554  26.744   3.153  0.00  0.00    +0.211 HD
ENDBRANCH   9  13
BRANCH  10  15
ATOM     15  C5* UNL     1     -35.221  25.984   5.313  0.00  0.00    +0.169 C 
BRANCH  15  16
ATOM     16  O5* UNL     1     -36.530  26.439   5.614  0.00  0.00    -0.379 OA
ATOM     17  H5* UNL     1     -36.498  27.036   6.378  0.00  0.00    +0.211 HD
ENDBRANCH  15  16
ENDBRANCH  10  15
ENDBRANCH   1   8
BRANCH   5  20
ATOM     18  O   UNL     1     -41.064  26.960   2.748  0.00  0.00    -0.269 OA
ATOM     19  N   UNL     1     -42.304  25.477   1.514  0.00  0.00    -0.324 N 
ATOM     20  C   UNL     1     -41.169  25.803   2.270  0.00  0.00    +0.259 C 
ATOM     21  H   UNL     1     -43.012  26.148   1.374  0.00  0.00    +0.145 HD
ATOM     22  H   UNL     1     -42.394  24.578   1.123  0.00  0.00    +0.145 HD
ENDBRANCH   5  20
BRANCH   3  23
ATOM     23  N   UNL     1     -38.327  26.043   3.618  0.00  0.00    -0.305 NA
ATOM     24  H   UNL     1     -37.616  25.908   4.286  0.00  0.00    +0.120 HD
ATOM     25  H   UNL     1     -38.594  26.955   3.363  0.00  0.00    +0.120 HD
ENDBRANCH   3  23
TORSDOF 7
ENDMDL
MODEL 7
REMARK VINA RESULT:      -5.2      2.148      2.770
REMARK  Name = 53298813
REMARK  7 active torsions:
REMARK  status: ('A' for Active; 'I' for Inactive)
REMARK    1  A    between atoms: N_1  and  C1*_8
REMARK    2  A    between atoms: C_3  and  N_23
REMARK    3  A    between atoms: C_5  and  C_20
REMARK    4  A    between atoms: C2*_7  and  O2*_11
REMARK    5  A    between atoms: C3*_9  and  O3*_13
REMARK    6  A    between atoms: C4*_10  and  C5*_15
REMARK    7  A    between atoms: C5*_15  and  O5*_16
REMARK                            x       y       z     vdW  Elec       q    Type
REMARK                         _______ _______ _______ _____ _____    ______ ____
ROOT
ATOM      1  N   UNL     1     -35.622  24.657   4.307  0.00  0.00    -0.211 NA
ATOM      2  N   UNL     1     -33.468  25.127   4.034  0.00  0.00    -0.249 NA
ATOM      3  C   UNL     1     -35.404  25.826   4.981  0.00  0.00    +0.161 C 
ATOM      4  C   UNL     1     -34.431  24.276   3.754  0.00  0.00    +0.204 C 
ATOM      5  C   UNL     1     -34.069  26.095   4.799  0.00  0.00    +0.138 C 
ENDROOT
BRANCH   1   8
ATOM      6  O4* UNL     1     -36.696  22.528   3.817  0.00  0.00    -0.336 OA
ATOM      7  C2* UNL     1     -37.857  24.502   3.114  0.00  0.00    +0.183 C 
ATOM      8  C1* UNL     1     -36.927  23.904   4.178  0.00  0.00    +0.209 C 
ATOM      9  C3* UNL     1     -37.806  23.501   1.976  0.00  0.00    +0.171 C 
ATOM     10  C4* UNL     1     -37.543  22.191   2.706  0.00  0.00    +0.175 C 
BRANCH   7  11
ATOM     11  O2* UNL     1     -39.184  24.585   3.632  0.00  0.00    -0.378 OA
ATOM     12  H2* UNL     1     -39.596  23.707   3.605  0.00  0.00    +0.211 HD
ENDBRANCH   7  11
BRANCH   9  13
ATOM     13  O3* UNL     1     -36.721  23.818   1.112  0.00  0.00    -0.379 OA
ATOM     14  H3* UNL     1     -36.830  23.347   0.270  0.00  0.00    +0.211 HD
ENDBRANCH   9  13
BRANCH  10  15
ATOM     15  C5* UNL     1     -36.877  21.106   1.879  0.00  0.00    +0.169 C 
BRANCH  15  16
ATOM     16  O5* UNL     1     -36.836  19.909   2.639  0.00  0.00    -0.379 OA
ATOM     17  H5* UNL     1     -37.597  19.882   3.241  0.00  0.00    +0.211 HD
ENDBRANCH  15  16
ENDBRANCH  10  15
ENDBRANCH   1   8
BRANCH   5  20
ATOM     18  O   UNL     1     -33.100  28.234   4.615  0.00  0.00    -0.269 OA
ATOM     19  N   UNL     1     -32.916  27.187   6.647  0.00  0.00    -0.324 N 
ATOM     20  C   UNL     1     -33.346  27.219   5.313  0.00  0.00    +0.259 C 
ATOM     21  H   UNL     1     -32.417  27.949   7.022  0.00  0.00    +0.145 HD
ATOM     22  H   UNL     1     -33.113  26.403   7.209  0.00  0.00    +0.145 HD
ENDBRANCH   5  20
BRANCH   3  23
ATOM     23  N   UNL     1     -36.391  26.465   5.643  0.00  0.00    -0.305 NA
ATOM     24  H   UNL     1     -36.962  25.969   6.275  0.00  0.00    +0.120 HD
ATOM     25  H   UNL     1     -36.541  27.426   5.495  0.00  0.00    +0.120 HD
ENDBRANCH   3  23
TORSDOF 7
ENDMDL
MODEL 8
REMARK VINA RESULT:      -5.2      2.056      6.245
REMARK  Name = 53298813
REMARK  7 active torsions:
REMARK  status: ('A' for Active; 'I' for Inactive)
REMARK    1  A    between atoms: N_1  and  C1*_8
REMARK    2  A    between atoms: C_3  and  N_23
REMARK    3  A    between atoms: C_5  and  C_20
REMARK    4  A    between atoms: C2*_7  and  O2*_11
REMARK    5  A    between atoms: C3*_9  and  O3*_13
REMARK    6  A    between atoms: C4*_10  and  C5*_15
REMARK    7  A    between atoms: C5*_15  and  O5*_16
REMARK                            x       y       z     vdW  Elec       q    Type
REMARK                         _______ _______ _______ _____ _____    ______ ____
ROOT
ATOM      1  N   UNL     1     -33.160  27.422   4.899  0.00  0.00    -0.211 NA
ATOM      2  N   UNL     1     -34.276  26.018   6.209  0.00  0.00    -0.249 NA
ATOM      3  C   UNL     1     -34.269  27.050   4.191  0.00  0.00    +0.161 C 
ATOM      4  C   UNL     1     -33.208  26.778   6.104  0.00  0.00    +0.204 C 
ATOM      5  C   UNL     1     -34.941  26.183   5.020  0.00  0.00    +0.138 C 
ENDROOT
BRANCH   1   8
ATOM      6  O4* UNL     1     -30.768  27.872   4.831  0.00  0.00    -0.336 OA
ATOM      7  C2* UNL     1     -32.211  29.770   5.069  0.00  0.00    +0.183 C 
ATOM      8  C1* UNL     1     -32.068  28.371   4.457  0.00  0.00    +0.209 C 
ATOM      9  C3* UNL     1     -31.093  29.839   6.092  0.00  0.00    +0.171 C 
ATOM     10  C4* UNL     1     -30.040  28.923   5.487  0.00  0.00    +0.175 C 
BRANCH   7  11
ATOM     11  O2* UNL     1     -32.009  30.756   4.058  0.00  0.00    -0.378 OA
ATOM     12  H2* UNL     1     -32.793  31.323   3.998  0.00  0.00    +0.211 HD
ENDBRANCH   7  11
BRANCH   9  13
ATOM     13  O3* UNL     1     -31.553  29.321   7.334  0.00  0.00    -0.379 OA
ATOM     14  H3* UNL     1     -30.828  28.852   7.778  0.00  0.00    +0.211 HD
ENDBRANCH   9  13
BRANCH  10  15
ATOM     15  C5* UNL     1     -29.061  28.313   6.475  0.00  0.00    +0.169 C 
BRANCH  15  16
ATOM     16  O5* UNL     1     -29.610  27.108   6.982  0.00  0.00    -0.379 OA
ATOM     17  H5* UNL     1     -29.381  27.018   7.920  0.00  0.00    +0.211 HD
ENDBRANCH  15  16
ENDBRANCH  10  15
ENDBRANCH   1   8
BRANCH   5  20
ATOM     18  O   UNL     1     -36.376  24.316   5.053  0.00  0.00    -0.269 OA
ATOM     19  N   UNL     1     -37.195  26.231   4.094  0.00  0.00    -0.324 N 
ATOM     20  C   UNL     1     -36.174  25.513   4.735  0.00  0.00    +0.259 C 
ATOM     21  H   UNL     1     -38.052  25.791   3.888  0.00  0.00    +0.145 HD
ATOM     22  H   UNL     1     -37.055  27.174   3.851  0.00  0.00    +0.145 HD
ENDBRANCH   5  20
BRANCH   3  23
ATOM     23  N   UNL     1     -34.516  27.518   2.950  0.00  0.00    -0.305 NA
ATOM     24  H   UNL     1     -34.186  28.407   2.684  0.00  0.00    +0.120 HD
ATOM     25  H   UNL     1     -35.026  26.971   2.310  0.00  0.00    +0.120 HD
ENDBRANCH   3  23
TORSDOF 7
ENDMDL
MODEL 9
REMARK VINA RESULT:      -5.1      1.861      3.479
REMARK  Name = 53298813
REMARK  7 active torsions:
REMARK  status: ('A' for Active; 'I' for Inactive)
REMARK    1  A    between atoms: N_1  and  C1*_8
REMARK    2  A    between atoms: C_3  and  N_23
REMARK    3  A    between atoms: C_5  and  C_20
REMARK    4  A    between atoms: C2*_7  and  O2*_11
REMARK    5  A    between atoms: C3*_9  and  O3*_13
REMARK    6  A    between atoms: C4*_10  and  C5*_15
REMARK    7  A    between atoms: C5*_15  and  O5*_16
REMARK                            x       y       z     vdW  Elec       q    Type
REMARK                         _______ _______ _______ _____ _____    ______ ____
ROOT
ATOM      1  N   UNL     1     -33.212  26.704   5.081  0.00  0.00    -0.211 NA
ATOM      2  N   UNL     1     -32.326  28.025   6.632  0.00  0.00    -0.249 NA
ATOM      3  C   UNL     1     -32.609  27.725   4.404  0.00  0.00    +0.161 C 
ATOM      4  C   UNL     1     -33.016  26.926   6.416  0.00  0.00    +0.204 C 
ATOM      5  C   UNL     1     -32.069  28.527   5.381  0.00  0.00    +0.138 C 
ENDROOT
BRANCH   1   8
ATOM      6  O4* UNL     1     -34.721  25.933   3.332  0.00  0.00    -0.336 OA
ATOM      7  C2* UNL     1     -34.949  24.896   5.480  0.00  0.00    +0.183 C 
ATOM      8  C1* UNL     1     -33.963  25.531   4.491  0.00  0.00    +0.209 C 
ATOM      9  C3* UNL     1     -36.311  25.317   4.963  0.00  0.00    +0.171 C 
ATOM     10  C4* UNL     1     -36.066  25.446   3.466  0.00  0.00    +0.175 C 
BRANCH   7  11
ATOM     11  O2* UNL     1     -34.825  23.475   5.430  0.00  0.00    -0.378 OA
ATOM     12  H2* UNL     1     -35.218  23.146   4.607  0.00  0.00    +0.211 HD
ENDBRANCH   7  11
BRANCH   9  13
ATOM     13  O3* UNL     1     -36.664  26.576   5.522  0.00  0.00    -0.379 OA
ATOM     14  H3* UNL     1     -37.620  26.599   5.690  0.00  0.00    +0.211 HD
ENDBRANCH   9  13
BRANCH  10  15
ATOM     15  C5* UNL     1     -37.012  26.376   2.728  0.00  0.00    +0.169 C 
BRANCH  15  16
ATOM     16  O5* UNL     1     -38.278  26.346   3.368  0.00  0.00    -0.379 OA
ATOM     17  H5* UNL     1     -38.698  27.217   3.294  0.00  0.00    +0.211 HD
ENDBRANCH  15  16
ENDBRANCH  10  15
ENDBRANCH   1   8
BRANCH   5  20
ATOM     18  O   UNL     1     -31.544  30.774   5.856  0.00  0.00    -0.269 OA
ATOM     19  N   UNL     1     -30.318  29.751   4.210  0.00  0.00    -0.324 N 
ATOM     20  C   UNL     1     -31.329  29.737   5.182  0.00  0.00    +0.259 C 
ATOM     21  H   UNL     1     -29.795  30.572   4.055  0.00  0.00    +0.145 HD
ATOM     22  H   UNL     1     -30.130  28.941   3.683  0.00  0.00    +0.145 HD
ENDBRANCH   5  20
BRANCH   3  23
ATOM     23  N   UNL     1     -32.623  27.798   3.057  0.00  0.00    -0.305 NA
ATOM     24  H   UNL     1     -32.981  28.600   2.610  0.00  0.00    +0.120 HD
ATOM     25  H   UNL     1     -32.277  27.050   2.519  0.00  0.00    +0.120 HD
ENDBRANCH   3  23
TORSDOF 7
ENDMDL
