MODEL 1
REMARK VINA RESULT:      -6.2      0.000      0.000
REMARK  Name = 5330
REMARK  4 active torsions:
REMARK  status: ('A' for Active; 'I' for Inactive)
REMARK    1  A    between atoms: S_1  and  N_4
REMARK    2  A    between atoms: S_1  and  C_14
REMARK    3  A    between atoms: C_10  and  O_12
REMARK    4  A    between atoms: C_17  and  N_20
REMARK                            x       y       z     vdW  Elec       q    Type
REMARK                         _______ _______ _______ _____ _____    ______ ____
ROOT
ATOM      1  S   UNL     1     -36.148  20.850   1.211  0.00  0.00    +0.075 S 
ATOM      2  O   UNL     1     -37.396  20.531   0.527  0.00  0.00    -0.150 OA
ATOM      3  O   UNL     1     -35.470  22.099   0.888  0.00  0.00    -0.150 OA
ENDROOT
BRANCH   1   4
ATOM      4  N   UNL     1     -36.432  20.769   2.908  0.00  0.00    -0.197 N 
ATOM      5  N   UNL     1     -37.088  22.971   3.459  0.00  0.00    -0.129 NA
ATOM      6  N   UNL     1     -36.944  24.124   4.165  0.00  0.00    -0.109 NA
ATOM      7  C   UNL     1     -36.229  21.962   3.686  0.00  0.00    +0.169 C 
ATOM      8  C   UNL     1     -35.203  22.022   4.598  0.00  0.00    +0.042 C 
ATOM      9  C   UNL     1     -35.056  23.195   5.317  0.00  0.00    +0.062 C 
ATOM     10  C   UNL     1     -35.947  24.220   5.070  0.00  0.00    +0.244 C 
ATOM     11  H   UNL     1     -36.725  19.931   3.333  0.00  0.00    +0.175 HD
BRANCH  10  12
ATOM     12  O   UNL     1     -35.836  25.396   5.760  0.00  0.00    -0.455 OA
ATOM     13  C   UNL     1     -34.542  25.989   5.813  0.00  0.00    +0.254 C 
ENDBRANCH  10  12
ENDBRANCH   1   4
BRANCH   1  14
ATOM     14  C   UNL     1     -35.041  19.527   0.940  0.00  0.00    +0.125 C 
ATOM     15  C   UNL     1     -35.359  18.528   0.021  0.00  0.00    +0.021 C 
ATOM     16  C   UNL     1     -33.839  19.469   1.645  0.00  0.00    +0.021 C 
ATOM     17  C   UNL     1     -33.273  17.412   0.510  0.00  0.00    +0.042 C 
ATOM     18  C   UNL     1     -34.475  17.470  -0.195  0.00  0.00    +0.015 C 
ATOM     19  C   UNL     1     -32.955  18.412   1.430  0.00  0.00    +0.015 C 
BRANCH  17  20
ATOM     20  N   UNL     1     -32.378  16.344   0.292  0.00  0.00    -0.357 N 
ATOM     21  H   UNL     1     -31.461  16.525  -0.015  0.00  0.00    +0.142 HD
ATOM     22  H   UNL     1     -32.671  15.417   0.448  0.00  0.00    +0.142 HD
ENDBRANCH  17  20
ENDBRANCH   1  14
TORSDOF 4
ENDMDL
MODEL 2
REMARK VINA RESULT:      -6.2      0.081      1.111
REMARK  Name = 5330
REMARK  4 active torsions:
REMARK  status: ('A' for Active; 'I' for Inactive)
REMARK    1  A    between atoms: S_1  and  N_4
REMARK    2  A    between atoms: S_1  and  C_14
REMARK    3  A    between atoms: C_10  and  O_12
REMARK    4  A    between atoms: C_17  and  N_20
REMARK                            x       y       z     vdW  Elec       q    Type
REMARK                         _______ _______ _______ _____ _____    ______ ____
ROOT
ATOM      1  S   UNL     1     -36.242  20.788   1.222  0.00  0.00    +0.075 S 
ATOM      2  O   UNL     1     -37.490  20.405   0.573  0.00  0.00    -0.150 OA
ATOM      3  O   UNL     1     -35.623  22.057   0.859  0.00  0.00    -0.150 OA
ENDROOT
BRANCH   1   4
ATOM      4  N   UNL     1     -36.486  20.732   2.927  0.00  0.00    -0.197 N 
ATOM      5  N   UNL     1     -37.142  22.938   3.459  0.00  0.00    -0.129 NA
ATOM      6  N   UNL     1     -36.989  24.103   4.144  0.00  0.00    -0.109 NA
ATOM      7  C   UNL     1     -36.272  21.938   3.681  0.00  0.00    +0.169 C 
ATOM      8  C   UNL     1     -35.225  22.018   4.568  0.00  0.00    +0.042 C 
ATOM      9  C   UNL     1     -35.069  23.202   5.266  0.00  0.00    +0.062 C 
ATOM     10  C   UNL     1     -35.972  24.218   5.024  0.00  0.00    +0.244 C 
ATOM     11  H   UNL     1     -36.764  19.899   3.371  0.00  0.00    +0.175 HD
BRANCH  10  12
ATOM     12  O   UNL     1     -35.851  25.405   5.694  0.00  0.00    -0.455 OA
ATOM     13  C   UNL     1     -34.550  25.982   5.749  0.00  0.00    +0.254 C 
ENDBRANCH  10  12
ENDBRANCH   1   4
BRANCH   1  14
ATOM     14  C   UNL     1     -35.087  19.506   0.955  0.00  0.00    +0.125 C 
ATOM     15  C   UNL     1     -33.901  19.471   1.688  0.00  0.00    +0.021 C 
ATOM     16  C   UNL     1     -35.350  18.518   0.006  0.00  0.00    +0.021 C 
ATOM     17  C   UNL     1     -33.241  17.458   0.525  0.00  0.00    +0.042 C 
ATOM     18  C   UNL     1     -32.979  18.446   1.473  0.00  0.00    +0.015 C 
ATOM     19  C   UNL     1     -34.428  17.494  -0.208  0.00  0.00    +0.015 C 
BRANCH  17  20
ATOM     20  N   UNL     1     -32.310  16.422   0.308  0.00  0.00    -0.357 N 
ATOM     21  H   UNL     1     -32.436  15.795  -0.440  0.00  0.00    +0.142 HD
ATOM     22  H   UNL     1     -31.532  16.327   0.905  0.00  0.00    +0.142 HD
ENDBRANCH  17  20
ENDBRANCH   1  14
TORSDOF 4
ENDMDL
MODEL 3
REMARK VINA RESULT:      -6.0      3.470      4.925
REMARK  Name = 5330
REMARK  4 active torsions:
REMARK  status: ('A' for Active; 'I' for Inactive)
REMARK    1  A    between atoms: S_1  and  N_4
REMARK    2  A    between atoms: S_1  and  C_14
REMARK    3  A    between atoms: C_10  and  O_12
REMARK    4  A    between atoms: C_17  and  N_20
REMARK                            x       y       z     vdW  Elec       q    Type
REMARK                         _______ _______ _______ _____ _____    ______ ____
ROOT
ATOM      1  S   UNL     1     -35.964  23.793   4.555  0.00  0.00    +0.075 S 
ATOM      2  O   UNL     1     -35.978  23.186   5.881  0.00  0.00    -0.150 OA
ATOM      3  O   UNL     1     -36.768  24.986   4.321  0.00  0.00    -0.150 OA
ENDROOT
BRANCH   1   4
ATOM      4  N   UNL     1     -34.325  24.109   4.128  0.00  0.00    -0.197 N 
ATOM      5  N   UNL     1     -33.668  25.774   5.670  0.00  0.00    -0.129 NA
ATOM      6  N   UNL     1     -33.178  27.007   5.967  0.00  0.00    -0.109 NA
ATOM      7  C   UNL     1     -33.802  25.425   4.379  0.00  0.00    +0.169 C 
ATOM      8  C   UNL     1     -33.470  26.245   3.327  0.00  0.00    +0.042 C 
ATOM      9  C   UNL     1     -32.971  27.500   3.629  0.00  0.00    +0.062 C 
ATOM     10  C   UNL     1     -32.842  27.840   4.960  0.00  0.00    +0.244 C 
ATOM     11  H   UNL     1     -33.763  23.408   3.725  0.00  0.00    +0.175 HD
BRANCH  10  12
ATOM     12  O   UNL     1     -32.353  29.072   5.300  0.00  0.00    -0.455 OA
ATOM     13  C   UNL     1     -31.703  29.179   6.563  0.00  0.00    +0.254 C 
ENDBRANCH  10  12
ENDBRANCH   1   4
BRANCH   1  14
ATOM     14  C   UNL     1     -36.434  22.567   3.404  0.00  0.00    +0.125 C 
ATOM     15  C   UNL     1     -35.593  21.482   3.157  0.00  0.00    +0.021 C 
ATOM     16  C   UNL     1     -37.650  22.675   2.730  0.00  0.00    +0.021 C 
ATOM     17  C   UNL     1     -37.186  20.610   1.563  0.00  0.00    +0.042 C 
ATOM     18  C   UNL     1     -35.969  20.503   2.237  0.00  0.00    +0.015 C 
ATOM     19  C   UNL     1     -38.026  21.696   1.810  0.00  0.00    +0.015 C 
BRANCH  17  20
ATOM     20  N   UNL     1     -37.566  19.621   0.633  0.00  0.00    -0.357 N 
ATOM     21  H   UNL     1     -38.034  18.810   0.940  0.00  0.00    +0.142 HD
ATOM     22  H   UNL     1     -37.365  19.740  -0.323  0.00  0.00    +0.142 HD
ENDBRANCH  17  20
ENDBRANCH   1  14
TORSDOF 4
ENDMDL
MODEL 4
REMARK VINA RESULT:      -5.7      2.081      2.651
REMARK  Name = 5330
REMARK  4 active torsions:
REMARK  status: ('A' for Active; 'I' for Inactive)
REMARK    1  A    between atoms: S_1  and  N_4
REMARK    2  A    between atoms: S_1  and  C_14
REMARK    3  A    between atoms: C_10  and  O_12
REMARK    4  A    between atoms: C_17  and  N_20
REMARK                            x       y       z     vdW  Elec       q    Type
REMARK                         _______ _______ _______ _____ _____    ______ ____
ROOT
ATOM      1  S   UNL     1     -37.335  22.563   2.389  0.00  0.00    +0.075 S 
ATOM      2  O   UNL     1     -38.455  21.637   2.272  0.00  0.00    -0.150 OA
ATOM      3  O   UNL     1     -37.437  23.871   1.753  0.00  0.00    -0.150 OA
ENDROOT
BRANCH   1   4
ATOM      4  N   UNL     1     -36.976  22.761   4.062  0.00  0.00    -0.197 N 
ATOM      5  N   UNL     1     -36.645  25.090   4.280  0.00  0.00    -0.129 NA
ATOM      6  N   UNL     1     -35.891  26.167   4.627  0.00  0.00    -0.109 NA
ATOM      7  C   UNL     1     -36.131  23.859   4.448  0.00  0.00    +0.169 C 
ATOM      8  C   UNL     1     -34.877  23.617   4.956  0.00  0.00    +0.042 C 
ATOM      9  C   UNL     1     -34.110  24.713   5.310  0.00  0.00    +0.062 C 
ATOM     10  C   UNL     1     -34.653  25.968   5.130  0.00  0.00    +0.244 C 
ATOM     11  H   UNL     1     -37.340  22.141   4.735  0.00  0.00    +0.175 HD
BRANCH  10  12
ATOM     12  O   UNL     1     -33.926  27.076   5.467  0.00  0.00    -0.455 OA
ATOM     13  C   UNL     1     -32.890  27.462   4.569  0.00  0.00    +0.254 C 
ENDBRANCH  10  12
ENDBRANCH   1   4
BRANCH   1  14
ATOM     14  C   UNL     1     -35.911  21.756   1.781  0.00  0.00    +0.125 C 
ATOM     15  C   UNL     1     -35.579  20.483   2.246  0.00  0.00    +0.021 C 
ATOM     16  C   UNL     1     -35.105  22.384   0.832  0.00  0.00    +0.021 C 
ATOM     17  C   UNL     1     -33.634  20.467   0.811  0.00  0.00    +0.042 C 
ATOM     18  C   UNL     1     -34.441  19.838   1.760  0.00  0.00    +0.015 C 
ATOM     19  C   UNL     1     -33.967  21.739   0.347  0.00  0.00    +0.015 C 
BRANCH  17  20
ATOM     20  N   UNL     1     -32.484  19.815   0.320  0.00  0.00    -0.357 N 
ATOM     21  H   UNL     1     -32.566  18.942  -0.128  0.00  0.00    +0.142 HD
ATOM     22  H   UNL     1     -31.599  20.233   0.424  0.00  0.00    +0.142 HD
ENDBRANCH  17  20
ENDBRANCH   1  14
TORSDOF 4
ENDMDL
MODEL 5
REMARK VINA RESULT:      -5.7      3.779      4.935
REMARK  Name = 5330
REMARK  4 active torsions:
REMARK  status: ('A' for Active; 'I' for Inactive)
REMARK    1  A    between atoms: S_1  and  N_4
REMARK    2  A    between atoms: S_1  and  C_14
REMARK    3  A    between atoms: C_10  and  O_12
REMARK    4  A    between atoms: C_17  and  N_20
REMARK                            x       y       z     vdW  Elec       q    Type
REMARK                         _______ _______ _______ _____ _____    ______ ____
ROOT
ATOM      1  S   UNL     1     -36.773  25.821   1.883  0.00  0.00    +0.075 S 
ATOM      2  O   UNL     1     -37.994  26.228   1.197  0.00  0.00    -0.150 OA
ATOM      3  O   UNL     1     -35.488  26.235   1.334  0.00  0.00    -0.150 OA
ENDROOT
BRANCH   1   4
ATOM      4  N   UNL     1     -36.889  26.325   3.526  0.00  0.00    -0.197 N 
ATOM      5  N   UNL     1     -34.865  27.490   3.885  0.00  0.00    -0.129 NA
ATOM      6  N   UNL     1     -33.698  27.689   4.555  0.00  0.00    -0.109 NA
ATOM      7  C   UNL     1     -35.670  26.486   4.272  0.00  0.00    +0.169 C 
ATOM      8  C   UNL     1     -35.385  25.637   5.315  0.00  0.00    +0.042 C 
ATOM      9  C   UNL     1     -34.198  25.839   5.997  0.00  0.00    +0.062 C 
ATOM     10  C   UNL     1     -33.385  26.875   5.584  0.00  0.00    +0.244 C 
ATOM     11  H   UNL     1     -37.764  26.500   3.942  0.00  0.00    +0.175 HD
BRANCH  10  12
ATOM     12  O   UNL     1     -32.202  27.107   6.232  0.00  0.00    -0.455 OA
ATOM     13  C   UNL     1     -31.825  28.469   6.411  0.00  0.00    +0.254 C 
ENDBRANCH  10  12
ENDBRANCH   1   4
BRANCH   1  14
ATOM     14  C   UNL     1     -36.791  24.079   2.012  0.00  0.00    +0.125 C 
ATOM     15  C   UNL     1     -35.590  23.374   2.105  0.00  0.00    +0.021 C 
ATOM     16  C   UNL     1     -38.005  23.393   2.019  0.00  0.00    +0.021 C 
ATOM     17  C   UNL     1     -36.819  21.296   2.214  0.00  0.00    +0.042 C 
ATOM     18  C   UNL     1     -35.605  21.983   2.207  0.00  0.00    +0.015 C 
ATOM     19  C   UNL     1     -38.019  22.002   2.121  0.00  0.00    +0.015 C 
BRANCH  17  20
ATOM     20  N   UNL     1     -36.834  19.890   2.318  0.00  0.00    -0.357 N 
ATOM     21  H   UNL     1     -37.559  19.440   2.809  0.00  0.00    +0.142 HD
ATOM     22  H   UNL     1     -36.120  19.358   1.899  0.00  0.00    +0.142 HD
ENDBRANCH  17  20
ENDBRANCH   1  14
TORSDOF 4
ENDMDL
MODEL 6
REMARK VINA RESULT:      -5.7      1.502      2.117
REMARK  Name = 5330
REMARK  4 active torsions:
REMARK  status: ('A' for Active; 'I' for Inactive)
REMARK    1  A    between atoms: S_1  and  N_4
REMARK    2  A    between atoms: S_1  and  C_14
REMARK    3  A    between atoms: C_10  and  O_12
REMARK    4  A    between atoms: C_17  and  N_20
REMARK                            x       y       z     vdW  Elec       q    Type
REMARK                         _______ _______ _______ _____ _____    ______ ____
ROOT
ATOM      1  S   UNL     1     -37.260  22.079   2.131  0.00  0.00    +0.075 S 
ATOM      2  O   UNL     1     -38.645  21.629   2.051  0.00  0.00    -0.150 OA
ATOM      3  O   UNL     1     -36.888  23.324   1.472  0.00  0.00    -0.150 OA
ENDROOT
BRANCH   1   4
ATOM      4  N   UNL     1     -36.817  22.150   3.794  0.00  0.00    -0.197 N 
ATOM      5  N   UNL     1     -36.925  24.457   4.291  0.00  0.00    -0.129 NA
ATOM      6  N   UNL     1     -36.368  25.616   4.733  0.00  0.00    -0.109 NA
ATOM      7  C   UNL     1     -36.172  23.344   4.272  0.00  0.00    +0.169 C 
ATOM      8  C   UNL     1     -34.859  23.302   4.676  0.00  0.00    +0.042 C 
ATOM      9  C   UNL     1     -34.292  24.481   5.126  0.00  0.00    +0.062 C 
ATOM     10  C   UNL     1     -35.080  25.614   5.138  0.00  0.00    +0.244 C 
ATOM     11  H   UNL     1     -37.000  21.396   4.400  0.00  0.00    +0.175 HD
BRANCH  10  12
ATOM     12  O   UNL     1     -34.556  26.799   5.575  0.00  0.00    -0.455 OA
ATOM     13  C   UNL     1     -33.216  27.090   5.190  0.00  0.00    +0.254 C 
ENDBRANCH  10  12
ENDBRANCH   1   4
BRANCH   1  14
ATOM     14  C   UNL     1     -36.248  20.796   1.516  0.00  0.00    +0.125 C 
ATOM     15  C   UNL     1     -34.935  20.666   1.967  0.00  0.00    +0.021 C 
ATOM     16  C   UNL     1     -36.752  19.902   0.572  0.00  0.00    +0.021 C 
ATOM     17  C   UNL     1     -34.630  18.747   0.530  0.00  0.00    +0.042 C 
ATOM     18  C   UNL     1     -34.126  19.641   1.475  0.00  0.00    +0.015 C 
ATOM     19  C   UNL     1     -35.944  18.877   0.079  0.00  0.00    +0.015 C 
BRANCH  17  20
ATOM     20  N   UNL     1     -33.813  17.711   0.033  0.00  0.00    -0.357 N 
ATOM     21  H   UNL     1     -33.779  16.844   0.499  0.00  0.00    +0.142 HD
ATOM     22  H   UNL     1     -33.277  17.854  -0.780  0.00  0.00    +0.142 HD
ENDBRANCH  17  20
ENDBRANCH   1  14
TORSDOF 4
ENDMDL
MODEL 7
REMARK VINA RESULT:      -5.7      4.168      6.501
REMARK  Name = 5330
REMARK  4 active torsions:
REMARK  status: ('A' for Active; 'I' for Inactive)
REMARK    1  A    between atoms: S_1  and  N_4
REMARK    2  A    between atoms: S_1  and  C_14
REMARK    3  A    between atoms: C_10  and  O_12
REMARK    4  A    between atoms: C_17  and  N_20
REMARK                            x       y       z     vdW  Elec       q    Type
REMARK                         _______ _______ _______ _____ _____    ______ ____
ROOT
ATOM      1  S   UNL     1     -36.660  25.808   2.909  0.00  0.00    +0.075 S 
ATOM      2  O   UNL     1     -36.712  25.424   1.503  0.00  0.00    -0.150 OA
ATOM      3  O   UNL     1     -35.845  26.953   3.294  0.00  0.00    -0.150 OA
ENDROOT
BRANCH   1   4
ATOM      4  N   UNL     1     -38.276  26.038   3.461  0.00  0.00    -0.197 N 
ATOM      5  N   UNL     1     -39.420  24.159   2.599  0.00  0.00    -0.129 NA
ATOM      6  N   UNL     1     -40.412  23.595   1.859  0.00  0.00    -0.109 NA
ATOM      7  C   UNL     1     -39.346  25.500   2.664  0.00  0.00    +0.169 C 
ATOM      8  C   UNL     1     -40.219  26.347   2.024  0.00  0.00    +0.042 C 
ATOM      9  C   UNL     1     -41.228  25.772   1.271  0.00  0.00    +0.062 C 
ATOM     10  C   UNL     1     -41.289  24.395   1.215  0.00  0.00    +0.244 C 
ATOM     11  H   UNL     1     -38.461  26.522   4.298  0.00  0.00    +0.175 HD
BRANCH  10  12
ATOM     12  O   UNL     1     -42.272  23.789   0.482  0.00  0.00    -0.455 OA
ATOM     13  C   UNL     1     -41.861  23.094  -0.692  0.00  0.00    +0.254 C 
ENDBRANCH  10  12
ENDBRANCH   1   4
BRANCH   1  14
ATOM     14  C   UNL     1     -36.134  24.415   3.822  0.00  0.00    +0.125 C 
ATOM     15  C   UNL     1     -36.001  23.178   3.191  0.00  0.00    +0.021 C 
ATOM     16  C   UNL     1     -35.848  24.540   5.181  0.00  0.00    +0.021 C 
ATOM     17  C   UNL     1     -35.296  22.189   5.280  0.00  0.00    +0.042 C 
ATOM     18  C   UNL     1     -35.582  22.065   3.921  0.00  0.00    +0.015 C 
ATOM     19  C   UNL     1     -35.428  23.427   5.910  0.00  0.00    +0.015 C 
BRANCH  17  20
ATOM     20  N   UNL     1     -34.871  21.065   6.018  0.00  0.00    -0.357 N 
ATOM     21  H   UNL     1     -34.789  21.121   6.997  0.00  0.00    +0.142 HD
ATOM     22  H   UNL     1     -34.657  20.224   5.553  0.00  0.00    +0.142 HD
ENDBRANCH  17  20
ENDBRANCH   1  14
TORSDOF 4
ENDMDL
MODEL 8
REMARK VINA RESULT:      -5.6     11.780     15.713
REMARK  Name = 5330
REMARK  4 active torsions:
REMARK  status: ('A' for Active; 'I' for Inactive)
REMARK    1  A    between atoms: S_1  and  N_4
REMARK    2  A    between atoms: S_1  and  C_14
REMARK    3  A    between atoms: C_10  and  O_12
REMARK    4  A    between atoms: C_17  and  N_20
REMARK                            x       y       z     vdW  Elec       q    Type
REMARK                         _______ _______ _______ _____ _____    ______ ____
ROOT
ATOM      1  S   UNL     1     -45.059  31.820   5.062  0.00  0.00    +0.075 S 
ATOM      2  O   UNL     1     -43.797  32.542   5.176  0.00  0.00    -0.150 OA
ATOM      3  O   UNL     1     -45.631  31.612   3.738  0.00  0.00    -0.150 OA
ENDROOT
BRANCH   1   4
ATOM      4  N   UNL     1     -44.882  30.304   5.860  0.00  0.00    -0.197 N 
ATOM      5  N   UNL     1     -42.761  29.551   5.141  0.00  0.00    -0.129 NA
ATOM      6  N   UNL     1     -41.951  28.632   4.550  0.00  0.00    -0.109 NA
ATOM      7  C   UNL     1     -44.078  29.295   5.225  0.00  0.00    +0.169 C 
ATOM      8  C   UNL     1     -44.665  28.148   4.745  0.00  0.00    +0.042 C 
ATOM      9  C   UNL     1     -43.842  27.213   4.144  0.00  0.00    +0.062 C 
ATOM     10  C   UNL     1     -42.493  27.494   4.067  0.00  0.00    +0.244 C 
ATOM     11  H   UNL     1     -45.318  30.133   6.727  0.00  0.00    +0.175 HD
BRANCH  10  12
ATOM     12  O   UNL     1     -41.646  26.595   3.479  0.00  0.00    -0.455 OA
ATOM     13  C   UNL     1     -41.646  26.548   2.055  0.00  0.00    +0.254 C 
ENDBRANCH  10  12
ENDBRANCH   1   4
BRANCH   1  14
ATOM     14  C   UNL     1     -46.235  32.645   6.056  0.00  0.00    +0.125 C 
ATOM     15  C   UNL     1     -46.690  33.912   5.691  0.00  0.00    +0.021 C 
ATOM     16  C   UNL     1     -46.717  32.037   7.214  0.00  0.00    +0.021 C 
ATOM     17  C   UNL     1     -48.112  33.963   7.644  0.00  0.00    +0.042 C 
ATOM     18  C   UNL     1     -47.630  34.571   6.485  0.00  0.00    +0.015 C 
ATOM     19  C   UNL     1     -47.656  32.696   8.008  0.00  0.00    +0.015 C 
BRANCH  17  20
ATOM     20  N   UNL     1     -49.062  34.628   8.446  0.00  0.00    -0.357 N 
ATOM     21  H   UNL     1     -50.008  34.356   8.418  0.00  0.00    +0.142 HD
ATOM     22  H   UNL     1     -48.779  35.364   9.036  0.00  0.00    +0.142 HD
ENDBRANCH  17  20
ENDBRANCH   1  14
TORSDOF 4
ENDMDL
MODEL 9
REMARK VINA RESULT:      -5.6      5.041      9.098
REMARK  Name = 5330
REMARK  4 active torsions:
REMARK  status: ('A' for Active; 'I' for Inactive)
REMARK    1  A    between atoms: S_1  and  N_4
REMARK    2  A    between atoms: S_1  and  C_14
REMARK    3  A    between atoms: C_10  and  O_12
REMARK    4  A    between atoms: C_17  and  N_20
REMARK                            x       y       z     vdW  Elec       q    Type
REMARK                         _______ _______ _______ _____ _____    ______ ____
ROOT
ATOM      1  S   UNL     1     -32.607  27.840   4.392  0.00  0.00    +0.075 S 
ATOM      2  O   UNL     1     -32.115  26.863   3.427  0.00  0.00    -0.150 OA
ATOM      3  O   UNL     1     -33.453  28.928   3.919  0.00  0.00    -0.150 OA
ENDROOT
BRANCH   1   4
ATOM      4  N   UNL     1     -33.414  26.987   5.653  0.00  0.00    -0.197 N 
ATOM      5  N   UNL     1     -33.762  24.841   4.726  0.00  0.00    -0.129 NA
ATOM      6  N   UNL     1     -34.569  23.811   4.357  0.00  0.00    -0.109 NA
ATOM      7  C   UNL     1     -34.318  25.931   5.284  0.00  0.00    +0.169 C 
ATOM      8  C   UNL     1     -35.667  26.071   5.508  0.00  0.00    +0.042 C 
ATOM      9  C   UNL     1     -36.488  25.022   5.133  0.00  0.00    +0.062 C 
ATOM     10  C   UNL     1     -35.899  23.913   4.561  0.00  0.00    +0.244 C 
ATOM     11  H   UNL     1     -33.260  27.215   6.598  0.00  0.00    +0.175 HD
BRANCH  10  12
ATOM     12  O   UNL     1     -36.677  22.855   4.177  0.00  0.00    -0.455 OA
ATOM     13  C   UNL     1     -37.306  22.951   2.902  0.00  0.00    +0.254 C 
ENDBRANCH  10  12
ENDBRANCH   1   4
BRANCH   1  14
ATOM     14  C   UNL     1     -31.223  28.522   5.211  0.00  0.00    +0.125 C 
ATOM     15  C   UNL     1     -29.973  28.516   4.591  0.00  0.00    +0.021 C 
ATOM     16  C   UNL     1     -31.368  29.071   6.484  0.00  0.00    +0.021 C 
ATOM     17  C   UNL     1     -29.013  29.610   6.520  0.00  0.00    +0.042 C 
ATOM     18  C   UNL     1     -28.868  29.061   5.246  0.00  0.00    +0.015 C 
ATOM     19  C   UNL     1     -30.263  29.616   7.139  0.00  0.00    +0.015 C 
BRANCH  17  20
ATOM     20  N   UNL     1     -27.896  30.161   7.182  0.00  0.00    -0.357 N 
ATOM     21  H   UNL     1     -27.094  29.611   7.336  0.00  0.00    +0.142 HD
ATOM     22  H   UNL     1     -27.919  31.096   7.489  0.00  0.00    +0.142 HD
ENDBRANCH  17  20
ENDBRANCH   1  14
TORSDOF 4
ENDMDL
