MODEL 1
REMARK VINA RESULT:      -6.0      0.000      0.000
REMARK  Name = 5133
REMARK  16 active torsions:
REMARK  status: ('A' for Active; 'I' for Inactive)
REMARK    1  A    between atoms: CA_1  and  N_3
REMARK    2  A    between atoms: CA_1  and  C_19
REMARK    3  A    between atoms: CA_1  and  CB_26
REMARK    4  A    between atoms: C_4  and  C_6
REMARK    5  A    between atoms: C_6  and  C_7
REMARK    6  A    between atoms: C_7  and  CA_8
REMARK    7  A    between atoms: CA_8  and  N_9
REMARK    8  A    between atoms: CA_8  and  C_14
REMARK    9  A    between atoms: C_14  and  O_15
REMARK   10  A    between atoms: N_18  and  CA_21
REMARK   11  A    between atoms: CA_21  and  C_23
REMARK   12  A    between atoms: C_23  and  O_24
REMARK   13  A    between atoms: CB_26  and  SG_27
REMARK   14  A    between atoms: SG_27  and  C_28
REMARK   15  A    between atoms: C_28  and  C_29
REMARK   16  A    between atoms: C_34  and  N_37
REMARK                            x       y       z     vdW  Elec       q    Type
REMARK                         _______ _______ _______ _____ _____    ______ ____
ROOT
ATOM      1  CA  UNL     1     -36.781  25.631   2.193  0.00  0.00    +0.159 C 
ENDROOT
BRANCH   1   3
ATOM      2  O   UNL     1     -35.232  27.183   4.070  0.00  0.00    -0.275 OA
ATOM      3  N   UNL     1     -36.261  25.189   3.467  0.00  0.00    -0.298 N 
ATOM      4  C   UNL     1     -35.523  26.013   4.304  0.00  0.00    +0.223 C 
ATOM      5  H   UNL     1     -36.438  24.264   3.752  0.00  0.00    +0.150 HD
BRANCH   4   6
ATOM      6  C   UNL     1     -35.098  25.285   5.569  0.00  0.00    +0.083 C 
BRANCH   6   7
ATOM      7  C   UNL     1     -34.441  23.936   5.273  0.00  0.00    -0.001 C 
BRANCH   7   8
ATOM      8  CA  UNL     1     -35.266  22.748   5.778  0.00  0.00    +0.036 C 
BRANCH   8   9
ATOM      9  N   UNL     1     -34.384  21.790   6.449  0.00  0.00    +0.389 N 
ATOM     10  H1  UNL     1     -34.897  21.321   7.196  0.00  0.00    -0.088 HD
ATOM     11  H2  UNL     1     -33.584  22.283   6.845  0.00  0.00    -0.088 HD
ATOM     12  H3  UNL     1     -34.058  21.098   5.775  0.00  0.00    -0.088 HD
ENDBRANCH   8   9
BRANCH   8  14
ATOM     13  OXT UNL     1     -36.776  22.471   3.885  0.00  0.00    -0.253 OA
ATOM     14  C   UNL     1     -35.923  22.004   4.630  0.00  0.00    +0.293 C 
BRANCH  14  15
ATOM     15  O   UNL     1     -35.476  20.726   4.522  0.00  0.00    -0.482 OA
ATOM     16  H   UNL     1     -34.608  20.557   4.213  0.00  0.00    +0.295 HD
ENDBRANCH  14  15
ENDBRANCH   8  14
ENDBRANCH   7   8
ENDBRANCH   6   7
ENDBRANCH   4   6
ENDBRANCH   1   3
BRANCH   1  19
ATOM     17  O   UNL     1     -39.165  26.063   2.058  0.00  0.00    -0.273 OA
ATOM     18  N   UNL     1     -38.430  23.862   2.085  0.00  0.00    -0.294 N 
ATOM     19  C   ACE A   1     -38.253  25.239   2.096  0.00  0.00    +0.242 C 
ATOM     20  H   UNL     1     -37.635  23.283   2.120  0.00  0.00    +0.150 HD
BRANCH  18  21
ATOM     21  CA  UNL     1     -39.735  23.245   2.025  0.00  0.00    +0.200 C 
BRANCH  21  23
ATOM     22  OXT UNL     1     -40.542  21.128   1.212  0.00  0.00    -0.248 OA
ATOM     23  C   UNL     1     -39.670  21.756   1.801  0.00  0.00    +0.334 C 
BRANCH  23  24
ATOM     24  O   UNL     1     -38.558  21.180   2.312  0.00  0.00    -0.479 OA
ATOM     25  H   UNL     1     -38.078  20.555   1.805  0.00  0.00    +0.295 HD
ENDBRANCH  23  24
ENDBRANCH  21  23
ENDBRANCH  18  21
ENDBRANCH   1  19
BRANCH   1  26
ATOM     26  CB  UNL     1     -35.940  25.132   1.015  0.00  0.00    +0.087 C 
BRANCH  26  27
ATOM     27  SG  UNL     1     -34.616  23.975   1.498  0.00  0.00    -0.133 S 
BRANCH  27  28
ATOM     28  C   UNL     1     -35.247  22.503   0.661  0.00  0.00    +0.084 C 
BRANCH  28  29
ATOM     29  C   UNL     1     -34.263  21.366   0.694  0.00  0.00    -0.011 C 
ATOM     30  C   UNL     1     -33.057  21.467  -0.000  0.00  0.00    -0.002 C 
ATOM     31  C   UNL     1     -34.555  20.212   1.421  0.00  0.00    -0.002 C 
ATOM     32  C   UNL     1     -32.144  20.413   0.031  0.00  0.00    +0.024 C 
ATOM     33  C   UNL     1     -33.642  19.158   1.453  0.00  0.00    +0.024 C 
ATOM     34  C   UNL     1     -32.436  19.259   0.759  0.00  0.00    +0.143 C 
BRANCH  34  37
ATOM     35  O   UNL     1     -31.935  17.012   0.899  0.00  0.00    -0.126 OA
ATOM     36  O   UNL     1     -30.280  18.442   0.714  0.00  0.00    -0.126 OA
ATOM     37  N   UNL     1     -31.506  18.187   0.792  0.00  0.00    +0.058 N 
ENDBRANCH  34  37
ENDBRANCH  28  29
ENDBRANCH  27  28
ENDBRANCH  26  27
ENDBRANCH   1  26
TORSDOF 16
ENDMDL
MODEL 2
REMARK VINA RESULT:      -5.9      1.871      3.573
REMARK  Name = 5133
REMARK  16 active torsions:
REMARK  status: ('A' for Active; 'I' for Inactive)
REMARK    1  A    between atoms: CA_1  and  N_3
REMARK    2  A    between atoms: CA_1  and  C_19
REMARK    3  A    between atoms: CA_1  and  CB_26
REMARK    4  A    between atoms: C_4  and  C_6
REMARK    5  A    between atoms: C_6  and  C_7
REMARK    6  A    between atoms: C_7  and  CA_8
REMARK    7  A    between atoms: CA_8  and  N_9
REMARK    8  A    between atoms: CA_8  and  C_14
REMARK    9  A    between atoms: C_14  and  O_15
REMARK   10  A    between atoms: N_18  and  CA_21
REMARK   11  A    between atoms: CA_21  and  C_23
REMARK   12  A    between atoms: C_23  and  O_24
REMARK   13  A    between atoms: CB_26  and  SG_27
REMARK   14  A    between atoms: SG_27  and  C_28
REMARK   15  A    between atoms: C_28  and  C_29
REMARK   16  A    between atoms: C_34  and  N_37
REMARK                            x       y       z     vdW  Elec       q    Type
REMARK                         _______ _______ _______ _____ _____    ______ ____
ROOT
ATOM      1  CA  UNL     1     -37.518  22.293   2.251  0.00  0.00    +0.159 C 
ENDROOT
BRANCH   1   3
ATOM      2  O   UNL     1     -35.312  24.030   2.918  0.00  0.00    -0.275 OA
ATOM      3  N   UNL     1     -37.019  22.597   3.573  0.00  0.00    -0.298 N 
ATOM      4  C   UNL     1     -35.947  23.449   3.793  0.00  0.00    +0.223 C 
ATOM      5  H   UNL     1     -37.459  22.182   4.349  0.00  0.00    +0.150 HD
BRANCH   4   6
ATOM      6  C   UNL     1     -35.634  23.579   5.275  0.00  0.00    +0.083 C 
BRANCH   6   7
ATOM      7  C   UNL     1     -34.507  24.578   5.547  0.00  0.00    -0.001 C 
BRANCH   7   8
ATOM      8  CA  UNL     1     -34.993  26.031   5.575  0.00  0.00    +0.036 C 
BRANCH   8   9
ATOM      9  N   UNL     1     -36.423  26.075   5.261  0.00  0.00    +0.389 N 
ATOM     10  H1  UNL     1     -36.701  25.200   4.816  0.00  0.00    -0.088 HD
ATOM     11  H2  UNL     1     -36.609  26.852   4.627  0.00  0.00    -0.088 HD
ATOM     12  H3  UNL     1     -36.957  26.202   6.121  0.00  0.00    -0.088 HD
ENDBRANCH   8   9
BRANCH   8  14
ATOM     13  OXT UNL     1     -33.128  26.722   4.166  0.00  0.00    -0.253 OA
ATOM     14  C   UNL     1     -34.291  26.867   4.521  0.00  0.00    +0.293 C 
BRANCH  14  15
ATOM     15  O   UNL     1     -35.096  27.837   4.014  0.00  0.00    -0.482 OA
ATOM     16  H   UNL     1     -34.728  28.531   3.502  0.00  0.00    +0.295 HD
ENDBRANCH  14  15
ENDBRANCH   8  14
ENDBRANCH   7   8
ENDBRANCH   6   7
ENDBRANCH   4   6
ENDBRANCH   1   3
BRANCH   1  19
ATOM     17  O   UNL     1     -39.911  21.981   1.995  0.00  0.00    -0.273 OA
ATOM     18  N   UNL     1     -39.086  24.137   2.229  0.00  0.00    -0.294 N 
ATOM     19  C   ACE A   1     -38.969  22.756   2.151  0.00  0.00    +0.242 C 
ATOM     20  H   UNL     1     -38.271  24.674   2.354  0.00  0.00    +0.150 HD
BRANCH  18  21
ATOM     21  CA  UNL     1     -40.357  24.818   2.134  0.00  0.00    +0.200 C 
BRANCH  21  23
ATOM     22  OXT UNL     1     -41.266  26.979   2.679  0.00  0.00    -0.248 OA
ATOM     23  C   UNL     1     -40.342  26.181   2.777  0.00  0.00    +0.334 C 
BRANCH  23  24
ATOM     24  O   UNL     1     -39.211  26.438   3.474  0.00  0.00    -0.479 OA
ATOM     25  H   UNL     1     -39.077  27.282   3.857  0.00  0.00    +0.295 HD
ENDBRANCH  23  24
ENDBRANCH  21  23
ENDBRANCH  18  21
ENDBRANCH   1  19
BRANCH   1  26
ATOM     26  CB  UNL     1     -37.323  20.820   1.879  0.00  0.00    +0.087 C 
BRANCH  26  27
ATOM     27  SG  UNL     1     -36.392  20.573   0.331  0.00  0.00    -0.133 S 
BRANCH  27  28
ATOM     28  C   UNL     1     -34.829  21.312   0.853  0.00  0.00    +0.084 C 
BRANCH  28  29
ATOM     29  C   UNL     1     -33.695  20.324   0.824  0.00  0.00    -0.011 C 
ATOM     30  C   UNL     1     -33.799  19.123   1.525  0.00  0.00    -0.002 C 
ATOM     31  C   UNL     1     -32.542  20.608   0.093  0.00  0.00    -0.002 C 
ATOM     32  C   UNL     1     -32.749  18.205   1.497  0.00  0.00    +0.024 C 
ATOM     33  C   UNL     1     -31.491  19.691   0.064  0.00  0.00    +0.024 C 
ATOM     34  C   UNL     1     -31.595  18.490   0.766  0.00  0.00    +0.143 C 
BRANCH  34  37
ATOM     35  O   UNL     1     -29.363  17.954   0.986  0.00  0.00    -0.126 OA
ATOM     36  O   UNL     1     -30.774  16.357   0.458  0.00  0.00    -0.126 OA
ATOM     37  N   UNL     1     -30.526  17.555   0.735  0.00  0.00    +0.058 N 
ENDBRANCH  34  37
ENDBRANCH  28  29
ENDBRANCH  27  28
ENDBRANCH  26  27
ENDBRANCH   1  26
TORSDOF 16
ENDMDL
MODEL 3
REMARK VINA RESULT:      -5.8      2.520      6.721
REMARK  Name = 5133
REMARK  16 active torsions:
REMARK  status: ('A' for Active; 'I' for Inactive)
REMARK    1  A    between atoms: CA_1  and  N_3
REMARK    2  A    between atoms: CA_1  and  C_19
REMARK    3  A    between atoms: CA_1  and  CB_26
REMARK    4  A    between atoms: C_4  and  C_6
REMARK    5  A    between atoms: C_6  and  C_7
REMARK    6  A    between atoms: C_7  and  CA_8
REMARK    7  A    between atoms: CA_8  and  N_9
REMARK    8  A    between atoms: CA_8  and  C_14
REMARK    9  A    between atoms: C_14  and  O_15
REMARK   10  A    between atoms: N_18  and  CA_21
REMARK   11  A    between atoms: CA_21  and  C_23
REMARK   12  A    between atoms: C_23  and  O_24
REMARK   13  A    between atoms: CB_26  and  SG_27
REMARK   14  A    between atoms: SG_27  and  C_28
REMARK   15  A    between atoms: C_28  and  C_29
REMARK   16  A    between atoms: C_34  and  N_37
REMARK                            x       y       z     vdW  Elec       q    Type
REMARK                         _______ _______ _______ _____ _____    ______ ____
ROOT
ATOM      1  CA  UNL     1     -36.122  20.910   2.690  0.00  0.00    +0.159 C 
ENDROOT
BRANCH   1   3
ATOM      2  O   UNL     1     -35.018  20.612   5.339  0.00  0.00    -0.275 OA
ATOM      3  N   UNL     1     -35.959  21.945   3.685  0.00  0.00    -0.298 N 
ATOM      4  C   UNL     1     -35.415  21.703   4.938  0.00  0.00    +0.223 C 
ATOM      5  H   UNL     1     -36.246  22.860   3.465  0.00  0.00    +0.150 HD
BRANCH   4   6
ATOM      6  C   UNL     1     -35.372  22.967   5.781  0.00  0.00    +0.083 C 
BRANCH   6   7
ATOM      7  C   UNL     1     -35.864  24.196   5.014  0.00  0.00    -0.001 C 
BRANCH   7   8
ATOM      8  CA  UNL     1     -35.515  25.513   5.714  0.00  0.00    +0.036 C 
BRANCH   8   9
ATOM      9  N   UNL     1     -36.353  26.589   5.180  0.00  0.00    +0.389 N 
ATOM     10  H1  UNL     1     -36.064  27.479   5.584  0.00  0.00    -0.088 HD
ATOM     11  H2  UNL     1     -37.329  26.410   5.417  0.00  0.00    -0.088 HD
ATOM     12  H3  UNL     1     -36.251  26.627   4.165  0.00  0.00    -0.088 HD
ENDBRANCH   8   9
BRANCH   8  14
ATOM     13  OXT UNL     1     -33.369  25.459   4.559  0.00  0.00    -0.253 OA
ATOM     14  C   UNL     1     -34.074  25.913   5.452  0.00  0.00    +0.293 C 
BRANCH  14  15
ATOM     15  O   UNL     1     -33.624  26.832   6.346  0.00  0.00    -0.482 OA
ATOM     16  H   UNL     1     -33.216  26.550   7.141  0.00  0.00    +0.295 HD
ENDBRANCH  14  15
ENDBRANCH   8  14
ENDBRANCH   7   8
ENDBRANCH   6   7
ENDBRANCH   4   6
ENDBRANCH   1   3
BRANCH   1  19
ATOM     17  O   UNL     1     -34.438  21.840   1.212  0.00  0.00    -0.273 OA
ATOM     18  N   UNL     1     -34.311  19.592   1.771  0.00  0.00    -0.294 N 
ATOM     19  C   ACE A   1     -34.871  20.862   1.817  0.00  0.00    +0.242 C 
ATOM     20  H   UNL     1     -34.733  18.871   2.292  0.00  0.00    +0.150 HD
BRANCH  18  21
ATOM     21  CA  UNL     1     -33.135  19.287   0.991  0.00  0.00    +0.200 C 
BRANCH  21  23
ATOM     22  OXT UNL     1     -33.336  16.943   0.477  0.00  0.00    -0.248 OA
ATOM     23  C   UNL     1     -32.739  17.834   1.069  0.00  0.00    +0.334 C 
BRANCH  23  24
ATOM     24  O   UNL     1     -31.661  17.609   1.855  0.00  0.00    -0.479 OA
ATOM     25  H   UNL     1     -31.754  17.128   2.653  0.00  0.00    +0.295 HD
ENDBRANCH  23  24
ENDBRANCH  21  23
ENDBRANCH  18  21
ENDBRANCH   1  19
BRANCH   1  26
ATOM     26  CB  UNL     1     -37.417  21.072   1.888  0.00  0.00    +0.087 C 
BRANCH  26  27
ATOM     27  SG  UNL     1     -38.284  22.644   2.206  0.00  0.00    -0.133 S 
BRANCH  27  28
ATOM     28  C   UNL     1     -37.681  23.561   0.771  0.00  0.00    +0.084 C 
BRANCH  28  29
ATOM     29  C   UNL     1     -37.082  24.886   1.156  0.00  0.00    -0.011 C 
ATOM     30  C   UNL     1     -37.888  26.022   1.227  0.00  0.00    -0.002 C 
ATOM     31  C   UNL     1     -35.720  24.978   1.444  0.00  0.00    -0.002 C 
ATOM     32  C   UNL     1     -37.333  27.251   1.585  0.00  0.00    +0.024 C 
ATOM     33  C   UNL     1     -35.164  26.206   1.802  0.00  0.00    +0.024 C 
ATOM     34  C   UNL     1     -35.971  27.342   1.873  0.00  0.00    +0.143 C 
BRANCH  34  37
ATOM     35  O   UNL     1     -34.776  28.681   3.321  0.00  0.00    -0.126 OA
ATOM     36  O   UNL     1     -35.551  29.574   1.472  0.00  0.00    -0.126 OA
ATOM     37  N   UNL     1     -35.406  28.592   2.240  0.00  0.00    +0.058 N 
ENDBRANCH  34  37
ENDBRANCH  28  29
ENDBRANCH  27  28
ENDBRANCH  26  27
ENDBRANCH   1  26
TORSDOF 16
ENDMDL
MODEL 4
REMARK VINA RESULT:      -5.8      1.740      5.136
REMARK  Name = 5133
REMARK  16 active torsions:
REMARK  status: ('A' for Active; 'I' for Inactive)
REMARK    1  A    between atoms: CA_1  and  N_3
REMARK    2  A    between atoms: CA_1  and  C_19
REMARK    3  A    between atoms: CA_1  and  CB_26
REMARK    4  A    between atoms: C_4  and  C_6
REMARK    5  A    between atoms: C_6  and  C_7
REMARK    6  A    between atoms: C_7  and  CA_8
REMARK    7  A    between atoms: CA_8  and  N_9
REMARK    8  A    between atoms: CA_8  and  C_14
REMARK    9  A    between atoms: C_14  and  O_15
REMARK   10  A    between atoms: N_18  and  CA_21
REMARK   11  A    between atoms: CA_21  and  C_23
REMARK   12  A    between atoms: C_23  and  O_24
REMARK   13  A    between atoms: CB_26  and  SG_27
REMARK   14  A    between atoms: SG_27  and  C_28
REMARK   15  A    between atoms: C_28  and  C_29
REMARK   16  A    between atoms: C_34  and  N_37
REMARK                            x       y       z     vdW  Elec       q    Type
REMARK                         _______ _______ _______ _____ _____    ______ ____
ROOT
ATOM      1  CA  UNL     1     -36.725  22.096   3.048  0.00  0.00    +0.159 C 
ENDROOT
BRANCH   1   3
ATOM      2  O   UNL     1     -39.252  21.418   1.831  0.00  0.00    -0.275 OA
ATOM      3  N   UNL     1     -37.874  22.958   2.892  0.00  0.00    -0.298 N 
ATOM      4  C   UNL     1     -39.051  22.540   2.290  0.00  0.00    +0.223 C 
ATOM      5  H   UNL     1     -37.818  23.882   3.227  0.00  0.00    +0.150 HD
BRANCH   4   6
ATOM      6  C   UNL     1     -40.085  23.653   2.253  0.00  0.00    +0.083 C 
BRANCH   6   7
ATOM      7  C   UNL     1     -39.729  24.810   3.188  0.00  0.00    -0.001 C 
BRANCH   7   8
ATOM      8  CA  UNL     1     -39.547  26.139   2.448  0.00  0.00    +0.036 C 
BRANCH   8   9
ATOM      9  N   UNL     1     -40.252  26.086   1.165  0.00  0.00    +0.389 N 
ATOM     10  H1  UNL     1     -40.825  26.922   1.057  0.00  0.00    -0.088 HD
ATOM     11  H2  UNL     1     -40.849  25.260   1.140  0.00  0.00    -0.088 HD
ATOM     12  H3  UNL     1     -39.573  26.038   0.406  0.00  0.00    -0.088 HD
ENDBRANCH   8   9
BRANCH   8  14
ATOM     13  OXT UNL     1     -37.147  25.724   2.535  0.00  0.00    -0.253 OA
ATOM     14  C   UNL     1     -38.086  26.399   2.131  0.00  0.00    +0.293 C 
BRANCH  14  15
ATOM     15  O   UNL     1     -37.916  27.500   1.354  0.00  0.00    -0.482 OA
ATOM     16  H   UNL     1     -37.053  27.825   1.185  0.00  0.00    +0.295 HD
ENDBRANCH  14  15
ENDBRANCH   8  14
ENDBRANCH   7   8
ENDBRANCH   6   7
ENDBRANCH   4   6
ENDBRANCH   1   3
BRANCH   1  19
ATOM     17  O   UNL     1     -35.301  21.718   4.976  0.00  0.00    -0.273 OA
ATOM     18  N   UNL     1     -36.137  23.851   4.608  0.00  0.00    -0.294 N 
ATOM     19  C   ACE A   1     -35.965  22.507   4.306  0.00  0.00    +0.242 C 
ATOM     20  H   UNL     1     -36.689  24.403   4.009  0.00  0.00    +0.150 HD
BRANCH  18  21
ATOM     21  CA  UNL     1     -35.538  24.472   5.767  0.00  0.00    +0.200 C 
BRANCH  21  23
ATOM     22  OXT UNL     1     -34.293  26.533   5.753  0.00  0.00    -0.248 OA
ATOM     23  C   UNL     1     -35.367  25.962   5.612  0.00  0.00    +0.334 C 
BRANCH  23  24
ATOM     24  O   UNL     1     -36.515  26.608   5.303  0.00  0.00    -0.479 OA
ATOM     25  H   UNL     1     -37.253  26.127   4.983  0.00  0.00    +0.295 HD
ENDBRANCH  23  24
ENDBRANCH  21  23
ENDBRANCH  18  21
ENDBRANCH   1  19
BRANCH   1  26
ATOM     26  CB  UNL     1     -35.848  22.059   1.793  0.00  0.00    +0.087 C 
BRANCH  26  27
ATOM     27  SG  UNL     1     -35.335  20.379   1.306  0.00  0.00    -0.133 S 
BRANCH  27  28
ATOM     28  C   UNL     1     -33.908  20.832   0.295  0.00  0.00    +0.084 C 
BRANCH  28  29
ATOM     29  C   UNL     1     -32.761  19.875   0.471  0.00  0.00    -0.011 C 
ATOM     30  C   UNL     1     -32.922  18.729   1.249  0.00  0.00    -0.002 C 
ATOM     31  C   UNL     1     -31.537  20.133  -0.148  0.00  0.00    -0.002 C 
ATOM     32  C   UNL     1     -31.859  17.840   1.410  0.00  0.00    +0.024 C 
ATOM     33  C   UNL     1     -30.474  19.244   0.013  0.00  0.00    +0.024 C 
ATOM     34  C   UNL     1     -30.635  18.098   0.791  0.00  0.00    +0.143 C 
BRANCH  34  37
ATOM     35  O   UNL     1     -28.506  17.592   1.518  0.00  0.00    -0.126 OA
ATOM     36  O   UNL     1     -29.674  16.018   0.529  0.00  0.00    -0.126 OA
ATOM     37  N   UNL     1     -29.553  17.193   0.954  0.00  0.00    +0.058 N 
ENDBRANCH  34  37
ENDBRANCH  28  29
ENDBRANCH  27  28
ENDBRANCH  26  27
ENDBRANCH   1  26
TORSDOF 16
ENDMDL
MODEL 5
REMARK VINA RESULT:      -5.7      2.599      7.908
REMARK  Name = 5133
REMARK  16 active torsions:
REMARK  status: ('A' for Active; 'I' for Inactive)
REMARK    1  A    between atoms: CA_1  and  N_3
REMARK    2  A    between atoms: CA_1  and  C_19
REMARK    3  A    between atoms: CA_1  and  CB_26
REMARK    4  A    between atoms: C_4  and  C_6
REMARK    5  A    between atoms: C_6  and  C_7
REMARK    6  A    between atoms: C_7  and  CA_8
REMARK    7  A    between atoms: CA_8  and  N_9
REMARK    8  A    between atoms: CA_8  and  C_14
REMARK    9  A    between atoms: C_14  and  O_15
REMARK   10  A    between atoms: N_18  and  CA_21
REMARK   11  A    between atoms: CA_21  and  C_23
REMARK   12  A    between atoms: C_23  and  O_24
REMARK   13  A    between atoms: CB_26  and  SG_27
REMARK   14  A    between atoms: SG_27  and  C_28
REMARK   15  A    between atoms: C_28  and  C_29
REMARK   16  A    between atoms: C_34  and  N_37
REMARK                            x       y       z     vdW  Elec       q    Type
REMARK                         _______ _______ _______ _____ _____    ______ ____
ROOT
ATOM      1  CA  UNL     1     -36.113  21.043   2.628  0.00  0.00    +0.159 C 
ENDROOT
BRANCH   1   3
ATOM      2  O   UNL     1     -35.066  20.688   5.294  0.00  0.00    -0.275 OA
ATOM      3  N   UNL     1     -35.867  22.074   3.609  0.00  0.00    -0.298 N 
ATOM      4  C   UNL     1     -35.359  21.804   4.872  0.00  0.00    +0.223 C 
ATOM      5  H   UNL     1     -36.068  23.008   3.373  0.00  0.00    +0.150 HD
BRANCH   4   6
ATOM      6  C   UNL     1     -35.211  23.072   5.697  0.00  0.00    +0.083 C 
BRANCH   6   7
ATOM      7  C   UNL     1     -35.803  24.296   4.995  0.00  0.00    -0.001 C 
BRANCH   7   8
ATOM      8  CA  UNL     1     -35.535  25.602   5.750  0.00  0.00    +0.036 C 
BRANCH   8   9
ATOM      9  N   UNL     1     -36.348  26.676   5.175  0.00  0.00    +0.389 N 
ATOM     10  H1  UNL     1     -36.407  27.449   5.836  0.00  0.00    -0.088 HD
ATOM     11  H2  UNL     1     -37.285  26.324   4.978  0.00  0.00    -0.088 HD
ATOM     12  H3  UNL     1     -35.918  27.001   4.309  0.00  0.00    -0.088 HD
ENDBRANCH   8   9
BRANCH   8  14
ATOM     13  OXT UNL     1     -33.483  26.744   6.405  0.00  0.00    -0.253 OA
ATOM     14  C   UNL     1     -34.086  26.031   5.612  0.00  0.00    +0.293 C 
BRANCH  14  15
ATOM     15  O   UNL     1     -33.514  25.555   4.475  0.00  0.00    -0.482 OA
ATOM     16  H   UNL     1     -33.773  24.721   4.135  0.00  0.00    +0.295 HD
ENDBRANCH  14  15
ENDBRANCH   8  14
ENDBRANCH   7   8
ENDBRANCH   6   7
ENDBRANCH   4   6
ENDBRANCH   1   3
BRANCH   1  19
ATOM     17  O   UNL     1     -34.420  21.789   1.057  0.00  0.00    -0.273 OA
ATOM     18  N   UNL     1     -34.337  19.603   1.830  0.00  0.00    -0.294 N 
ATOM     19  C   ACE A   1     -34.869  20.883   1.756  0.00  0.00    +0.242 C 
ATOM     20  H   UNL     1     -34.771  18.944   2.420  0.00  0.00    +0.150 HD
BRANCH  18  21
ATOM     21  CA  UNL     1     -33.174  19.197   1.076  0.00  0.00    +0.200 C 
BRANCH  21  23
ATOM     22  OXT UNL     1     -32.080  17.059   0.916  0.00  0.00    -0.248 OA
ATOM     23  C   UNL     1     -33.115  17.710   0.842  0.00  0.00    +0.334 C 
BRANCH  23  24
ATOM     24  O   UNL     1     -34.315  17.162   0.541  0.00  0.00    -0.479 OA
ATOM     25  H   UNL     1     -34.497  16.273   0.775  0.00  0.00    +0.295 HD
ENDBRANCH  23  24
ENDBRANCH  21  23
ENDBRANCH  18  21
ENDBRANCH   1  19
BRANCH   1  26
ATOM     26  CB  UNL     1     -37.390  21.297   1.823  0.00  0.00    +0.087 C 
BRANCH  26  27
ATOM     27  SG  UNL     1     -37.788  23.064   1.617  0.00  0.00    -0.133 S 
BRANCH  27  28
ATOM     28  C   UNL     1     -39.575  22.900   1.408  0.00  0.00    +0.084 C 
BRANCH  28  29
ATOM     29  C   UNL     1     -40.315  24.128   1.864  0.00  0.00    -0.011 C 
ATOM     30  C   UNL     1     -41.421  24.582   1.147  0.00  0.00    -0.002 C 
ATOM     31  C   UNL     1     -39.896  24.809   3.007  0.00  0.00    -0.002 C 
ATOM     32  C   UNL     1     -42.108  25.720   1.571  0.00  0.00    +0.024 C 
ATOM     33  C   UNL     1     -40.583  25.947   3.432  0.00  0.00    +0.024 C 
ATOM     34  C   UNL     1     -41.689  26.402   2.714  0.00  0.00    +0.143 C 
BRANCH  34  37
ATOM     35  O   UNL     1     -43.336  27.428   3.959  0.00  0.00    -0.126 OA
ATOM     36  O   UNL     1     -42.043  28.680   2.704  0.00  0.00    -0.126 OA
ATOM     37  N   UNL     1     -42.389  27.558   3.146  0.00  0.00    +0.058 N 
ENDBRANCH  34  37
ENDBRANCH  28  29
ENDBRANCH  27  28
ENDBRANCH  26  27
ENDBRANCH   1  26
TORSDOF 16
ENDMDL
MODEL 6
REMARK VINA RESULT:      -5.7      2.345      3.679
REMARK  Name = 5133
REMARK  16 active torsions:
REMARK  status: ('A' for Active; 'I' for Inactive)
REMARK    1  A    between atoms: CA_1  and  N_3
REMARK    2  A    between atoms: CA_1  and  C_19
REMARK    3  A    between atoms: CA_1  and  CB_26
REMARK    4  A    between atoms: C_4  and  C_6
REMARK    5  A    between atoms: C_6  and  C_7
REMARK    6  A    between atoms: C_7  and  CA_8
REMARK    7  A    between atoms: CA_8  and  N_9
REMARK    8  A    between atoms: CA_8  and  C_14
REMARK    9  A    between atoms: C_14  and  O_15
REMARK   10  A    between atoms: N_18  and  CA_21
REMARK   11  A    between atoms: CA_21  and  C_23
REMARK   12  A    between atoms: C_23  and  O_24
REMARK   13  A    between atoms: CB_26  and  SG_27
REMARK   14  A    between atoms: SG_27  and  C_28
REMARK   15  A    between atoms: C_28  and  C_29
REMARK   16  A    between atoms: C_34  and  N_37
REMARK                            x       y       z     vdW  Elec       q    Type
REMARK                         _______ _______ _______ _____ _____    ______ ____
ROOT
ATOM      1  CA  UNL     1     -35.972  22.879   2.424  0.00  0.00    +0.159 C 
ENDROOT
BRANCH   1   3
ATOM      2  O   UNL     1     -35.497  25.205   0.783  0.00  0.00    -0.275 OA
ATOM      3  N   UNL     1     -34.839  23.774   2.491  0.00  0.00    -0.298 N 
ATOM      4  C   UNL     1     -34.699  24.872   1.654  0.00  0.00    +0.223 C 
ATOM      5  H   UNL     1     -34.137  23.597   3.157  0.00  0.00    +0.150 HD
BRANCH   4   6
ATOM      6  C   UNL     1     -33.412  25.628   1.939  0.00  0.00    +0.083 C 
BRANCH   6   7
ATOM      7  C   UNL     1     -33.432  26.321   3.303  0.00  0.00    -0.001 C 
BRANCH   7   8
ATOM      8  CA  UNL     1     -34.835  26.773   3.720  0.00  0.00    +0.036 C 
BRANCH   8   9
ATOM      9  N   UNL     1     -34.916  28.234   3.662  0.00  0.00    +0.389 N 
ATOM     10  H1  UNL     1     -35.695  28.508   3.064  0.00  0.00    -0.088 HD
ATOM     11  H2  UNL     1     -34.047  28.608   3.279  0.00  0.00    -0.088 HD
ATOM     12  H3  UNL     1     -35.060  28.605   4.601  0.00  0.00    -0.088 HD
ENDBRANCH   8   9
BRANCH   8  14
ATOM     13  OXT UNL     1     -34.309  25.988   5.967  0.00  0.00    -0.253 OA
ATOM     14  C   UNL     1     -35.137  26.378   5.154  0.00  0.00    +0.293 C 
BRANCH  14  15
ATOM     15  O   UNL     1     -36.460  26.479   5.447  0.00  0.00    -0.482 OA
ATOM     16  H   UNL     1     -36.876  27.319   5.452  0.00  0.00    +0.295 HD
ENDBRANCH  14  15
ENDBRANCH   8  14
ENDBRANCH   7   8
ENDBRANCH   6   7
ENDBRANCH   4   6
ENDBRANCH   1   3
BRANCH   1  19
ATOM     17  O   UNL     1     -37.196  23.752   4.328  0.00  0.00    -0.273 OA
ATOM     18  N   UNL     1     -38.192  23.825   2.234  0.00  0.00    -0.294 N 
ATOM     19  C   ACE A   1     -37.162  23.535   3.119  0.00  0.00    +0.242 C 
ATOM     20  H   UNL     1     -38.070  23.612   1.281  0.00  0.00    +0.150 HD
BRANCH  18  21
ATOM     21  CA  UNL     1     -39.436  24.425   2.657  0.00  0.00    +0.200 C 
BRANCH  21  23
ATOM     22  OXT UNL     1     -40.057  26.629   1.912  0.00  0.00    -0.248 OA
ATOM     23  C   UNL     1     -39.388  25.932   2.665  0.00  0.00    +0.334 C 
BRANCH  23  24
ATOM     24  O   UNL     1     -38.535  26.440   3.584  0.00  0.00    -0.479 OA
ATOM     25  H   UNL     1     -37.646  26.145   3.613  0.00  0.00    +0.295 HD
ENDBRANCH  23  24
ENDBRANCH  21  23
ENDBRANCH  18  21
ENDBRANCH   1  19
BRANCH   1  26
ATOM     26  CB  UNL     1     -35.645  21.484   2.964  0.00  0.00    +0.087 C 
BRANCH  26  27
ATOM     27  SG  UNL     1     -35.694  20.176   1.694  0.00  0.00    -0.133 S 
BRANCH  27  28
ATOM     28  C   UNL     1     -34.381  20.810   0.627  0.00  0.00    +0.084 C 
BRANCH  28  29
ATOM     29  C   UNL     1     -33.161  19.930   0.644  0.00  0.00    -0.011 C 
ATOM     30  C   UNL     1     -33.186  18.717   1.332  0.00  0.00    -0.002 C 
ATOM     31  C   UNL     1     -32.006  20.327  -0.030  0.00  0.00    -0.002 C 
ATOM     32  C   UNL     1     -32.055  17.900   1.347  0.00  0.00    +0.024 C 
ATOM     33  C   UNL     1     -30.875  19.511  -0.015  0.00  0.00    +0.024 C 
ATOM     34  C   UNL     1     -30.900  18.297   0.673  0.00  0.00    +0.143 C 
BRANCH  34  37
ATOM     35  O   UNL     1     -29.394  16.902  -0.376  0.00  0.00    -0.126 OA
ATOM     36  O   UNL     1     -29.119  17.317   1.761  0.00  0.00    -0.126 OA
ATOM     37  N   UNL     1     -29.749  17.466   0.687  0.00  0.00    +0.058 N 
ENDBRANCH  34  37
ENDBRANCH  28  29
ENDBRANCH  27  28
ENDBRANCH  26  27
ENDBRANCH   1  26
TORSDOF 16
ENDMDL
MODEL 7
REMARK VINA RESULT:      -5.6      1.866      3.596
REMARK  Name = 5133
REMARK  16 active torsions:
REMARK  status: ('A' for Active; 'I' for Inactive)
REMARK    1  A    between atoms: CA_1  and  N_3
REMARK    2  A    between atoms: CA_1  and  C_19
REMARK    3  A    between atoms: CA_1  and  CB_26
REMARK    4  A    between atoms: C_4  and  C_6
REMARK    5  A    between atoms: C_6  and  C_7
REMARK    6  A    between atoms: C_7  and  CA_8
REMARK    7  A    between atoms: CA_8  and  N_9
REMARK    8  A    between atoms: CA_8  and  C_14
REMARK    9  A    between atoms: C_14  and  O_15
REMARK   10  A    between atoms: N_18  and  CA_21
REMARK   11  A    between atoms: CA_21  and  C_23
REMARK   12  A    between atoms: C_23  and  O_24
REMARK   13  A    between atoms: CB_26  and  SG_27
REMARK   14  A    between atoms: SG_27  and  C_28
REMARK   15  A    between atoms: C_28  and  C_29
REMARK   16  A    between atoms: C_34  and  N_37
REMARK                            x       y       z     vdW  Elec       q    Type
REMARK                         _______ _______ _______ _____ _____    ______ ____
ROOT
ATOM      1  CA  UNL     1     -36.340  22.633   2.285  0.00  0.00    +0.159 C 
ENDROOT
BRANCH   1   3
ATOM      2  O   UNL     1     -36.375  22.488   5.167  0.00  0.00    -0.275 OA
ATOM      3  N   UNL     1     -35.595  23.460   3.206  0.00  0.00    -0.298 N 
ATOM      4  C   UNL     1     -35.679  23.314   4.583  0.00  0.00    +0.223 C 
ATOM      5  H   UNL     1     -35.003  24.156   2.841  0.00  0.00    +0.150 HD
BRANCH   4   6
ATOM      6  C   UNL     1     -34.798  24.321   5.305  0.00  0.00    +0.083 C 
BRANCH   6   7
ATOM      7  C   UNL     1     -34.213  25.369   4.357  0.00  0.00    -0.001 C 
BRANCH   7   8
ATOM      8  CA  UNL     1     -34.973  26.699   4.398  0.00  0.00    +0.036 C 
BRANCH   8   9
ATOM      9  N   UNL     1     -36.158  26.560   5.247  0.00  0.00    +0.389 N 
ATOM     10  H1  UNL     1     -36.903  27.159   4.892  0.00  0.00    -0.088 HD
ATOM     11  H2  UNL     1     -35.927  26.836   6.202  0.00  0.00    -0.088 HD
ATOM     12  H3  UNL     1     -36.470  25.589   5.240  0.00  0.00    -0.088 HD
ENDBRANCH   8   9
BRANCH   8  14
ATOM     13  OXT UNL     1     -35.679  26.316   2.097  0.00  0.00    -0.253 OA
ATOM     14  C   UNL     1     -35.469  27.094   3.020  0.00  0.00    +0.293 C 
BRANCH  14  15
ATOM     15  O   UNL     1     -35.639  28.436   2.899  0.00  0.00    -0.482 OA
ATOM     16  H   UNL     1     -36.063  28.788   2.140  0.00  0.00    +0.295 HD
ENDBRANCH  14  15
ENDBRANCH   8  14
ENDBRANCH   7   8
ENDBRANCH   6   7
ENDBRANCH   4   6
ENDBRANCH   1   3
BRANCH   1  19
ATOM     17  O   UNL     1     -38.750  22.500   2.534  0.00  0.00    -0.273 OA
ATOM     18  N   UNL     1     -37.824  24.439   1.658  0.00  0.00    -0.294 N 
ATOM     19  C   ACE A   1     -37.770  23.159   2.192  0.00  0.00    +0.242 C 
ATOM     20  H   UNL     1     -36.982  24.886   1.414  0.00  0.00    +0.150 HD
BRANCH  18  21
ATOM     21  CA  UNL     1     -39.068  25.143   1.447  0.00  0.00    +0.200 C 
BRANCH  21  23
ATOM     22  OXT UNL     1     -40.773  25.792   3.018  0.00  0.00    -0.248 OA
ATOM     23  C   UNL     1     -39.591  25.801   2.698  0.00  0.00    +0.334 C 
BRANCH  23  24
ATOM     24  O   UNL     1     -38.628  26.403   3.435  0.00  0.00    -0.479 OA
ATOM     25  H   UNL     1     -38.427  27.307   3.296  0.00  0.00    +0.295 HD
ENDBRANCH  23  24
ENDBRANCH  21  23
ENDBRANCH  18  21
ENDBRANCH   1  19
BRANCH   1  26
ATOM     26  CB  UNL     1     -36.261  21.146   2.642  0.00  0.00    +0.087 C 
BRANCH  26  27
ATOM     27  SG  UNL     1     -35.922  20.066   1.213  0.00  0.00    -0.133 S 
BRANCH  27  28
ATOM     28  C   UNL     1     -34.415  20.876   0.633  0.00  0.00    +0.084 C 
BRANCH  28  29
ATOM     29  C   UNL     1     -33.223  19.961   0.685  0.00  0.00    -0.011 C 
ATOM     30  C   UNL     1     -33.294  18.762   1.394  0.00  0.00    -0.002 C 
ATOM     31  C   UNL     1     -32.047  20.311   0.020  0.00  0.00    -0.002 C 
ATOM     32  C   UNL     1     -32.188  17.912   1.440  0.00  0.00    +0.024 C 
ATOM     33  C   UNL     1     -30.941  19.461   0.067  0.00  0.00    +0.024 C 
ATOM     34  C   UNL     1     -31.012  18.262   0.776  0.00  0.00    +0.143 C 
BRANCH  34  37
ATOM     35  O   UNL     1     -30.039  16.187   0.523  0.00  0.00    -0.126 OA
ATOM     36  O   UNL     1     -28.774  17.864   1.160  0.00  0.00    -0.126 OA
ATOM     37  N   UNL     1     -29.888  17.397   0.822  0.00  0.00    +0.058 N 
ENDBRANCH  34  37
ENDBRANCH  28  29
ENDBRANCH  27  28
ENDBRANCH  26  27
ENDBRANCH   1  26
TORSDOF 16
ENDMDL
MODEL 8
REMARK VINA RESULT:      -5.6      1.364      1.771
REMARK  Name = 5133
REMARK  16 active torsions:
REMARK  status: ('A' for Active; 'I' for Inactive)
REMARK    1  A    between atoms: CA_1  and  N_3
REMARK    2  A    between atoms: CA_1  and  C_19
REMARK    3  A    between atoms: CA_1  and  CB_26
REMARK    4  A    between atoms: C_4  and  C_6
REMARK    5  A    between atoms: C_6  and  C_7
REMARK    6  A    between atoms: C_7  and  CA_8
REMARK    7  A    between atoms: CA_8  and  N_9
REMARK    8  A    between atoms: CA_8  and  C_14
REMARK    9  A    between atoms: C_14  and  O_15
REMARK   10  A    between atoms: N_18  and  CA_21
REMARK   11  A    between atoms: CA_21  and  C_23
REMARK   12  A    between atoms: C_23  and  O_24
REMARK   13  A    between atoms: CB_26  and  SG_27
REMARK   14  A    between atoms: SG_27  and  C_28
REMARK   15  A    between atoms: C_28  and  C_29
REMARK   16  A    between atoms: C_34  and  N_37
REMARK                            x       y       z     vdW  Elec       q    Type
REMARK                         _______ _______ _______ _____ _____    ______ ____
ROOT
ATOM      1  CA  UNL     1     -36.873  24.601   0.772  0.00  0.00    +0.159 C 
ENDROOT
BRANCH   1   3
ATOM      2  O   UNL     1     -37.247  27.064   2.229  0.00  0.00    -0.275 OA
ATOM      3  N   UNL     1     -36.263  24.969   2.029  0.00  0.00    -0.298 N 
ATOM      4  C   UNL     1     -36.506  26.183   2.655  0.00  0.00    +0.223 C 
ATOM      5  H   UNL     1     -35.648  24.332   2.459  0.00  0.00    +0.150 HD
BRANCH   4   6
ATOM      6  C   UNL     1     -35.726  26.307   3.954  0.00  0.00    +0.083 C 
BRANCH   6   7
ATOM      7  C   UNL     1     -36.302  25.428   5.066  0.00  0.00    -0.001 C 
BRANCH   7   8
ATOM      8  CA  UNL     1     -35.325  24.345   5.536  0.00  0.00    +0.036 C 
BRANCH   8   9
ATOM      9  N   UNL     1     -34.150  24.333   4.661  0.00  0.00    +0.389 N 
ATOM     10  H1  UNL     1     -33.801  25.284   4.547  0.00  0.00    -0.088 HD
ATOM     11  H2  UNL     1     -34.410  23.955   3.750  0.00  0.00    -0.088 HD
ATOM     12  H3  UNL     1     -33.423  23.750   5.077  0.00  0.00    -0.088 HD
ENDBRANCH   8   9
BRANCH   8  14
ATOM     13  OXT UNL     1     -35.872  22.101   6.315  0.00  0.00    -0.253 OA
ATOM     14  C   UNL     1     -35.948  22.964   5.449  0.00  0.00    +0.293 C 
BRANCH  14  15
ATOM     15  O   UNL     1     -36.595  22.765   4.271  0.00  0.00    -0.482 OA
ATOM     16  H   UNL     1     -36.199  23.040   3.467  0.00  0.00    +0.295 HD
ENDBRANCH  14  15
ENDBRANCH   8  14
ENDBRANCH   7   8
ENDBRANCH   6   7
ENDBRANCH   4   6
ENDBRANCH   1   3
BRANCH   1  19
ATOM     17  O   UNL     1     -39.297  24.696   0.796  0.00  0.00    -0.273 OA
ATOM     18  N   UNL     1     -38.248  22.796   1.615  0.00  0.00    -0.294 N 
ATOM     19  C   ACE A   1     -38.274  24.060   1.042  0.00  0.00    +0.242 C 
ATOM     20  H   UNL     1     -37.376  22.367   1.774  0.00  0.00    +0.150 HD
BRANCH  18  21
ATOM     21  CA  UNL     1     -39.448  22.083   1.987  0.00  0.00    +0.200 C 
BRANCH  21  23
ATOM     22  OXT UNL     1     -41.012  21.027   0.492  0.00  0.00    -0.248 OA
ATOM     23  C   UNL     1     -39.877  21.075   0.952  0.00  0.00    +0.334 C 
BRANCH  23  24
ATOM     24  O   UNL     1     -38.890  20.229   0.580  0.00  0.00    -0.479 OA
ATOM     25  H   UNL     1     -38.054  20.566   0.325  0.00  0.00    +0.295 HD
ENDBRANCH  23  24
ENDBRANCH  21  23
ENDBRANCH  18  21
ENDBRANCH   1  19
BRANCH   1  26
ATOM     26  CB  UNL     1     -35.998  23.644  -0.043  0.00  0.00    +0.087 C 
BRANCH  26  27
ATOM     27  SG  UNL     1     -34.544  23.027   0.867  0.00  0.00    -0.133 S 
BRANCH  27  28
ATOM     28  C   UNL     1     -34.996  21.278   0.911  0.00  0.00    +0.084 C 
BRANCH  28  29
ATOM     29  C   UNL     1     -33.793  20.378   0.836  0.00  0.00    -0.011 C 
ATOM     30  C   UNL     1     -32.675  20.769   0.099  0.00  0.00    -0.002 C 
ATOM     31  C   UNL     1     -33.795  19.154   1.505  0.00  0.00    -0.002 C 
ATOM     32  C   UNL     1     -31.558  19.936   0.031  0.00  0.00    +0.024 C 
ATOM     33  C   UNL     1     -32.678  18.321   1.437  0.00  0.00    +0.024 C 
ATOM     34  C   UNL     1     -31.560  18.712   0.700  0.00  0.00    +0.143 C 
BRANCH  34  37
ATOM     35  O   UNL     1     -29.288  18.379   0.491  0.00  0.00    -0.126 OA
ATOM     36  O   UNL     1     -30.585  16.622   0.713  0.00  0.00    -0.126 OA
ATOM     37  N   UNL     1     -30.423  17.864   0.632  0.00  0.00    +0.058 N 
ENDBRANCH  34  37
ENDBRANCH  28  29
ENDBRANCH  27  28
ENDBRANCH  26  27
ENDBRANCH   1  26
TORSDOF 16
ENDMDL
MODEL 9
REMARK VINA RESULT:      -5.5      3.310      6.579
REMARK  Name = 5133
REMARK  16 active torsions:
REMARK  status: ('A' for Active; 'I' for Inactive)
REMARK    1  A    between atoms: CA_1  and  N_3
REMARK    2  A    between atoms: CA_1  and  C_19
REMARK    3  A    between atoms: CA_1  and  CB_26
REMARK    4  A    between atoms: C_4  and  C_6
REMARK    5  A    between atoms: C_6  and  C_7
REMARK    6  A    between atoms: C_7  and  CA_8
REMARK    7  A    between atoms: CA_8  and  N_9
REMARK    8  A    between atoms: CA_8  and  C_14
REMARK    9  A    between atoms: C_14  and  O_15
REMARK   10  A    between atoms: N_18  and  CA_21
REMARK   11  A    between atoms: CA_21  and  C_23
REMARK   12  A    between atoms: C_23  and  O_24
REMARK   13  A    between atoms: CB_26  and  SG_27
REMARK   14  A    between atoms: SG_27  and  C_28
REMARK   15  A    between atoms: C_28  and  C_29
REMARK   16  A    between atoms: C_34  and  N_37
REMARK                            x       y       z     vdW  Elec       q    Type
REMARK                         _______ _______ _______ _____ _____    ______ ____
ROOT
ATOM      1  CA  UNL     1     -37.372  20.082   0.102  0.00  0.00    +0.159 C 
ENDROOT
BRANCH   1   3
ATOM      2  O   UNL     1     -37.870  22.923   0.213  0.00  0.00    -0.275 OA
ATOM      3  N   UNL     1     -38.042  20.807   1.157  0.00  0.00    -0.298 N 
ATOM      4  C   UNL     1     -38.234  22.180   1.121  0.00  0.00    +0.223 C 
ATOM      5  H   UNL     1     -38.375  20.305   1.935  0.00  0.00    +0.150 HD
BRANCH   4   6
ATOM      6  C   UNL     1     -38.956  22.676   2.363  0.00  0.00    +0.083 C 
BRANCH   6   7
ATOM      7  C   UNL     1     -39.978  23.769   2.046  0.00  0.00    -0.001 C 
BRANCH   7   8
ATOM      8  CA  UNL     1     -39.587  25.134   2.621  0.00  0.00    +0.036 C 
BRANCH   8   9
ATOM      9  N   UNL     1     -38.877  24.947   3.889  0.00  0.00    +0.389 N 
ATOM     10  H1  UNL     1     -38.507  23.997   3.934  0.00  0.00    -0.088 HD
ATOM     11  H2  UNL     1     -39.522  25.098   4.665  0.00  0.00    -0.088 HD
ATOM     12  H3  UNL     1     -38.108  25.614   3.950  0.00  0.00    -0.088 HD
ENDBRANCH   8   9
BRANCH   8  14
ATOM     13  OXT UNL     1     -41.886  25.895   2.346  0.00  0.00    -0.253 OA
ATOM     14  C   UNL     1     -40.812  25.975   2.929  0.00  0.00    +0.293 C 
BRANCH  14  15
ATOM     15  O   UNL     1     -40.586  26.868   3.928  0.00  0.00    -0.482 OA
ATOM     16  H   UNL     1     -41.290  27.392   4.256  0.00  0.00    +0.295 HD
ENDBRANCH  14  15
ENDBRANCH   8  14
ENDBRANCH   7   8
ENDBRANCH   6   7
ENDBRANCH   4   6
ENDBRANCH   1   3
BRANCH   1  19
ATOM     17  O   UNL     1     -39.534  19.239  -0.608  0.00  0.00    -0.273 OA
ATOM     18  N   UNL     1     -37.686  17.844  -0.767  0.00  0.00    -0.294 N 
ATOM     19  C   ACE A   1     -38.330  19.037  -0.465  0.00  0.00    +0.242 C 
ATOM     20  H   UNL     1     -36.716  17.780  -0.616  0.00  0.00    +0.150 HD
BRANCH  18  21
ATOM     21  CA  UNL     1     -38.384  16.694  -1.293  0.00  0.00    +0.200 C 
BRANCH  21  23
ATOM     22  OXT UNL     1     -39.340  14.697  -0.347  0.00  0.00    -0.248 OA
ATOM     23  C   UNL     1     -38.468  15.557  -0.307  0.00  0.00    +0.334 C 
BRANCH  23  24
ATOM     24  O   UNL     1     -37.489  15.578   0.627  0.00  0.00    -0.479 OA
ATOM     25  H   UNL     1     -37.670  15.301   1.503  0.00  0.00    +0.295 HD
ENDBRANCH  23  24
ENDBRANCH  21  23
ENDBRANCH  18  21
ENDBRANCH   1  19
BRANCH   1  26
ATOM     26  CB  UNL     1     -36.032  19.497   0.555  0.00  0.00    +0.087 C 
BRANCH  26  27
ATOM     27  SG  UNL     1     -34.873  20.742   1.212  0.00  0.00    -0.133 S 
BRANCH  27  28
ATOM     28  C   UNL     1     -35.331  20.621   2.955  0.00  0.00    +0.084 C 
BRANCH  28  29
ATOM     29  C   UNL     1     -35.316  21.960   3.640  0.00  0.00    -0.011 C 
ATOM     30  C   UNL     1     -35.218  23.129   2.885  0.00  0.00    -0.002 C 
ATOM     31  C   UNL     1     -35.404  22.033   5.031  0.00  0.00    -0.002 C 
ATOM     32  C   UNL     1     -35.206  24.371   3.520  0.00  0.00    +0.024 C 
ATOM     33  C   UNL     1     -35.392  23.275   5.666  0.00  0.00    +0.024 C 
ATOM     34  C   UNL     1     -35.294  24.444   4.911  0.00  0.00    +0.143 C 
BRANCH  34  37
ATOM     35  O   UNL     1     -36.312  26.424   5.509  0.00  0.00    -0.126 OA
ATOM     36  O   UNL     1     -34.245  26.074   6.159  0.00  0.00    -0.126 OA
ATOM     37  N   UNL     1     -35.283  25.707   5.557  0.00  0.00    +0.058 N 
ENDBRANCH  34  37
ENDBRANCH  28  29
ENDBRANCH  27  28
ENDBRANCH  26  27
ENDBRANCH   1  26
TORSDOF 16
ENDMDL
