MODEL 1
REMARK VINA RESULT:      -5.8      0.000      0.000
REMARK  Name = 191812
REMARK  3 active torsions:
REMARK  status: ('A' for Active; 'I' for Inactive)
REMARK    1  A    between atoms: N_2  and  C_12
REMARK    2  A    between atoms: C_3  and  C_7
REMARK    3  A    between atoms: C_17  and  N_20
REMARK                            x       y       z     vdW  Elec       q    Type
REMARK                         _______ _______ _______ _____ _____    ______ ____
ROOT
ATOM      1  O   UNL     1     -32.193  26.759   7.118  0.00  0.00    -0.273 OA
ATOM      2  N   UNL     1     -33.355  27.445   5.190  0.00  0.00    -0.283 N 
ATOM      3  C   UNL     1     -32.488  27.590   6.266  0.00  0.00    +0.244 C 
ATOM      4  H   UNL     1     -33.464  28.231   4.608  0.00  0.00    +0.155 HD
ENDROOT
BRANCH   3   7
ATOM      5  O   UNL     1     -28.396  28.719   6.749  0.00  0.00    -0.275 OA
ATOM      6  N   UNL     1     -30.706  28.879   7.098  0.00  0.00    -0.298 N 
ATOM      7  C   UNL     1     -31.893  28.962   6.297  0.00  0.00    +0.149 C 
ATOM      8  C   UNL     1     -31.384  29.411   4.940  0.00  0.00    +0.039 C 
ATOM      9  C   UNL     1     -29.947  28.895   4.887  0.00  0.00    +0.087 C 
ATOM     10  C   UNL     1     -29.541  28.831   6.339  0.00  0.00    +0.223 C 
ATOM     11  H   UNL     1     -30.714  28.859   8.082  0.00  0.00    +0.150 HD
ENDBRANCH   3   7
BRANCH   2  12
ATOM     12  C   UNL     1     -34.102  26.296   4.836  0.00  0.00    +0.050 C 
ATOM     13  C   UNL     1     -35.167  25.907   5.632  0.00  0.00    +0.016 C 
ATOM     14  C   UNL     1     -33.753  25.585   3.699  0.00  0.00    +0.016 C 
ATOM     15  C   UNL     1     -35.902  24.775   5.281  0.00  0.00    +0.025 C 
ATOM     16  C   UNL     1     -34.489  24.453   3.349  0.00  0.00    +0.025 C 
ATOM     17  C   UNL     1     -35.564  24.048   4.140  0.00  0.00    +0.143 C 
BRANCH  17  20
ATOM     18  O   UNL     1     -35.751  21.774   3.805  0.00  0.00    -0.126 OA
ATOM     19  O   UNL     1     -37.516  23.032   3.457  0.00  0.00    -0.126 OA
ATOM     20  N   UNL     1     -36.313  22.897   3.783  0.00  0.00    +0.058 N 
ENDBRANCH  17  20
ENDBRANCH   2  12
TORSDOF 3
ENDMDL
MODEL 2
REMARK VINA RESULT:      -5.7      5.862      8.443
REMARK  Name = 191812
REMARK  3 active torsions:
REMARK  status: ('A' for Active; 'I' for Inactive)
REMARK    1  A    between atoms: N_2  and  C_12
REMARK    2  A    between atoms: C_3  and  C_7
REMARK    3  A    between atoms: C_17  and  N_20
REMARK                            x       y       z     vdW  Elec       q    Type
REMARK                         _______ _______ _______ _____ _____    ______ ____
ROOT
ATOM      1  O   UNL     1     -35.221  20.612   3.523  0.00  0.00    -0.273 OA
ATOM      2  N   UNL     1     -34.858  20.811   1.206  0.00  0.00    -0.283 N 
ATOM      3  C   UNL     1     -35.528  21.016   2.406  0.00  0.00    +0.244 C 
ATOM      4  H   UNL     1     -35.262  21.220   0.406  0.00  0.00    +0.155 HD
ENDROOT
BRANCH   3   7
ATOM      5  O   UNL     1     -36.880  24.393   4.647  0.00  0.00    -0.275 OA
ATOM      6  N   UNL     1     -37.116  22.373   3.487  0.00  0.00    -0.298 N 
ATOM      7  C   UNL     1     -36.757  21.843   2.202  0.00  0.00    +0.149 C 
ATOM      8  C   UNL     1     -36.501  23.078   1.360  0.00  0.00    +0.039 C 
ATOM      9  C   UNL     1     -36.071  24.141   2.370  0.00  0.00    +0.087 C 
ATOM     10  C   UNL     1     -36.739  23.702   3.650  0.00  0.00    +0.223 C 
ATOM     11  H   UNL     1     -37.580  21.850   4.180  0.00  0.00    +0.150 HD
ENDBRANCH   3   7
BRANCH   2  12
ATOM     12  C   UNL     1     -33.663  20.082   1.001  0.00  0.00    +0.050 C 
ATOM     13  C   UNL     1     -33.531  18.825   1.568  0.00  0.00    +0.016 C 
ATOM     14  C   UNL     1     -32.651  20.639   0.237  0.00  0.00    +0.016 C 
ATOM     15  C   UNL     1     -32.354  18.106   1.365  0.00  0.00    +0.025 C 
ATOM     16  C   UNL     1     -31.474  19.920   0.035  0.00  0.00    +0.025 C 
ATOM     17  C   UNL     1     -31.324  18.653   0.598  0.00  0.00    +0.143 C 
BRANCH  17  20
ATOM     18  O   UNL     1     -29.142  18.500  -0.131  0.00  0.00    -0.126 OA
ATOM     19  O   UNL     1     -30.083  16.716   0.736  0.00  0.00    -0.126 OA
ATOM     20  N   UNL     1     -30.126  17.921   0.391  0.00  0.00    +0.058 N 
ENDBRANCH  17  20
ENDBRANCH   2  12
TORSDOF 3
ENDMDL
MODEL 3
REMARK VINA RESULT:      -5.7      2.860      8.275
REMARK  Name = 191812
REMARK  3 active torsions:
REMARK  status: ('A' for Active; 'I' for Inactive)
REMARK    1  A    between atoms: N_2  and  C_12
REMARK    2  A    between atoms: C_3  and  C_7
REMARK    3  A    between atoms: C_17  and  N_20
REMARK                            x       y       z     vdW  Elec       q    Type
REMARK                         _______ _______ _______ _____ _____    ______ ____
ROOT
ATOM      1  O   UNL     1     -37.908  23.236   3.272  0.00  0.00    -0.273 OA
ATOM      2  N   UNL     1     -35.619  22.818   2.920  0.00  0.00    -0.283 N 
ATOM      3  C   UNL     1     -36.981  22.563   2.832  0.00  0.00    +0.244 C 
ATOM      4  H   UNL     1     -35.023  22.155   2.501  0.00  0.00    +0.155 HD
ENDROOT
BRANCH   3   7
ATOM      5  O   UNL     1     -40.612  21.227   1.020  0.00  0.00    -0.275 OA
ATOM      6  N   UNL     1     -38.639  20.996   2.259  0.00  0.00    -0.298 N 
ATOM      7  C   UNL     1     -37.245  21.291   2.091  0.00  0.00    +0.149 C 
ATOM      8  C   UNL     1     -37.085  21.442   0.590  0.00  0.00    +0.039 C 
ATOM      9  C   UNL     1     -38.463  21.894   0.108  0.00  0.00    +0.087 C 
ATOM     10  C   UNL     1     -39.402  21.329   1.145  0.00  0.00    +0.223 C 
ATOM     11  H   UNL     1     -39.017  20.600   3.077  0.00  0.00    +0.150 HD
ENDBRANCH   3   7
BRANCH   2  12
ATOM     12  C   UNL     1     -34.988  23.920   3.544  0.00  0.00    +0.050 C 
ATOM     13  C   UNL     1     -35.021  24.026   4.925  0.00  0.00    +0.016 C 
ATOM     14  C   UNL     1     -34.349  24.869   2.762  0.00  0.00    +0.016 C 
ATOM     15  C   UNL     1     -34.398  25.112   5.540  0.00  0.00    +0.025 C 
ATOM     16  C   UNL     1     -33.727  25.954   3.378  0.00  0.00    +0.025 C 
ATOM     17  C   UNL     1     -33.751  26.076   4.767  0.00  0.00    +0.143 C 
BRANCH  17  20
ATOM     18  O   UNL     1     -32.594  27.021   6.524  0.00  0.00    -0.126 OA
ATOM     19  O   UNL     1     -33.095  28.286   4.801  0.00  0.00    -0.126 OA
ATOM     20  N   UNL     1     -33.117  27.181   5.393  0.00  0.00    +0.058 N 
ENDBRANCH  17  20
ENDBRANCH   2  12
TORSDOF 3
ENDMDL
MODEL 4
REMARK VINA RESULT:      -5.7      1.951      7.151
REMARK  Name = 191812
REMARK  3 active torsions:
REMARK  status: ('A' for Active; 'I' for Inactive)
REMARK    1  A    between atoms: N_2  and  C_12
REMARK    2  A    between atoms: C_3  and  C_7
REMARK    3  A    between atoms: C_17  and  N_20
REMARK                            x       y       z     vdW  Elec       q    Type
REMARK                         _______ _______ _______ _____ _____    ______ ____
ROOT
ATOM      1  O   UNL     1     -34.104  24.357   3.593  0.00  0.00    -0.273 OA
ATOM      2  N   UNL     1     -34.593  25.533   5.572  0.00  0.00    -0.283 N 
ATOM      3  C   UNL     1     -34.748  24.531   4.623  0.00  0.00    +0.244 C 
ATOM      4  H   UNL     1     -35.210  25.506   6.339  0.00  0.00    +0.155 HD
ENDROOT
BRANCH   3   7
ATOM      5  O   UNL     1     -35.393  20.496   3.375  0.00  0.00    -0.275 OA
ATOM      6  N   UNL     1     -36.021  22.690   3.899  0.00  0.00    -0.298 N 
ATOM      7  C   UNL     1     -35.859  23.602   4.995  0.00  0.00    +0.149 C 
ATOM      8  C   UNL     1     -35.507  22.704   6.165  0.00  0.00    +0.039 C 
ATOM      9  C   UNL     1     -34.839  21.490   5.521  0.00  0.00    +0.087 C 
ATOM     10  C   UNL     1     -35.444  21.447   4.139  0.00  0.00    +0.223 C 
ATOM     11  H   UNL     1     -36.489  22.919   3.065  0.00  0.00    +0.150 HD
ENDBRANCH   3   7
BRANCH   2  12
ATOM     12  C   UNL     1     -33.652  26.589   5.564  0.00  0.00    +0.050 C 
ATOM     13  C   UNL     1     -32.999  26.925   6.739  0.00  0.00    +0.016 C 
ATOM     14  C   UNL     1     -33.400  27.264   4.381  0.00  0.00    +0.016 C 
ATOM     15  C   UNL     1     -32.071  27.965   6.730  0.00  0.00    +0.025 C 
ATOM     16  C   UNL     1     -32.472  28.305   4.373  0.00  0.00    +0.025 C 
ATOM     17  C   UNL     1     -31.807  28.656   5.547  0.00  0.00    +0.143 C 
BRANCH  17  20
ATOM     18  O   UNL     1     -31.274  30.899   5.597  0.00  0.00    -0.126 OA
ATOM     19  O   UNL     1     -29.640  29.438   5.473  0.00  0.00    -0.126 OA
ATOM     20  N   UNL     1     -30.861  29.714   5.538  0.00  0.00    +0.058 N 
ENDBRANCH  17  20
ENDBRANCH   2  12
TORSDOF 3
ENDMDL
MODEL 5
REMARK VINA RESULT:      -5.6      5.617      8.479
REMARK  Name = 191812
REMARK  3 active torsions:
REMARK  status: ('A' for Active; 'I' for Inactive)
REMARK    1  A    between atoms: N_2  and  C_12
REMARK    2  A    between atoms: C_3  and  C_7
REMARK    3  A    between atoms: C_17  and  N_20
REMARK                            x       y       z     vdW  Elec       q    Type
REMARK                         _______ _______ _______ _____ _____    ______ ____
ROOT
ATOM      1  O   UNL     1     -35.336  20.415   3.608  0.00  0.00    -0.273 OA
ATOM      2  N   UNL     1     -35.245  20.506   1.259  0.00  0.00    -0.283 N 
ATOM      3  C   UNL     1     -35.573  20.954   2.532  0.00  0.00    +0.244 C 
ATOM      4  H   UNL     1     -35.521  21.081   0.509  0.00  0.00    +0.155 HD
ENDROOT
BRANCH   3   7
ATOM      5  O   UNL     1     -36.084  23.869   5.613  0.00  0.00    -0.275 OA
ATOM      6  N   UNL     1     -36.753  22.540   3.805  0.00  0.00    -0.298 N 
ATOM      7  C   UNL     1     -36.298  22.260   2.473  0.00  0.00    +0.149 C 
ATOM      8  C   UNL     1     -35.383  23.426   2.151  0.00  0.00    +0.039 C 
ATOM      9  C   UNL     1     -34.864  23.886   3.512  0.00  0.00    +0.087 C 
ATOM     10  C   UNL     1     -35.959  23.473   4.465  0.00  0.00    +0.223 C 
ATOM     11  H   UNL     1     -37.544  22.117   4.210  0.00  0.00    +0.150 HD
ENDBRANCH   3   7
BRANCH   2  12
ATOM     12  C   UNL     1     -34.561  19.316   0.914  0.00  0.00    +0.050 C 
ATOM     13  C   UNL     1     -33.290  19.095   1.419  0.00  0.00    +0.016 C 
ATOM     14  C   UNL     1     -35.177  18.396   0.081  0.00  0.00    +0.016 C 
ATOM     15  C   UNL     1     -32.616  17.922   1.079  0.00  0.00    +0.025 C 
ATOM     16  C   UNL     1     -34.503  17.223  -0.257  0.00  0.00    +0.025 C 
ATOM     17  C   UNL     1     -33.223  16.986   0.241  0.00  0.00    +0.143 C 
BRANCH  17  20
ATOM     18  O   UNL     1     -31.404  15.575   0.394  0.00  0.00    -0.126 OA
ATOM     19  O   UNL     1     -33.082  14.984  -0.893  0.00  0.00    -0.126 OA
ATOM     20  N   UNL     1     -32.537  15.791  -0.103  0.00  0.00    +0.058 N 
ENDBRANCH  17  20
ENDBRANCH   2  12
TORSDOF 3
ENDMDL
MODEL 6
REMARK VINA RESULT:      -5.5      3.272      7.792
REMARK  Name = 191812
REMARK  3 active torsions:
REMARK  status: ('A' for Active; 'I' for Inactive)
REMARK    1  A    between atoms: N_2  and  C_12
REMARK    2  A    between atoms: C_3  and  C_7
REMARK    3  A    between atoms: C_17  and  N_20
REMARK                            x       y       z     vdW  Elec       q    Type
REMARK                         _______ _______ _______ _____ _____    ______ ____
ROOT
ATOM      1  O   UNL     1     -37.266  24.163   2.047  0.00  0.00    -0.273 OA
ATOM      2  N   UNL     1     -37.579  25.227   4.122  0.00  0.00    -0.283 N 
ATOM      3  C   UNL     1     -37.960  24.503   2.999  0.00  0.00    +0.244 C 
ATOM      4  H   UNL     1     -38.283  25.403   4.787  0.00  0.00    +0.155 HD
ENDROOT
BRANCH   3   7
ATOM      5  O   UNL     1     -41.330  27.046   3.653  0.00  0.00    -0.275 OA
ATOM      6  N   UNL     1     -40.044  25.106   3.908  0.00  0.00    -0.298 N 
ATOM      7  C   UNL     1     -39.409  24.139   3.059  0.00  0.00    +0.149 C 
ATOM      8  C   UNL     1     -40.113  24.312   1.726  0.00  0.00    +0.039 C 
ATOM      9  C   UNL     1     -40.578  25.767   1.730  0.00  0.00    +0.087 C 
ATOM     10  C   UNL     1     -40.734  26.083   3.198  0.00  0.00    +0.223 C 
ATOM     11  H   UNL     1     -39.995  25.082   4.891  0.00  0.00    +0.150 HD
ENDBRANCH   3   7
BRANCH   2  12
ATOM     12  C   UNL     1     -36.296  25.743   4.419  0.00  0.00    +0.050 C 
ATOM     13  C   UNL     1     -35.670  26.573   3.503  0.00  0.00    +0.016 C 
ATOM     14  C   UNL     1     -35.691  25.409   5.620  0.00  0.00    +0.016 C 
ATOM     15  C   UNL     1     -34.406  27.082   3.796  0.00  0.00    +0.025 C 
ATOM     16  C   UNL     1     -34.426  25.918   5.912  0.00  0.00    +0.025 C 
ATOM     17  C   UNL     1     -33.783  26.755   5.000  0.00  0.00    +0.143 C 
BRANCH  17  20
ATOM     18  O   UNL     1     -31.744  27.618   4.354  0.00  0.00    -0.126 OA
ATOM     19  O   UNL     1     -32.145  27.375   6.498  0.00  0.00    -0.126 OA
ATOM     20  N   UNL     1     -32.496  27.274   5.299  0.00  0.00    +0.058 N 
ENDBRANCH  17  20
ENDBRANCH   2  12
TORSDOF 3
ENDMDL
MODEL 7
REMARK VINA RESULT:      -5.5      5.082      7.671
REMARK  Name = 191812
REMARK  3 active torsions:
REMARK  status: ('A' for Active; 'I' for Inactive)
REMARK    1  A    between atoms: N_2  and  C_12
REMARK    2  A    between atoms: C_3  and  C_7
REMARK    3  A    between atoms: C_17  and  N_20
REMARK                            x       y       z     vdW  Elec       q    Type
REMARK                         _______ _______ _______ _____ _____    ______ ____
ROOT
ATOM      1  O   UNL     1     -34.806  23.068   1.643  0.00  0.00    -0.273 OA
ATOM      2  N   UNL     1     -35.885  21.154   2.485  0.00  0.00    -0.283 N 
ATOM      3  C   UNL     1     -35.570  22.506   2.420  0.00  0.00    +0.244 C 
ATOM      4  H   UNL     1     -36.527  20.889   3.183  0.00  0.00    +0.155 HD
ENDROOT
BRANCH   3   7
ATOM      5  O   UNL     1     -35.283  22.203   6.672  0.00  0.00    -0.275 OA
ATOM      6  N   UNL     1     -36.391  22.438   4.623  0.00  0.00    -0.298 N 
ATOM      7  C   UNL     1     -36.306  23.281   3.466  0.00  0.00    +0.149 C 
ATOM      8  C   UNL     1     -35.530  24.490   3.955  0.00  0.00    +0.039 C 
ATOM      9  C   UNL     1     -34.673  23.950   5.098  0.00  0.00    +0.087 C 
ATOM     10  C   UNL     1     -35.464  22.770   5.606  0.00  0.00    +0.223 C 
ATOM     11  H   UNL     1     -37.037  21.700   4.713  0.00  0.00    +0.150 HD
ENDBRANCH   3   7
BRANCH   2  12
ATOM     12  C   UNL     1     -35.389  20.114   1.664  0.00  0.00    +0.050 C 
ATOM     13  C   UNL     1     -36.213  19.563   0.695  0.00  0.00    +0.016 C 
ATOM     14  C   UNL     1     -34.090  19.669   1.844  0.00  0.00    +0.016 C 
ATOM     15  C   UNL     1     -35.723  18.539  -0.114  0.00  0.00    +0.025 C 
ATOM     16  C   UNL     1     -33.601  18.644   1.034  0.00  0.00    +0.025 C 
ATOM     17  C   UNL     1     -34.417  18.079   0.055  0.00  0.00    +0.143 C 
BRANCH  17  20
ATOM     18  O   UNL     1     -33.917  17.194  -2.015  0.00  0.00    -0.126 OA
ATOM     19  O   UNL     1     -33.494  15.986  -0.231  0.00  0.00    -0.126 OA
ATOM     20  N   UNL     1     -33.919  17.036  -0.769  0.00  0.00    +0.058 N 
ENDBRANCH  17  20
ENDBRANCH   2  12
TORSDOF 3
ENDMDL
MODEL 8
REMARK VINA RESULT:      -5.4      2.080      2.272
REMARK  Name = 191812
REMARK  3 active torsions:
REMARK  status: ('A' for Active; 'I' for Inactive)
REMARK    1  A    between atoms: N_2  and  C_12
REMARK    2  A    between atoms: C_3  and  C_7
REMARK    3  A    between atoms: C_17  and  N_20
REMARK                            x       y       z     vdW  Elec       q    Type
REMARK                         _______ _______ _______ _____ _____    ______ ____
ROOT
ATOM      1  O   UNL     1     -31.427  27.211   3.412  0.00  0.00    -0.273 OA
ATOM      2  N   UNL     1     -33.662  27.573   4.051  0.00  0.00    -0.283 N 
ATOM      3  C   UNL     1     -32.389  27.939   3.634  0.00  0.00    +0.244 C 
ATOM      4  H   UNL     1     -34.308  28.306   4.176  0.00  0.00    +0.155 HD
ENDROOT
BRANCH   3   7
ATOM      5  O   UNL     1     -32.106  30.964   6.637  0.00  0.00    -0.275 OA
ATOM      6  N   UNL     1     -32.860  30.015   4.634  0.00  0.00    -0.298 N 
ATOM      7  C   UNL     1     -32.282  29.421   3.463  0.00  0.00    +0.149 C 
ATOM      8  C   UNL     1     -30.847  29.912   3.479  0.00  0.00    +0.039 C 
ATOM      9  C   UNL     1     -30.549  30.159   4.956  0.00  0.00    +0.087 C 
ATOM     10  C   UNL     1     -31.906  30.458   5.545  0.00  0.00    +0.223 C 
ATOM     11  H   UNL     1     -33.830  30.099   4.780  0.00  0.00    +0.150 HD
ENDBRANCH   3   7
BRANCH   2  12
ATOM     12  C   UNL     1     -34.139  26.268   4.317  0.00  0.00    +0.050 C 
ATOM     13  C   UNL     1     -34.478  25.922   5.616  0.00  0.00    +0.016 C 
ATOM     14  C   UNL     1     -34.259  25.363   3.275  0.00  0.00    +0.016 C 
ATOM     15  C   UNL     1     -34.948  24.636   5.878  0.00  0.00    +0.025 C 
ATOM     16  C   UNL     1     -34.730  24.077   3.538  0.00  0.00    +0.025 C 
ATOM     17  C   UNL     1     -35.074  23.713   4.840  0.00  0.00    +0.143 C 
BRANCH  17  20
ATOM     18  O   UNL     1     -35.494  21.537   4.201  0.00  0.00    -0.126 OA
ATOM     19  O   UNL     1     -36.024  22.149   6.241  0.00  0.00    -0.126 OA
ATOM     20  N   UNL     1     -35.554  22.404   5.107  0.00  0.00    +0.058 N 
ENDBRANCH  17  20
ENDBRANCH   2  12
TORSDOF 3
ENDMDL
MODEL 9
REMARK VINA RESULT:      -5.4      3.089      3.640
REMARK  Name = 191812
REMARK  3 active torsions:
REMARK  status: ('A' for Active; 'I' for Inactive)
REMARK    1  A    between atoms: N_2  and  C_12
REMARK    2  A    between atoms: C_3  and  C_7
REMARK    3  A    between atoms: C_17  and  N_20
REMARK                            x       y       z     vdW  Elec       q    Type
REMARK                         _______ _______ _______ _____ _____    ______ ____
ROOT
ATOM      1  O   UNL     1     -34.603  27.625   1.531  0.00  0.00    -0.273 OA
ATOM      2  N   UNL     1     -35.330  27.767   3.765  0.00  0.00    -0.283 N 
ATOM      3  C   UNL     1     -34.947  28.259   2.523  0.00  0.00    +0.244 C 
ATOM      4  H   UNL     1     -35.575  28.438   4.443  0.00  0.00    +0.155 HD
ENDROOT
BRANCH   3   7
ATOM      5  O   UNL     1     -32.319  31.056   4.402  0.00  0.00    -0.275 OA
ATOM      6  N   UNL     1     -34.392  30.209   3.716  0.00  0.00    -0.298 N 
ATOM      7  C   UNL     1     -34.997  29.754   2.497  0.00  0.00    +0.149 C 
ATOM      8  C   UNL     1     -34.120  30.352   1.413  0.00  0.00    +0.039 C 
ATOM      9  C   UNL     1     -32.753  30.506   2.076  0.00  0.00    +0.087 C 
ATOM     10  C   UNL     1     -33.085  30.653   3.540  0.00  0.00    +0.223 C 
ATOM     11  H   UNL     1     -34.852  30.207   4.586  0.00  0.00    +0.150 HD
ENDBRANCH   3   7
BRANCH   2  12
ATOM     12  C   UNL     1     -35.407  26.413   4.168  0.00  0.00    +0.050 C 
ATOM     13  C   UNL     1     -36.451  25.627   3.709  0.00  0.00    +0.016 C 
ATOM     14  C   UNL     1     -34.435  25.900   5.012  0.00  0.00    +0.016 C 
ATOM     15  C   UNL     1     -36.526  24.293   4.106  0.00  0.00    +0.025 C 
ATOM     16  C   UNL     1     -34.510  24.566   5.408  0.00  0.00    +0.025 C 
ATOM     17  C   UNL     1     -35.556  23.761   4.956  0.00  0.00    +0.143 C 
BRANCH  17  20
ATOM     18  O   UNL     1     -35.358  21.504   4.525  0.00  0.00    -0.126 OA
ATOM     19  O   UNL     1     -35.970  22.136   6.536  0.00  0.00    -0.126 OA
ATOM     20  N   UNL     1     -35.632  22.403   5.359  0.00  0.00    +0.058 N 
ENDBRANCH  17  20
ENDBRANCH   2  12
TORSDOF 3
ENDMDL
