MODEL 1
REMARK VINA RESULT:      -7.3      0.000      0.000
REMARK  Name = 194226
REMARK  7 active torsions:
REMARK  status: ('A' for Active; 'I' for Inactive)
REMARK    1  A    between atoms: N_1  and  C_24
REMARK    2  A    between atoms: C_7  and  C_8
REMARK    3  A    between atoms: C_25  and  O_29
REMARK    4  A    between atoms: C_26  and  O_31
REMARK    5  A    between atoms: C_27  and  O_33
REMARK    6  A    between atoms: C_28  and  C_36
REMARK    7  A    between atoms: C_36  and  O_37
REMARK                            x       y       z     vdW  Elec       q    Type
REMARK                         _______ _______ _______ _____ _____    ______ ____
ROOT
ATOM      1  N   UNL     1     -37.545  21.877   1.556  0.00  0.00    +0.408 N 
ATOM      2  C   UNL     1     -36.640  20.895   2.315  0.00  0.00    -0.069 C 
ATOM      3  C   UNL     1     -37.362  21.715   0.038  0.00  0.00    -0.069 C 
ATOM      4  C   UNL     1     -35.176  21.032   1.903  0.00  0.00    -0.018 C 
ATOM      5  C   UNL     1     -35.901  21.855  -0.379  0.00  0.00    -0.018 C 
ATOM      6  C   UNL     1     -39.003  21.544   1.898  0.00  0.00    -0.092 C 
ATOM      7  C   UNL     1     -35.025  20.924   0.412  0.00  0.00    +0.015 C 
ENDROOT
BRANCH   7   8
ATOM      8  C   UNL     1     -34.192  20.049  -0.168  0.00  0.00    -0.037 C 
ATOM      9  C   UNL     1     -34.657  18.658  -0.374  0.00  0.00    -0.007 C 
ATOM     10  C   UNL     1     -32.819  20.489  -0.500  0.00  0.00    +0.062 C 
ATOM     11  C   UNL     1     -33.935  17.564   0.142  0.00  0.00    -0.001 C 
ATOM     12  C   UNL     1     -31.693  19.798  -0.012  0.00  0.00    -0.015 C 
ATOM     13  C   UNL     1     -35.823  18.423  -1.127  0.00  0.00    -0.001 C 
ATOM     14  C   UNL     1     -32.634  21.600  -1.346  0.00  0.00    -0.018 C 
ATOM     15  C   UNL     1     -32.722  17.699   0.967  0.00  0.00    -0.000 C 
ATOM     16  C   UNL     1     -31.772  18.645   0.902  0.00  0.00    -0.004 C 
ATOM     17  C   UNL     1     -34.423  16.265  -0.077  0.00  0.00    -0.000 C 
ATOM     18  C   UNL     1     -30.410  20.261  -0.352  0.00  0.00    -0.004 C 
ATOM     19  C   UNL     1     -36.283  17.125  -1.345  0.00  0.00    -0.000 C 
ATOM     20  C   UNL     1     -31.354  22.036  -1.685  0.00  0.00    -0.004 C 
ATOM     21  C   UNL     1     -35.586  16.047  -0.817  0.00  0.00    -0.000 C 
ATOM     22  C   UNL     1     -30.241  21.369  -1.185  0.00  0.00    -0.001 C 
ENDBRANCH   7   8
BRANCH   1  24
ATOM     23  O   UNL     1     -36.884  23.415   3.343  0.00  0.00    -0.364 OA
ATOM     24  C   UNL     1     -37.299  23.286   1.986  0.00  0.00    +0.097 C 
ATOM     25  C   UNL     1     -38.588  24.088   1.742  0.00  0.00    +0.148 C 
ATOM     26  C   UNL     1     -38.743  25.260   2.725  0.00  0.00    +0.167 C 
ATOM     27  C   UNL     1     -37.395  25.825   3.183  0.00  0.00    +0.178 C 
ATOM     28  C   UNL     1     -36.409  24.733   3.621  0.00  0.00    +0.241 C 
BRANCH  25  29
ATOM     29  O   UNL     1     -38.541  24.584   0.403  0.00  0.00    -0.382 OA
ATOM     30  H   UNL     1     -39.424  24.521   0.006  0.00  0.00    +0.210 HD
ENDBRANCH  25  29
BRANCH  26  31
ATOM     31  O   UNL     1     -39.464  24.808   3.873  0.00  0.00    -0.379 OA
ATOM     32  H   UNL     1     -40.287  24.379   3.591  0.00  0.00    +0.211 HD
ENDBRANCH  26  31
BRANCH  27  33
ATOM     33  O   UNL     1     -36.808  26.580   2.120  0.00  0.00    -0.379 OA
ATOM     34  H   UNL     1     -37.165  27.481   2.130  0.00  0.00    +0.211 HD
ENDBRANCH  27  33
BRANCH  28  36
ATOM     35  O   UNL     1     -35.978  23.707   5.732  0.00  0.00    -0.247 OA
ATOM     36  C   UNL     1     -36.227  24.725   5.103  0.00  0.00    +0.344 C 
BRANCH  36  37
ATOM     37  O   UNL     1     -36.369  25.958   5.646  0.00  0.00    -0.478 OA
ATOM     38  H   UNL     1     -37.162  26.439   5.515  0.00  0.00    +0.295 HD
ENDBRANCH  36  37
ENDBRANCH  28  36
ENDBRANCH   1  24
TORSDOF 7
ENDMDL
MODEL 2
REMARK VINA RESULT:      -7.3      1.778      2.719
REMARK  Name = 194226
REMARK  7 active torsions:
REMARK  status: ('A' for Active; 'I' for Inactive)
REMARK    1  A    between atoms: N_1  and  C_24
REMARK    2  A    between atoms: C_7  and  C_8
REMARK    3  A    between atoms: C_25  and  O_29
REMARK    4  A    between atoms: C_26  and  O_31
REMARK    5  A    between atoms: C_27  and  O_33
REMARK    6  A    between atoms: C_28  and  C_36
REMARK    7  A    between atoms: C_36  and  O_37
REMARK                            x       y       z     vdW  Elec       q    Type
REMARK                         _______ _______ _______ _____ _____    ______ ____
ROOT
ATOM      1  N   UNL     1     -35.771  22.379   1.177  0.00  0.00    +0.408 N 
ATOM      2  C   UNL     1     -36.072  20.880   1.330  0.00  0.00    -0.069 C 
ATOM      3  C   UNL     1     -34.803  22.617   0.006  0.00  0.00    -0.069 C 
ATOM      4  C   UNL     1     -34.796  20.053   1.473  0.00  0.00    -0.018 C 
ATOM      5  C   UNL     1     -33.524  21.795   0.147  0.00  0.00    -0.018 C 
ATOM      6  C   UNL     1     -37.087  23.099   0.860  0.00  0.00    -0.092 C 
ATOM      7  C   UNL     1     -33.841  20.340   0.348  0.00  0.00    +0.015 C 
ENDROOT
BRANCH   7   8
ATOM      8  C   UNL     1     -33.330  19.374  -0.429  0.00  0.00    -0.037 C 
ATOM      9  C   UNL     1     -34.215  18.723  -1.423  0.00  0.00    -0.007 C 
ATOM     10  C   UNL     1     -31.931  18.948  -0.204  0.00  0.00    +0.062 C 
ATOM     11  C   UNL     1     -34.398  17.327  -1.429  0.00  0.00    -0.001 C 
ATOM     12  C   UNL     1     -31.613  17.601   0.055  0.00  0.00    -0.015 C 
ATOM     13  C   UNL     1     -34.857  19.510  -2.397  0.00  0.00    -0.001 C 
ATOM     14  C   UNL     1     -30.896  19.900  -0.285  0.00  0.00    -0.018 C 
ATOM     15  C   UNL     1     -33.797  16.417  -0.439  0.00  0.00    -0.000 C 
ATOM     16  C   UNL     1     -32.618  16.533   0.191  0.00  0.00    -0.004 C 
ATOM     17  C   UNL     1     -35.253  16.759  -2.390  0.00  0.00    -0.000 C 
ATOM     18  C   UNL     1     -30.268  17.249   0.269  0.00  0.00    -0.004 C 
ATOM     19  C   UNL     1     -35.691  18.925  -3.350  0.00  0.00    -0.000 C 
ATOM     20  C   UNL     1     -29.567  19.529  -0.085  0.00  0.00    -0.004 C 
ATOM     21  C   UNL     1     -35.891  17.551  -3.344  0.00  0.00    -0.000 C 
ATOM     22  C   UNL     1     -29.253  18.204   0.195  0.00  0.00    -0.001 C 
ENDBRANCH   7   8
BRANCH   1  24
ATOM     23  O   UNL     1     -35.545  22.190   3.608  0.00  0.00    -0.364 OA
ATOM     24  C   UNL     1     -35.241  22.959   2.447  0.00  0.00    +0.097 C 
ATOM     25  C   UNL     1     -35.802  24.384   2.587  0.00  0.00    +0.148 C 
ATOM     26  C   UNL     1     -35.952  24.813   4.056  0.00  0.00    +0.167 C 
ATOM     27  C   UNL     1     -34.915  24.151   4.970  0.00  0.00    +0.178 C 
ATOM     28  C   UNL     1     -34.799  22.637   4.740  0.00  0.00    +0.241 C 
BRANCH  25  29
ATOM     29  O   UNL     1     -34.905  25.269   1.914  0.00  0.00    -0.382 OA
ATOM     30  H   UNL     1     -34.663  25.996   2.510  0.00  0.00    +0.210 HD
ENDBRANCH  25  29
BRANCH  26  31
ATOM     31  O   UNL     1     -37.258  24.454   4.512  0.00  0.00    -0.379 OA
ATOM     32  H   UNL     1     -37.414  24.846   5.386  0.00  0.00    +0.211 HD
ENDBRANCH  26  31
BRANCH  27  33
ATOM     33  O   UNL     1     -33.636  24.751   4.753  0.00  0.00    -0.379 OA
ATOM     34  H   UNL     1     -33.098  24.172   4.192  0.00  0.00    +0.211 HD
ENDBRANCH  27  33
BRANCH  28  36
ATOM     35  O   UNL     1     -36.041  22.400   6.764  0.00  0.00    -0.247 OA
ATOM     36  C   UNL     1     -35.399  21.867   5.870  0.00  0.00    +0.344 C 
BRANCH  36  37
ATOM     37  O   UNL     1     -35.150  20.539   5.780  0.00  0.00    -0.478 OA
ATOM     38  H   UNL     1     -34.618  20.117   6.427  0.00  0.00    +0.295 HD
ENDBRANCH  36  37
ENDBRANCH  28  36
ENDBRANCH   1  24
TORSDOF 7
ENDMDL
MODEL 3
REMARK VINA RESULT:      -7.2      4.827      7.670
REMARK  Name = 194226
REMARK  7 active torsions:
REMARK  status: ('A' for Active; 'I' for Inactive)
REMARK    1  A    between atoms: N_1  and  C_24
REMARK    2  A    between atoms: C_7  and  C_8
REMARK    3  A    between atoms: C_25  and  O_29
REMARK    4  A    between atoms: C_26  and  O_31
REMARK    5  A    between atoms: C_27  and  O_33
REMARK    6  A    between atoms: C_28  and  C_36
REMARK    7  A    between atoms: C_36  and  O_37
REMARK                            x       y       z     vdW  Elec       q    Type
REMARK                         _______ _______ _______ _____ _____    ______ ____
ROOT
ATOM      1  N   UNL     1     -33.441  28.040   2.490  0.00  0.00    +0.408 N 
ATOM      2  C   UNL     1     -34.748  28.073   3.298  0.00  0.00    -0.069 C 
ATOM      3  C   UNL     1     -33.365  26.759   1.643  0.00  0.00    -0.069 C 
ATOM      4  C   UNL     1     -34.924  26.818   4.150  0.00  0.00    -0.018 C 
ATOM      5  C   UNL     1     -33.537  25.502   2.492  0.00  0.00    -0.018 C 
ATOM      6  C   UNL     1     -33.440  29.241   1.537  0.00  0.00    -0.092 C 
ATOM      7  C   UNL     1     -34.792  25.577   3.314  0.00  0.00    +0.015 C 
ENDROOT
BRANCH   7   8
ATOM      8  C   UNL     1     -35.733  24.622   3.285  0.00  0.00    -0.037 C 
ATOM      9  C   UNL     1     -35.557  23.429   4.144  0.00  0.00    -0.007 C 
ATOM     10  C   UNL     1     -36.861  24.766   2.338  0.00  0.00    +0.062 C 
ATOM     11  C   UNL     1     -35.563  22.131   3.597  0.00  0.00    -0.001 C 
ATOM     12  C   UNL     1     -37.154  23.762   1.396  0.00  0.00    -0.015 C 
ATOM     13  C   UNL     1     -35.414  23.592   5.534  0.00  0.00    -0.001 C 
ATOM     14  C   UNL     1     -37.677  25.912   2.403  0.00  0.00    -0.018 C 
ATOM     15  C   UNL     1     -35.675  21.849   2.155  0.00  0.00    -0.000 C 
ATOM     16  C   UNL     1     -36.349  22.541   1.223  0.00  0.00    -0.004 C 
ATOM     17  C   UNL     1     -35.386  21.032   4.455  0.00  0.00    -0.000 C 
ATOM     18  C   UNL     1     -38.233  23.950   0.514  0.00  0.00    -0.004 C 
ATOM     19  C   UNL     1     -35.254  22.488   6.371  0.00  0.00    -0.000 C 
ATOM     20  C   UNL     1     -38.753  26.074   1.531  0.00  0.00    -0.004 C 
ATOM     21  C   UNL     1     -35.236  21.209   5.831  0.00  0.00    -0.000 C 
ATOM     22  C   UNL     1     -39.029  25.095   0.584  0.00  0.00    -0.001 C 
ENDBRANCH   7   8
BRANCH   1  24
ATOM     23  O   UNL     1     -32.485  28.951   4.551  0.00  0.00    -0.364 OA
ATOM     24  C   UNL     1     -32.249  28.176   3.379  0.00  0.00    +0.097 C 
ATOM     25  C   UNL     1     -31.108  28.790   2.551  0.00  0.00    +0.148 C 
ATOM     26  C   UNL     1     -30.138  29.616   3.413  0.00  0.00    +0.167 C 
ATOM     27  C   UNL     1     -30.038  29.091   4.849  0.00  0.00    +0.178 C 
ATOM     28  C   UNL     1     -31.410  28.826   5.484  0.00  0.00    +0.241 C 
BRANCH  25  29
ATOM     29  O   UNL     1     -30.405  27.719   1.922  0.00  0.00    -0.382 OA
ATOM     30  H   UNL     1     -29.673  28.079   1.397  0.00  0.00    +0.210 HD
ENDBRANCH  25  29
BRANCH  26  31
ATOM     31  O   UNL     1     -30.591  30.970   3.451  0.00  0.00    -0.379 OA
ATOM     32  H   UNL     1     -30.197  31.422   4.215  0.00  0.00    +0.211 HD
ENDBRANCH  26  31
BRANCH  27  33
ATOM     33  O   UNL     1     -29.280  27.880   4.863  0.00  0.00    -0.379 OA
ATOM     34  H   UNL     1     -29.838  27.153   5.180  0.00  0.00    +0.211 HD
ENDBRANCH  27  33
BRANCH  28  36
ATOM     35  O   UNL     1     -32.136  30.971   6.239  0.00  0.00    -0.247 OA
ATOM     36  C   UNL     1     -31.738  29.850   6.520  0.00  0.00    +0.344 C 
BRANCH  36  37
ATOM     37  O   UNL     1     -31.542  29.390   7.780  0.00  0.00    -0.478 OA
ATOM     38  H   UNL     1     -31.988  28.619   8.071  0.00  0.00    +0.295 HD
ENDBRANCH  36  37
ENDBRANCH  28  36
ENDBRANCH   1  24
TORSDOF 7
ENDMDL
MODEL 4
REMARK VINA RESULT:      -7.2      3.636      5.914
REMARK  Name = 194226
REMARK  7 active torsions:
REMARK  status: ('A' for Active; 'I' for Inactive)
REMARK    1  A    between atoms: N_1  and  C_24
REMARK    2  A    between atoms: C_7  and  C_8
REMARK    3  A    between atoms: C_25  and  O_29
REMARK    4  A    between atoms: C_26  and  O_31
REMARK    5  A    between atoms: C_27  and  O_33
REMARK    6  A    between atoms: C_28  and  C_36
REMARK    7  A    between atoms: C_36  and  O_37
REMARK                            x       y       z     vdW  Elec       q    Type
REMARK                         _______ _______ _______ _____ _____    ______ ____
ROOT
ATOM      1  N   UNL     1     -40.077  24.638   1.202  0.00  0.00    +0.408 N 
ATOM      2  C   UNL     1     -39.804  24.055   2.597  0.00  0.00    -0.069 C 
ATOM      3  C   UNL     1     -38.799  24.607   0.347  0.00  0.00    -0.069 C 
ATOM      4  C   UNL     1     -38.640  24.757   3.292  0.00  0.00    -0.018 C 
ATOM      5  C   UNL     1     -37.634  25.312   1.036  0.00  0.00    -0.018 C 
ATOM      6  C   UNL     1     -41.130  23.760   0.516  0.00  0.00    -0.092 C 
ATOM      7  C   UNL     1     -37.417  24.763   2.418  0.00  0.00    +0.015 C 
ENDROOT
BRANCH   7   8
ATOM      8  C   UNL     1     -36.231  24.294   2.833  0.00  0.00    -0.037 C 
ATOM      9  C   UNL     1     -35.894  22.879   2.554  0.00  0.00    -0.007 C 
ATOM     10  C   UNL     1     -35.351  25.187   3.619  0.00  0.00    +0.062 C 
ATOM     11  C   UNL     1     -35.543  21.996   3.595  0.00  0.00    -0.001 C 
ATOM     12  C   UNL     1     -34.881  24.810   4.892  0.00  0.00    -0.015 C 
ATOM     13  C   UNL     1     -35.890  22.418   1.225  0.00  0.00    -0.001 C 
ATOM     14  C   UNL     1     -34.947  26.420   3.071  0.00  0.00    -0.018 C 
ATOM     15  C   UNL     1     -35.544  22.368   5.020  0.00  0.00    -0.000 C 
ATOM     16  C   UNL     1     -35.264  23.560   5.570  0.00  0.00    -0.004 C 
ATOM     17  C   UNL     1     -35.237  20.662   3.277  0.00  0.00    -0.000 C 
ATOM     18  C   UNL     1     -34.052  25.697   5.601  0.00  0.00    -0.004 C 
ATOM     19  C   UNL     1     -35.569  21.093   0.930  0.00  0.00    -0.000 C 
ATOM     20  C   UNL     1     -34.112  27.279   3.782  0.00  0.00    -0.004 C 
ATOM     21  C   UNL     1     -35.247  20.215   1.956  0.00  0.00    -0.000 C 
ATOM     22  C   UNL     1     -33.667  26.920   5.049  0.00  0.00    -0.001 C 
ENDBRANCH   7   8
BRANCH   1  24
ATOM     23  O   UNL     1     -41.308  26.296   2.518  0.00  0.00    -0.364 OA
ATOM     24  C   UNL     1     -40.638  26.019   1.290  0.00  0.00    +0.097 C 
ATOM     25  C   UNL     1     -41.594  26.219   0.103  0.00  0.00    +0.148 C 
ATOM     26  C   UNL     1     -42.724  27.213   0.421  0.00  0.00    +0.167 C 
ATOM     27  C   UNL     1     -42.298  28.281   1.434  0.00  0.00    +0.178 C 
ATOM     28  C   UNL     1     -41.585  27.690   2.658  0.00  0.00    +0.241 C 
BRANCH  25  29
ATOM     29  O   UNL     1     -40.821  26.701  -0.997  0.00  0.00    -0.382 OA
ATOM     30  H   UNL     1     -41.417  27.032  -1.689  0.00  0.00    +0.210 HD
ENDBRANCH  25  29
BRANCH  26  31
ATOM     31  O   UNL     1     -43.836  26.494   0.955  0.00  0.00    -0.379 OA
ATOM     32  H   UNL     1     -43.986  25.692   0.428  0.00  0.00    +0.211 HD
ENDBRANCH  26  31
BRANCH  27  33
ATOM     33  O   UNL     1     -41.427  29.220   0.799  0.00  0.00    -0.379 OA
ATOM     34  H   UNL     1     -41.486  29.116  -0.163  0.00  0.00    +0.211 HD
ENDBRANCH  27  33
BRANCH  28  36
ATOM     35  O   UNL     1     -43.327  26.921   4.097  0.00  0.00    -0.247 OA
ATOM     36  C   UNL     1     -42.453  27.745   3.872  0.00  0.00    +0.344 C 
BRANCH  36  37
ATOM     37  O   UNL     1     -42.153  28.796   4.673  0.00  0.00    -0.478 OA
ATOM     38  H   UNL     1     -41.300  28.868   5.052  0.00  0.00    +0.295 HD
ENDBRANCH  36  37
ENDBRANCH  28  36
ENDBRANCH   1  24
TORSDOF 7
ENDMDL
MODEL 5
REMARK VINA RESULT:      -7.0      3.294      5.914
REMARK  Name = 194226
REMARK  7 active torsions:
REMARK  status: ('A' for Active; 'I' for Inactive)
REMARK    1  A    between atoms: N_1  and  C_24
REMARK    2  A    between atoms: C_7  and  C_8
REMARK    3  A    between atoms: C_25  and  O_29
REMARK    4  A    between atoms: C_26  and  O_31
REMARK    5  A    between atoms: C_27  and  O_33
REMARK    6  A    between atoms: C_28  and  C_36
REMARK    7  A    between atoms: C_36  and  O_37
REMARK                            x       y       z     vdW  Elec       q    Type
REMARK                         _______ _______ _______ _____ _____    ______ ____
ROOT
ATOM      1  N   UNL     1     -39.583  25.353   2.496  0.00  0.00    +0.408 N 
ATOM      2  C   UNL     1     -38.254  26.065   2.794  0.00  0.00    -0.069 C 
ATOM      3  C   UNL     1     -39.409  23.828   2.591  0.00  0.00    -0.069 C 
ATOM      4  C   UNL     1     -37.124  25.567   1.895  0.00  0.00    -0.018 C 
ATOM      5  C   UNL     1     -38.284  23.325   1.691  0.00  0.00    -0.018 C 
ATOM      6  C   UNL     1     -40.602  25.783   3.558  0.00  0.00    -0.092 C 
ATOM      7  C   UNL     1     -37.007  24.069   1.961  0.00  0.00    +0.015 C 
ENDROOT
BRANCH   7   8
ATOM      8  C   UNL     1     -35.857  23.448   2.260  0.00  0.00    -0.037 C 
ATOM      9  C   UNL     1     -34.900  23.165   1.167  0.00  0.00    -0.007 C 
ATOM     10  C   UNL     1     -35.634  23.002   3.654  0.00  0.00    +0.062 C 
ATOM     11  C   UNL     1     -34.446  21.855   0.917  0.00  0.00    -0.001 C 
ATOM     12  C   UNL     1     -35.341  21.657   3.950  0.00  0.00    -0.015 C 
ATOM     13  C   UNL     1     -34.409  24.227   0.385  0.00  0.00    -0.001 C 
ATOM     14  C   UNL     1     -35.682  23.945   4.698  0.00  0.00    -0.018 C 
ATOM     15  C   UNL     1     -34.917  20.670   1.655  0.00  0.00    -0.000 C 
ATOM     16  C   UNL     1     -35.297  20.586   2.939  0.00  0.00    -0.004 C 
ATOM     17  C   UNL     1     -33.542  21.640  -0.137  0.00  0.00    -0.000 C 
ATOM     18  C   UNL     1     -35.143  21.284   5.291  0.00  0.00    -0.004 C 
ATOM     19  C   UNL     1     -33.501  23.995  -0.648  0.00  0.00    -0.000 C 
ATOM     20  C   UNL     1     -35.468  23.559   6.021  0.00  0.00    -0.004 C 
ATOM     21  C   UNL     1     -33.070  22.701  -0.911  0.00  0.00    -0.000 C 
ATOM     22  C   UNL     1     -35.203  22.227   6.318  0.00  0.00    -0.001 C 
ENDBRANCH   7   8
BRANCH   1  24
ATOM     23  O   UNL     1     -39.928  27.132   0.849  0.00  0.00    -0.364 OA
ATOM     24  C   UNL     1     -40.129  25.757   1.166  0.00  0.00    +0.097 C 
ATOM     25  C   UNL     1     -41.628  25.417   1.146  0.00  0.00    +0.148 C 
ATOM     26  C   UNL     1     -42.430  26.356   0.230  0.00  0.00    +0.167 C 
ATOM     27  C   UNL     1     -41.601  26.876  -0.949  0.00  0.00    +0.178 C 
ATOM     28  C   UNL     1     -40.222  27.399  -0.523  0.00  0.00    +0.241 C 
BRANCH  25  29
ATOM     29  O   UNL     1     -41.759  24.070   0.690  0.00  0.00    -0.382 OA
ATOM     30  H   UNL     1     -42.111  23.520   1.408  0.00  0.00    +0.210 HD
ENDBRANCH  25  29
BRANCH  26  31
ATOM     31  O   UNL     1     -42.884  27.473   0.997  0.00  0.00    -0.379 OA
ATOM     32  H   UNL     1     -43.829  27.619   0.828  0.00  0.00    +0.211 HD
ENDBRANCH  26  31
BRANCH  27  33
ATOM     33  O   UNL     1     -41.423  25.828  -1.905  0.00  0.00    -0.379 OA
ATOM     34  H   UNL     1     -40.594  25.359  -1.719  0.00  0.00    +0.211 HD
ENDBRANCH  27  33
BRANCH  28  36
ATOM     35  O   UNL     1     -39.619  29.479  -1.527  0.00  0.00    -0.247 OA
ATOM     36  C   UNL     1     -40.158  28.889  -0.602  0.00  0.00    +0.344 C 
BRANCH  36  37
ATOM     37  O   UNL     1     -40.757  29.488   0.456  0.00  0.00    -0.478 OA
ATOM     38  H   UNL     1     -40.536  30.370   0.682  0.00  0.00    +0.295 HD
ENDBRANCH  36  37
ENDBRANCH  28  36
ENDBRANCH   1  24
TORSDOF 7
ENDMDL
MODEL 6
REMARK VINA RESULT:      -6.9      2.202      3.483
REMARK  Name = 194226
REMARK  7 active torsions:
REMARK  status: ('A' for Active; 'I' for Inactive)
REMARK    1  A    between atoms: N_1  and  C_24
REMARK    2  A    between atoms: C_7  and  C_8
REMARK    3  A    between atoms: C_25  and  O_29
REMARK    4  A    between atoms: C_26  and  O_31
REMARK    5  A    between atoms: C_27  and  O_33
REMARK    6  A    between atoms: C_28  and  C_36
REMARK    7  A    between atoms: C_36  and  O_37
REMARK                            x       y       z     vdW  Elec       q    Type
REMARK                         _______ _______ _______ _____ _____    ______ ____
ROOT
ATOM      1  N   UNL     1     -35.565  23.834   1.021  0.00  0.00    +0.408 N 
ATOM      2  C   UNL     1     -35.834  22.332   0.834  0.00  0.00    -0.069 C 
ATOM      3  C   UNL     1     -34.422  24.295   0.102  0.00  0.00    -0.069 C 
ATOM      4  C   UNL     1     -34.571  21.497   1.037  0.00  0.00    -0.018 C 
ATOM      5  C   UNL     1     -33.157  23.465   0.305  0.00  0.00    -0.018 C 
ATOM      6  C   UNL     1     -36.834  24.598   0.622  0.00  0.00    -0.092 C 
ATOM      7  C   UNL     1     -33.450  21.998   0.170  0.00  0.00    +0.015 C 
ENDROOT
BRANCH   7   8
ATOM      8  C   UNL     1     -32.781  21.201  -0.675  0.00  0.00    -0.037 C 
ATOM      9  C   UNL     1     -32.021  20.059  -0.118  0.00  0.00    -0.007 C 
ATOM     10  C   UNL     1     -32.765  21.546  -2.114  0.00  0.00    +0.062 C 
ATOM     11  C   UNL     1     -30.644  19.906  -0.375  0.00  0.00    -0.001 C 
ATOM     12  C   UNL     1     -31.553  21.719  -2.808  0.00  0.00    -0.015 C 
ATOM     13  C   UNL     1     -32.692  19.091   0.652  0.00  0.00    -0.001 C 
ATOM     14  C   UNL     1     -33.983  21.671  -2.809  0.00  0.00    -0.018 C 
ATOM     15  C   UNL     1     -29.841  20.873  -1.143  0.00  0.00    -0.000 C 
ATOM     16  C   UNL     1     -30.226  21.642  -2.173  0.00  0.00    -0.004 C 
ATOM     17  C   UNL     1     -29.968  18.807   0.182  0.00  0.00    -0.000 C 
ATOM     18  C   UNL     1     -31.593  22.054  -4.174  0.00  0.00    -0.004 C 
ATOM     19  C   UNL     1     -32.005  18.000   1.184  0.00  0.00    -0.000 C 
ATOM     20  C   UNL     1     -34.003  21.988  -4.166  0.00  0.00    -0.004 C 
ATOM     21  C   UNL     1     -30.643  17.860   0.953  0.00  0.00    -0.000 C 
ATOM     22  C   UNL     1     -32.808  22.183  -4.849  0.00  0.00    -0.001 C 
ENDBRANCH   7   8
BRANCH   1  24
ATOM     23  O   UNL     1     -35.540  23.091   3.354  0.00  0.00    -0.364 OA
ATOM     24  C   UNL     1     -35.280  24.161   2.450  0.00  0.00    +0.097 C 
ATOM     25  C   UNL     1     -36.114  25.396   2.829  0.00  0.00    +0.148 C 
ATOM     26  C   UNL     1     -36.482  25.418   4.322  0.00  0.00    +0.167 C 
ATOM     27  C   UNL     1     -35.429  24.730   5.197  0.00  0.00    +0.178 C 
ATOM     28  C   UNL     1     -35.004  23.360   4.650  0.00  0.00    +0.241 C 
BRANCH  25  29
ATOM     29  O   UNL     1     -35.344  26.554   2.504  0.00  0.00    -0.382 OA
ATOM     30  H   UNL     1     -35.697  26.959   1.696  0.00  0.00    +0.210 HD
ENDBRANCH  25  29
BRANCH  26  31
ATOM     31  O   UNL     1     -37.733  24.750   4.500  0.00  0.00    -0.379 OA
ATOM     32  H   UNL     1     -37.926  24.210   3.717  0.00  0.00    +0.211 HD
ENDBRANCH  26  31
BRANCH  27  33
ATOM     33  O   UNL     1     -34.275  25.566   5.301  0.00  0.00    -0.379 OA
ATOM     34  H   UNL     1     -33.543  25.168   4.804  0.00  0.00    +0.211 HD
ENDBRANCH  27  33
BRANCH  28  36
ATOM     35  O   UNL     1     -35.938  22.411   6.631  0.00  0.00    -0.247 OA
ATOM     36  C   UNL     1     -35.550  22.248   5.483  0.00  0.00    +0.344 C 
BRANCH  36  37
ATOM     37  O   UNL     1     -35.563  21.065   4.822  0.00  0.00    -0.478 OA
ATOM     38  H   UNL     1     -35.584  20.261   5.301  0.00  0.00    +0.295 HD
ENDBRANCH  36  37
ENDBRANCH  28  36
ENDBRANCH   1  24
TORSDOF 7
ENDMDL
MODEL 7
REMARK VINA RESULT:      -6.9      1.905      3.904
REMARK  Name = 194226
REMARK  7 active torsions:
REMARK  status: ('A' for Active; 'I' for Inactive)
REMARK    1  A    between atoms: N_1  and  C_24
REMARK    2  A    between atoms: C_7  and  C_8
REMARK    3  A    between atoms: C_25  and  O_29
REMARK    4  A    between atoms: C_26  and  O_31
REMARK    5  A    between atoms: C_27  and  O_33
REMARK    6  A    between atoms: C_28  and  C_36
REMARK    7  A    between atoms: C_36  and  O_37
REMARK                            x       y       z     vdW  Elec       q    Type
REMARK                         _______ _______ _______ _____ _____    ______ ____
ROOT
ATOM      1  N   UNL     1     -35.893  22.364   1.210  0.00  0.00    +0.408 N 
ATOM      2  C   UNL     1     -36.258  20.881   1.379  0.00  0.00    -0.069 C 
ATOM      3  C   UNL     1     -34.934  22.550   0.023  0.00  0.00    -0.069 C 
ATOM      4  C   UNL     1     -35.018  19.999   1.510  0.00  0.00    -0.018 C 
ATOM      5  C   UNL     1     -33.691  21.673   0.151  0.00  0.00    -0.018 C 
ATOM      6  C   UNL     1     -37.181  23.139   0.906  0.00  0.00    -0.092 C 
ATOM      7  C   UNL     1     -34.068  20.235   0.369  0.00  0.00    +0.015 C 
ENDROOT
BRANCH   7   8
ATOM      8  C   UNL     1     -33.612  19.242  -0.409  0.00  0.00    -0.037 C 
ATOM      9  C   UNL     1     -32.219  18.777  -0.218  0.00  0.00    -0.007 C 
ATOM     10  C   UNL     1     -34.494  18.713  -1.473  0.00  0.00    +0.062 C 
ATOM     11  C   UNL     1     -31.303  18.765  -1.289  0.00  0.00    -0.001 C 
ATOM     12  C   UNL     1     -34.077  18.687  -2.818  0.00  0.00    -0.015 C 
ATOM     13  C   UNL     1     -31.813  18.307   1.044  0.00  0.00    -0.001 C 
ATOM     14  C   UNL     1     -35.758  18.196  -1.131  0.00  0.00    -0.018 C 
ATOM     15  C   UNL     1     -31.615  19.261  -2.640  0.00  0.00    -0.000 C 
ATOM     16  C   UNL     1     -32.790  19.229  -3.288  0.00  0.00    -0.004 C 
ATOM     17  C   UNL     1     -29.991  18.320  -1.053  0.00  0.00    -0.000 C 
ATOM     18  C   UNL     1     -34.955  18.180  -3.792  0.00  0.00    -0.004 C 
ATOM     19  C   UNL     1     -30.511  17.855   1.253  0.00  0.00    -0.000 C 
ATOM     20  C   UNL     1     -36.609  17.683  -2.109  0.00  0.00    -0.004 C 
ATOM     21  C   UNL     1     -29.599  17.865   0.206  0.00  0.00    -0.000 C 
ATOM     22  C   UNL     1     -36.209  17.678  -3.441  0.00  0.00    -0.001 C 
ENDBRANCH   7   8
BRANCH   1  24
ATOM     23  O   UNL     1     -35.607  22.163   3.633  0.00  0.00    -0.364 OA
ATOM     24  C   UNL     1     -35.319  22.929   2.467  0.00  0.00    +0.097 C 
ATOM     25  C   UNL     1     -35.847  24.364   2.626  0.00  0.00    +0.148 C 
ATOM     26  C   UNL     1     -35.950  24.791   4.100  0.00  0.00    +0.167 C 
ATOM     27  C   UNL     1     -34.903  24.106   4.983  0.00  0.00    +0.178 C 
ATOM     28  C   UNL     1     -34.822  22.591   4.746  0.00  0.00    +0.241 C 
BRANCH  25  29
ATOM     29  O   UNL     1     -34.952  25.234   1.932  0.00  0.00    -0.382 OA
ATOM     30  H   UNL     1     -35.170  26.156   2.143  0.00  0.00    +0.210 HD
ENDBRANCH  25  29
BRANCH  26  31
ATOM     31  O   UNL     1     -37.251  24.457   4.588  0.00  0.00    -0.379 OA
ATOM     32  H   UNL     1     -37.401  24.901   5.438  0.00  0.00    +0.211 HD
ENDBRANCH  26  31
BRANCH  27  33
ATOM     33  O   UNL     1     -33.619  24.683   4.735  0.00  0.00    -0.379 OA
ATOM     34  H   UNL     1     -33.311  24.418   3.854  0.00  0.00    +0.211 HD
ENDBRANCH  27  33
BRANCH  28  36
ATOM     35  O   UNL     1     -36.074  22.362   6.766  0.00  0.00    -0.247 OA
ATOM     36  C   UNL     1     -35.408  21.830   5.890  0.00  0.00    +0.344 C 
BRANCH  36  37
ATOM     37  O   UNL     1     -35.114  20.508   5.834  0.00  0.00    -0.478 OA
ATOM     38  H   UNL     1     -35.561  19.905   6.395  0.00  0.00    +0.295 HD
ENDBRANCH  36  37
ENDBRANCH  28  36
ENDBRANCH   1  24
TORSDOF 7
ENDMDL
MODEL 8
REMARK VINA RESULT:      -6.8      3.838      7.786
REMARK  Name = 194226
REMARK  7 active torsions:
REMARK  status: ('A' for Active; 'I' for Inactive)
REMARK    1  A    between atoms: N_1  and  C_24
REMARK    2  A    between atoms: C_7  and  C_8
REMARK    3  A    between atoms: C_25  and  O_29
REMARK    4  A    between atoms: C_26  and  O_31
REMARK    5  A    between atoms: C_27  and  O_33
REMARK    6  A    between atoms: C_28  and  C_36
REMARK    7  A    between atoms: C_36  and  O_37
REMARK                            x       y       z     vdW  Elec       q    Type
REMARK                         _______ _______ _______ _____ _____    ______ ____
ROOT
ATOM      1  N   UNL     1     -34.782  19.929  -0.439  0.00  0.00    +0.408 N 
ATOM      2  C   UNL     1     -34.720  21.464  -0.480  0.00  0.00    -0.069 C 
ATOM      3  C   UNL     1     -35.923  19.460   0.479  0.00  0.00    -0.069 C 
ATOM      4  C   UNL     1     -34.606  22.067   0.918  0.00  0.00    -0.018 C 
ATOM      5  C   UNL     1     -35.811  20.059   1.879  0.00  0.00    -0.018 C 
ATOM      6  C   UNL     1     -35.077  19.426  -1.858  0.00  0.00    -0.092 C 
ATOM      7  C   UNL     1     -35.698  21.555   1.815  0.00  0.00    +0.015 C 
ENDROOT
BRANCH   7   8
ATOM      8  C   UNL     1     -36.521  22.372   2.488  0.00  0.00    -0.037 C 
ATOM      9  C   UNL     1     -37.842  22.689   1.896  0.00  0.00    -0.007 C 
ATOM     10  C   UNL     1     -36.042  22.983   3.748  0.00  0.00    +0.062 C 
ATOM     11  C   UNL     1     -38.236  24.022   1.669  0.00  0.00    -0.001 C 
ATOM     12  C   UNL     1     -36.043  24.379   3.926  0.00  0.00    -0.015 C 
ATOM     13  C   UNL     1     -38.730  21.643   1.588  0.00  0.00    -0.001 C 
ATOM     14  C   UNL     1     -35.610  22.152   4.799  0.00  0.00    -0.018 C 
ATOM     15  C   UNL     1     -37.374  25.188   1.928  0.00  0.00    -0.000 C 
ATOM     16  C   UNL     1     -36.444  25.339   2.884  0.00  0.00    -0.004 C 
ATOM     17  C   UNL     1     -39.498  24.268   1.100  0.00  0.00    -0.000 C 
ATOM     18  C   UNL     1     -35.571  24.910   5.140  0.00  0.00    -0.004 C 
ATOM     19  C   UNL     1     -39.984  21.909   1.037  0.00  0.00    -0.000 C 
ATOM     20  C   UNL     1     -35.161  22.695   6.001  0.00  0.00    -0.004 C 
ATOM     21  C   UNL     1     -40.366  23.221   0.790  0.00  0.00    -0.000 C 
ATOM     22  C   UNL     1     -35.137  24.074   6.171  0.00  0.00    -0.001 C 
ENDBRANCH   7   8
BRANCH   1  24
ATOM     23  O   UNL     1     -32.338  20.022  -0.553  0.00  0.00    -0.364 OA
ATOM     24  C   UNL     1     -33.474  19.342  -0.024  0.00  0.00    +0.097 C 
ATOM     25  C   UNL     1     -33.459  17.865  -0.448  0.00  0.00    +0.148 C 
ATOM     26  C   UNL     1     -32.039  17.354  -0.744  0.00  0.00    +0.167 C 
ATOM     27  C   UNL     1     -30.972  18.069   0.092  0.00  0.00    +0.178 C 
ATOM     28  C   UNL     1     -31.132  19.596   0.081  0.00  0.00    +0.241 C 
BRANCH  25  29
ATOM     29  O   UNL     1     -34.035  17.104   0.614  0.00  0.00    -0.382 OA
ATOM     30  H   UNL     1     -34.258  16.217   0.291  0.00  0.00    +0.210 HD
ENDBRANCH  25  29
BRANCH  26  31
ATOM     31  O   UNL     1     -31.752  17.562  -2.128  0.00  0.00    -0.379 OA
ATOM     32  H   UNL     1     -32.299  18.288  -2.467  0.00  0.00    +0.211 HD
ENDBRANCH  26  31
BRANCH  27  33
ATOM     33  O   UNL     1     -31.035  17.606   1.443  0.00  0.00    -0.379 OA
ATOM     34  H   UNL     1     -31.207  16.652   1.449  0.00  0.00    +0.211 HD
ENDBRANCH  27  33
BRANCH  28  36
ATOM     35  O   UNL     1     -29.858  21.453  -0.710  0.00  0.00    -0.247 OA
ATOM     36  C   UNL     1     -30.067  20.249  -0.737  0.00  0.00    +0.344 C 
BRANCH  36  37
ATOM     37  O   UNL     1     -29.379  19.359  -1.493  0.00  0.00    -0.478 OA
ATOM     38  H   UNL     1     -28.979  19.636  -2.294  0.00  0.00    +0.295 HD
ENDBRANCH  36  37
ENDBRANCH  28  36
ENDBRANCH   1  24
TORSDOF 7
ENDMDL
MODEL 9
REMARK VINA RESULT:      -6.7      3.144      5.753
REMARK  Name = 194226
REMARK  7 active torsions:
REMARK  status: ('A' for Active; 'I' for Inactive)
REMARK    1  A    between atoms: N_1  and  C_24
REMARK    2  A    between atoms: C_7  and  C_8
REMARK    3  A    between atoms: C_25  and  O_29
REMARK    4  A    between atoms: C_26  and  O_31
REMARK    5  A    between atoms: C_27  and  O_33
REMARK    6  A    between atoms: C_28  and  C_36
REMARK    7  A    between atoms: C_36  and  O_37
REMARK                            x       y       z     vdW  Elec       q    Type
REMARK                         _______ _______ _______ _____ _____    ______ ____
ROOT
ATOM      1  N   UNL     1     -38.109  25.349  -0.500  0.00  0.00    +0.408 N 
ATOM      2  C   UNL     1     -38.053  23.814  -0.430  0.00  0.00    -0.069 C 
ATOM      3  C   UNL     1     -36.811  25.960   0.054  0.00  0.00    -0.069 C 
ATOM      4  C   UNL     1     -37.750  23.318   0.982  0.00  0.00    -0.018 C 
ATOM      5  C   UNL     1     -36.506  25.469   1.466  0.00  0.00    -0.018 C 
ATOM      6  C   UNL     1     -38.235  25.754  -1.973  0.00  0.00    -0.092 C 
ATOM      7  C   UNL     1     -36.508  23.968   1.525  0.00  0.00    +0.015 C 
ENDROOT
BRANCH   7   8
ATOM      8  C   UNL     1     -35.473  23.261   2.003  0.00  0.00    -0.037 C 
ATOM      9  C   UNL     1     -34.459  22.759   1.048  0.00  0.00    -0.007 C 
ATOM     10  C   UNL     1     -35.436  22.947   3.448  0.00  0.00    +0.062 C 
ATOM     11  C   UNL     1     -34.143  21.388   0.976  0.00  0.00    -0.001 C 
ATOM     12  C   UNL     1     -35.334  21.618   3.902  0.00  0.00    -0.015 C 
ATOM     13  C   UNL     1     -33.774  23.670   0.223  0.00  0.00    -0.001 C 
ATOM     14  C   UNL     1     -35.468  23.997   4.386  0.00  0.00    -0.018 C 
ATOM     15  C   UNL     1     -34.819  20.348   1.771  0.00  0.00    -0.000 C 
ATOM     16  C   UNL     1     -35.324  20.446   3.011  0.00  0.00    -0.004 C 
ATOM     17  C   UNL     1     -33.177  20.962   0.048  0.00  0.00    -0.000 C 
ATOM     18  C   UNL     1     -35.309  21.373   5.287  0.00  0.00    -0.004 C 
ATOM     19  C   UNL     1     -32.808  23.229  -0.681  0.00  0.00    -0.000 C 
ATOM     20  C   UNL     1     -35.426  23.736   5.754  0.00  0.00    -0.004 C 
ATOM     21  C   UNL     1     -32.512  21.875  -0.771  0.00  0.00    -0.000 C 
ATOM     22  C   UNL     1     -35.351  22.423   6.206  0.00  0.00    -0.001 C 
ENDBRANCH   7   8
BRANCH   1  24
ATOM     23  O   UNL     1     -40.499  25.132  -0.014  0.00  0.00    -0.364 OA
ATOM     24  C   UNL     1     -39.308  25.882   0.212  0.00  0.00    +0.097 C 
ATOM     25  C   UNL     1     -39.506  27.343  -0.221  0.00  0.00    +0.148 C 
ATOM     26  C   UNL     1     -40.981  27.775  -0.170  0.00  0.00    +0.167 C 
ATOM     27  C   UNL     1     -41.773  27.033   0.912  0.00  0.00    +0.178 C 
ATOM     28  C   UNL     1     -41.537  25.516   0.888  0.00  0.00    +0.241 C 
BRANCH  25  29
ATOM     29  O   UNL     1     -38.733  28.163   0.657  0.00  0.00    -0.382 OA
ATOM     30  H   UNL     1     -38.654  29.053   0.280  0.00  0.00    +0.210 HD
ENDBRANCH  25  29
BRANCH  26  31
ATOM     31  O   UNL     1     -41.584  27.512  -1.439  0.00  0.00    -0.379 OA
ATOM     32  H   UNL     1     -41.854  28.350  -1.849  0.00  0.00    +0.211 HD
ENDBRANCH  26  31
BRANCH  27  33
ATOM     33  O   UNL     1     -41.411  27.538   2.199  0.00  0.00    -0.379 OA
ATOM     34  H   UNL     1     -40.973  26.838   2.709  0.00  0.00    +0.211 HD
ENDBRANCH  27  33
BRANCH  28  36
ATOM     35  O   UNL     1     -43.644  24.413   1.086  0.00  0.00    -0.247 OA
ATOM     36  C   UNL     1     -42.731  24.788   0.365  0.00  0.00    +0.344 C 
BRANCH  36  37
ATOM     37  O   UNL     1     -42.675  24.601  -0.976  0.00  0.00    -0.478 OA
ATOM     38  H   UNL     1     -41.844  24.563  -1.409  0.00  0.00    +0.295 HD
ENDBRANCH  36  37
ENDBRANCH  28  36
ENDBRANCH   1  24
TORSDOF 7
ENDMDL
