MODEL 1
REMARK VINA RESULT:      -6.5      0.000      0.000
REMARK  Name = 5458421
REMARK  7 active torsions:
REMARK  status: ('A' for Active; 'I' for Inactive)
REMARK    1  A    between atoms: C_5  and  C_25
REMARK    2  A    between atoms: C_7  and  O_21
REMARK    3  A    between atoms: C_9  and  O_17
REMARK    4  A    between atoms: C_13  and  O_19
REMARK    5  A    between atoms: O_21  and  C_23
REMARK    6  A    between atoms: C_25  and  O_26
REMARK    7  A    between atoms: O_26  and  C_28
REMARK                            x       y       z     vdW  Elec       q    Type
REMARK                         _______ _______ _______ _____ _____    ______ ____
ROOT
ATOM      1  O   UNL     1     -33.052  25.004   1.143  0.00  0.00    -0.351 OA
ATOM      2  O   UNL     1     -33.107  25.475   4.148  0.00  0.00    -0.349 OA
ATOM      3  C   UNL     1     -34.949  26.380   2.170  0.00  0.00    +0.073 C 
ATOM      4  C   UNL     1     -33.481  26.126   1.897  0.00  0.00    +0.151 C 
ATOM      5  C   UNL     1     -35.443  25.292   3.244  0.00  0.00    +0.078 C 
ATOM      6  C   UNL     1     -32.778  26.459   3.162  0.00  0.00    +0.173 C 
ATOM      7  C   UNL     1     -34.809  27.801   2.871  0.00  0.00    +0.200 C 
ATOM      8  C   UNL     1     -32.794  26.293   0.559  0.00  0.00    +0.172 C 
ATOM      9  C   UNL     1     -33.364  27.853   3.442  0.00  0.00    +0.180 C 
ATOM     10  C   UNL     1     -34.497  25.339   4.490  0.00  0.00    +0.140 C 
ATOM     11  C   UNL     1     -35.828  26.422   0.916  0.00  0.00    +0.006 C 
ATOM     12  C   UNL     1     -35.425  23.837   2.669  0.00  0.00    +0.040 C 
ATOM     13  C   UNL     1     -35.765  22.736   3.689  0.00  0.00    +0.129 C 
ATOM     14  C   UNL     1     -34.585  24.132   5.387  0.00  0.00    -0.003 C 
ATOM     15  C   UNL     1     -35.172  22.969   5.055  0.00  0.00    -0.020 C 
ATOM     16  C   UNL     1     -35.229  21.821   6.022  0.00  0.00    +0.029 C 
ENDROOT
BRANCH   9  17
ATOM     17  O   UNL     1     -33.349  28.195   4.814  0.00  0.00    -0.379 OA
ATOM     18  H   UNL     1     -33.448  29.156   4.908  0.00  0.00    +0.211 HD
ENDBRANCH   9  17
BRANCH  13  19
ATOM     19  O   UNL     1     -37.182  22.602   3.782  0.00  0.00    -0.380 OA
ATOM     20  H   UNL     1     -37.444  21.716   3.488  0.00  0.00    +0.211 HD
ENDBRANCH  13  19
BRANCH   7  21
ATOM     21  O   UNL     1     -34.948  28.853   1.915  0.00  0.00    -0.450 OA
BRANCH  21  23
ATOM     22  O   UNL     1     -35.149  30.533   3.487  0.00  0.00    -0.250 OA
ATOM     23  C   UNL     1     -35.423  30.034   2.404  0.00  0.00    +0.318 C 
ATOM     24  C   UNL     1     -36.352  30.656   1.406  0.00  0.00    +0.121 C 
ENDBRANCH  21  23
ENDBRANCH   7  21
BRANCH   5  25
ATOM     25  C   UNL     1     -36.901  25.600   3.695  0.00  0.00    +0.211 C 
BRANCH  25  26
ATOM     26  O   UNL     1     -37.757  25.186   2.659  0.00  0.00    -0.448 OA
BRANCH  26  28
ATOM     27  O   UNL     1     -39.665  24.533   3.787  0.00  0.00    -0.250 OA
ATOM     28  C   UNL     1     -39.103  25.207   2.934  0.00  0.00    +0.318 C 
ATOM     29  C   UNL     1     -39.806  26.183   2.039  0.00  0.00    +0.121 C 
ENDBRANCH  26  28
ENDBRANCH  25  26
ENDBRANCH   5  25
TORSDOF 7
ENDMDL
MODEL 2
REMARK VINA RESULT:      -6.2      2.302      5.628
REMARK  Name = 5458421
REMARK  7 active torsions:
REMARK  status: ('A' for Active; 'I' for Inactive)
REMARK    1  A    between atoms: C_5  and  C_25
REMARK    2  A    between atoms: C_7  and  O_21
REMARK    3  A    between atoms: C_9  and  O_17
REMARK    4  A    between atoms: C_13  and  O_19
REMARK    5  A    between atoms: O_21  and  C_23
REMARK    6  A    between atoms: C_25  and  O_26
REMARK    7  A    between atoms: O_26  and  C_28
REMARK                            x       y       z     vdW  Elec       q    Type
REMARK                         _______ _______ _______ _____ _____    ______ ____
ROOT
ATOM      1  O   UNL     1     -37.033  26.847   0.811  0.00  0.00    -0.351 OA
ATOM      2  O   UNL     1     -37.736  26.226   3.706  0.00  0.00    -0.349 OA
ATOM      3  C   UNL     1     -37.110  24.413   1.597  0.00  0.00    +0.073 C 
ATOM      4  C   UNL     1     -37.756  25.765   1.378  0.00  0.00    +0.151 C 
ATOM      5  C   UNL     1     -36.083  24.553   2.824  0.00  0.00    +0.078 C 
ATOM      6  C   UNL     1     -38.593  26.006   2.581  0.00  0.00    +0.173 C 
ATOM      7  C   UNL     1     -38.404  23.615   2.069  0.00  0.00    +0.200 C 
ATOM      8  C   UNL     1     -38.138  26.350   0.036  0.00  0.00    +0.172 C 
ATOM      9  C   UNL     1     -39.379  24.685   2.636  0.00  0.00    +0.180 C 
ATOM     10  C   UNL     1     -36.837  25.160   4.055  0.00  0.00    +0.140 C 
ATOM     11  C   UNL     1     -36.466  23.809   0.345  0.00  0.00    +0.006 C 
ATOM     12  C   UNL     1     -34.872  25.484   2.483  0.00  0.00    +0.040 C 
ATOM     13  C   UNL     1     -33.920  25.761   3.660  0.00  0.00    +0.129 C 
ATOM     14  C   UNL     1     -35.937  25.713   5.128  0.00  0.00    -0.003 C 
ATOM     15  C   UNL     1     -34.625  25.962   4.977  0.00  0.00    -0.020 C 
ATOM     16  C   UNL     1     -33.798  26.499   6.111  0.00  0.00    +0.029 C 
ENDROOT
BRANCH   9  17
ATOM     17  O   UNL     1     -39.825  24.359   3.938  0.00  0.00    -0.379 OA
ATOM     18  H   UNL     1     -39.598  25.079   4.546  0.00  0.00    +0.211 HD
ENDBRANCH   9  17
BRANCH  13  19
ATOM     19  O   UNL     1     -32.977  24.696   3.762  0.00  0.00    -0.380 OA
ATOM     20  H   UNL     1     -32.283  24.814   3.094  0.00  0.00    +0.211 HD
ENDBRANCH  13  19
BRANCH   7  21
ATOM     21  O   UNL     1     -39.038  22.979   0.960  0.00  0.00    -0.450 OA
BRANCH  21  23
ATOM     22  O   UNL     1     -40.284  21.280   1.907  0.00  0.00    -0.250 OA
ATOM     23  C   UNL     1     -39.404  21.679   1.157  0.00  0.00    +0.318 C 
ATOM     24  C   UNL     1     -38.557  20.782   0.305  0.00  0.00    +0.121 C 
ENDBRANCH  21  23
ENDBRANCH   7  21
BRANCH   5  25
ATOM     25  C   UNL     1     -35.507  23.159   3.210  0.00  0.00    +0.211 C 
BRANCH  25  26
ATOM     26  O   UNL     1     -36.161  22.747   4.385  0.00  0.00    -0.448 OA
BRANCH  26  28
ATOM     27  O   UNL     1     -35.116  20.724   4.782  0.00  0.00    -0.250 OA
ATOM     28  C   UNL     1     -35.500  21.823   5.159  0.00  0.00    +0.318 C 
ATOM     29  C   UNL     1     -35.305  22.348   6.550  0.00  0.00    +0.121 C 
ENDBRANCH  26  28
ENDBRANCH  25  26
ENDBRANCH   5  25
TORSDOF 7
ENDMDL
MODEL 3
REMARK VINA RESULT:      -5.8      3.128      6.583
REMARK  Name = 5458421
REMARK  7 active torsions:
REMARK  status: ('A' for Active; 'I' for Inactive)
REMARK    1  A    between atoms: C_5  and  C_25
REMARK    2  A    between atoms: C_7  and  O_21
REMARK    3  A    between atoms: C_9  and  O_17
REMARK    4  A    between atoms: C_13  and  O_19
REMARK    5  A    between atoms: O_21  and  C_23
REMARK    6  A    between atoms: C_25  and  O_26
REMARK    7  A    between atoms: O_26  and  C_28
REMARK                            x       y       z     vdW  Elec       q    Type
REMARK                         _______ _______ _______ _____ _____    ______ ____
ROOT
ATOM      1  O   UNL     1     -36.795  24.278  -1.069  0.00  0.00    -0.351 OA
ATOM      2  O   UNL     1     -39.181  22.978   0.299  0.00  0.00    -0.349 OA
ATOM      3  C   UNL     1     -36.432  22.883   1.045  0.00  0.00    +0.073 C 
ATOM      4  C   UNL     1     -36.910  23.041  -0.383  0.00  0.00    +0.151 C 
ATOM      5  C   UNL     1     -37.463  23.666   1.997  0.00  0.00    +0.078 C 
ATOM      6  C   UNL     1     -38.187  22.287  -0.462  0.00  0.00    +0.173 C 
ATOM      7  C   UNL     1     -36.656  21.314   1.188  0.00  0.00    +0.200 C 
ATOM      8  C   UNL     1     -36.018  23.189  -1.597  0.00  0.00    +0.172 C 
ATOM      9  C   UNL     1     -37.748  20.944   0.145  0.00  0.00    +0.180 C 
ATOM     10  C   UNL     1     -38.915  23.163   1.700  0.00  0.00    +0.140 C 
ATOM     11  C   UNL     1     -34.976  23.296   1.275  0.00  0.00    +0.006 C 
ATOM     12  C   UNL     1     -37.425  25.214   1.769  0.00  0.00    +0.040 C 
ATOM     13  C   UNL     1     -38.480  26.008   2.559  0.00  0.00    +0.129 C 
ATOM     14  C   UNL     1     -40.006  24.065   2.212  0.00  0.00    -0.003 C 
ATOM     15  C   UNL     1     -39.825  25.331   2.626  0.00  0.00    -0.020 C 
ATOM     16  C   UNL     1     -40.971  26.155   3.141  0.00  0.00    +0.029 C 
ENDROOT
BRANCH   9  17
ATOM     17  O   UNL     1     -38.817  20.224   0.730  0.00  0.00    -0.379 OA
ATOM     18  H   UNL     1     -39.233  19.662   0.058  0.00  0.00    +0.211 HD
ENDBRANCH   9  17
BRANCH  13  19
ATOM     19  O   UNL     1     -37.988  26.264   3.873  0.00  0.00    -0.380 OA
ATOM     20  H   UNL     1     -37.115  26.681   3.817  0.00  0.00    +0.211 HD
ENDBRANCH  13  19
BRANCH   7  21
ATOM     21  O   UNL     1     -35.465  20.600   0.857  0.00  0.00    -0.450 OA
BRANCH  21  23
ATOM     22  O   UNL     1     -35.053  20.210   3.096  0.00  0.00    -0.250 OA
ATOM     23  C   UNL     1     -34.796  20.049   1.911  0.00  0.00    +0.318 C 
ATOM     24  C   UNL     1     -33.673  19.196   1.405  0.00  0.00    +0.121 C 
ENDBRANCH  21  23
ENDBRANCH   7  21
BRANCH   5  25
ATOM     25  C   UNL     1     -37.125  23.404   3.493  0.00  0.00    +0.211 C 
BRANCH  25  26
ATOM     26  O   UNL     1     -36.003  24.189   3.813  0.00  0.00    -0.448 OA
BRANCH  26  28
ATOM     27  O   UNL     1     -35.789  25.384   5.780  0.00  0.00    -0.250 OA
ATOM     28  C   UNL     1     -35.722  24.336   5.151  0.00  0.00    +0.318 C 
ATOM     29  C   UNL     1     -35.319  23.023   5.749  0.00  0.00    +0.121 C 
ENDBRANCH  26  28
ENDBRANCH  25  26
ENDBRANCH   5  25
TORSDOF 7
ENDMDL
MODEL 4
REMARK VINA RESULT:      -5.7      3.519      6.790
REMARK  Name = 5458421
REMARK  7 active torsions:
REMARK  status: ('A' for Active; 'I' for Inactive)
REMARK    1  A    between atoms: C_5  and  C_25
REMARK    2  A    between atoms: C_7  and  O_21
REMARK    3  A    between atoms: C_9  and  O_17
REMARK    4  A    between atoms: C_13  and  O_19
REMARK    5  A    between atoms: O_21  and  C_23
REMARK    6  A    between atoms: C_25  and  O_26
REMARK    7  A    between atoms: O_26  and  C_28
REMARK                            x       y       z     vdW  Elec       q    Type
REMARK                         _______ _______ _______ _____ _____    ______ ____
ROOT
ATOM      1  O   UNL     1     -36.796  22.785  -1.736  0.00  0.00    -0.351 OA
ATOM      2  O   UNL     1     -38.023  21.427   0.695  0.00  0.00    -0.349 OA
ATOM      3  C   UNL     1     -35.313  22.199   0.265  0.00  0.00    +0.073 C 
ATOM      4  C   UNL     1     -36.264  21.814  -0.849  0.00  0.00    +0.151 C 
ATOM      5  C   UNL     1     -36.164  22.965   1.392  0.00  0.00    +0.078 C 
ATOM      6  C   UNL     1     -37.170  20.794  -0.264  0.00  0.00    +0.173 C 
ATOM      7  C   UNL     1     -34.948  20.735   0.771  0.00  0.00    +0.200 C 
ATOM      8  C   UNL     1     -35.928  21.801  -2.325  0.00  0.00    +0.172 C 
ATOM      9  C   UNL     1     -36.139  19.830   0.347  0.00  0.00    +0.180 C 
ATOM     10  C   UNL     1     -37.381  22.073   1.808  0.00  0.00    +0.140 C 
ATOM     11  C   UNL     1     -34.084  22.989  -0.196  0.00  0.00    +0.006 C 
ATOM     12  C   UNL     1     -36.714  24.342   0.890  0.00  0.00    +0.040 C 
ATOM     13  C   UNL     1     -37.644  25.065   1.880  0.00  0.00    +0.129 C 
ATOM     14  C   UNL     1     -38.470  22.806   2.544  0.00  0.00    -0.003 C 
ATOM     15  C   UNL     1     -38.588  24.144   2.610  0.00  0.00    -0.020 C 
ATOM     16  C   UNL     1     -39.699  24.792   3.385  0.00  0.00    +0.029 C 
ENDROOT
BRANCH   9  17
ATOM     17  O   UNL     1     -36.653  19.087   1.436  0.00  0.00    -0.379 OA
ATOM     18  H   UNL     1     -35.919  18.691   1.930  0.00  0.00    +0.211 HD
ENDBRANCH   9  17
BRANCH  13  19
ATOM     19  O   UNL     1     -36.855  25.803   2.811  0.00  0.00    -0.380 OA
ATOM     20  H   UNL     1     -37.326  25.864   3.657  0.00  0.00    +0.211 HD
ENDBRANCH  13  19
BRANCH   7  21
ATOM     21  O   UNL     1     -33.771  20.254   0.121  0.00  0.00    -0.450 OA
BRANCH  21  23
ATOM     22  O   UNL     1     -33.367  18.704   1.784  0.00  0.00    -0.250 OA
ATOM     23  C   UNL     1     -32.993  19.412   0.860  0.00  0.00    +0.318 C 
ATOM     24  C   UNL     1     -31.577  19.476   0.372  0.00  0.00    +0.121 C 
ENDBRANCH  21  23
ENDBRANCH   7  21
BRANCH   5  25
ATOM     25  C   UNL     1     -35.280  23.242   2.643  0.00  0.00    +0.211 C 
BRANCH  25  26
ATOM     26  O   UNL     1     -35.653  22.316   3.633  0.00  0.00    -0.448 OA
BRANCH  26  28
ATOM     27  O   UNL     1     -36.260  23.880   5.223  0.00  0.00    -0.250 OA
ATOM     28  C   UNL     1     -35.766  22.804   4.913  0.00  0.00    +0.318 C 
ATOM     29  C   UNL     1     -35.197  21.828   5.898  0.00  0.00    +0.121 C 
ENDBRANCH  26  28
ENDBRANCH  25  26
ENDBRANCH   5  25
TORSDOF 7
ENDMDL
MODEL 5
REMARK VINA RESULT:      -5.7      2.468      4.570
REMARK  Name = 5458421
REMARK  7 active torsions:
REMARK  status: ('A' for Active; 'I' for Inactive)
REMARK    1  A    between atoms: C_5  and  C_25
REMARK    2  A    between atoms: C_7  and  O_21
REMARK    3  A    between atoms: C_9  and  O_17
REMARK    4  A    between atoms: C_13  and  O_19
REMARK    5  A    between atoms: O_21  and  C_23
REMARK    6  A    between atoms: C_25  and  O_26
REMARK    7  A    between atoms: O_26  and  C_28
REMARK                            x       y       z     vdW  Elec       q    Type
REMARK                         _______ _______ _______ _____ _____    ______ ____
ROOT
ATOM      1  O   UNL     1     -38.842  22.769   0.228  0.00  0.00    -0.351 OA
ATOM      2  O   UNL     1     -35.891  22.919  -0.495  0.00  0.00    -0.349 OA
ATOM      3  C   UNL     1     -37.267  24.202   1.646  0.00  0.00    +0.073 C 
ATOM      4  C   UNL     1     -37.917  23.840   0.327  0.00  0.00    +0.151 C 
ATOM      5  C   UNL     1     -36.194  23.058   1.995  0.00  0.00    +0.078 C 
ATOM      6  C   UNL     1     -36.844  23.966  -0.693  0.00  0.00    +0.173 C 
ATOM      7  C   UNL     1     -36.511  25.521   1.174  0.00  0.00    +0.200 C 
ATOM      8  C   UNL     1     -39.366  24.083  -0.035  0.00  0.00    +0.172 C 
ATOM      9  C   UNL     1     -36.316  25.372  -0.362  0.00  0.00    +0.180 C 
ATOM     10  C   UNL     1     -35.224  22.880   0.779  0.00  0.00    +0.140 C 
ATOM     11  C   UNL     1     -38.254  24.463   2.787  0.00  0.00    +0.006 C 
ATOM     12  C   UNL     1     -36.871  21.678   2.288  0.00  0.00    +0.040 C 
ATOM     13  C   UNL     1     -35.890  20.512   2.503  0.00  0.00    +0.129 C 
ATOM     14  C   UNL     1     -34.434  21.599   0.793  0.00  0.00    -0.003 C 
ATOM     15  C   UNL     1     -34.701  20.540   1.577  0.00  0.00    -0.020 C 
ATOM     16  C   UNL     1     -33.846  19.305   1.538  0.00  0.00    +0.029 C 
ENDROOT
BRANCH   9  17
ATOM     17  O   UNL     1     -34.968  25.563  -0.745  0.00  0.00    -0.379 OA
ATOM     18  H   UNL     1     -34.937  26.062  -1.576  0.00  0.00    +0.211 HD
ENDBRANCH   9  17
BRANCH  13  19
ATOM     19  O   UNL     1     -35.458  20.506   3.862  0.00  0.00    -0.380 OA
ATOM     20  H   UNL     1     -34.489  20.480   3.894  0.00  0.00    +0.211 HD
ENDBRANCH  13  19
BRANCH   7  21
ATOM     21  O   UNL     1     -37.314  26.677   1.410  0.00  0.00    -0.450 OA
BRANCH  21  23
ATOM     22  O   UNL     1     -36.917  28.939   1.168  0.00  0.00    -0.250 OA
ATOM     23  C   UNL     1     -36.629  27.838   1.617  0.00  0.00    +0.318 C 
ATOM     24  C   UNL     1     -35.442  27.574   2.494  0.00  0.00    +0.121 C 
ENDBRANCH  21  23
ENDBRANCH   7  21
BRANCH   5  25
ATOM     25  C   UNL     1     -35.371  23.454   3.255  0.00  0.00    +0.211 C 
BRANCH  25  26
ATOM     26  O   UNL     1     -36.153  23.143   4.381  0.00  0.00    -0.448 OA
BRANCH  26  28
ATOM     27  O   UNL     1     -35.433  22.426   6.457  0.00  0.00    -0.250 OA
ATOM     28  C   UNL     1     -35.547  23.298   5.605  0.00  0.00    +0.318 C 
ATOM     29  C   UNL     1     -35.034  24.697   5.763  0.00  0.00    +0.121 C 
ENDBRANCH  26  28
ENDBRANCH  25  26
ENDBRANCH   5  25
TORSDOF 7
ENDMDL
MODEL 6
REMARK VINA RESULT:      -5.6      2.150      3.232
REMARK  Name = 5458421
REMARK  7 active torsions:
REMARK  status: ('A' for Active; 'I' for Inactive)
REMARK    1  A    between atoms: C_5  and  C_25
REMARK    2  A    between atoms: C_7  and  O_21
REMARK    3  A    between atoms: C_9  and  O_17
REMARK    4  A    between atoms: C_13  and  O_19
REMARK    5  A    between atoms: O_21  and  C_23
REMARK    6  A    between atoms: C_25  and  O_26
REMARK    7  A    between atoms: O_26  and  C_28
REMARK                            x       y       z     vdW  Elec       q    Type
REMARK                         _______ _______ _______ _____ _____    ______ ____
ROOT
ATOM      1  O   UNL     1     -33.583  24.481   0.752  0.00  0.00    -0.351 OA
ATOM      2  O   UNL     1     -35.134  25.359   3.217  0.00  0.00    -0.349 OA
ATOM      3  C   UNL     1     -36.136  24.309   0.764  0.00  0.00    +0.073 C 
ATOM      4  C   UNL     1     -34.852  25.104   0.876  0.00  0.00    +0.151 C 
ATOM      5  C   UNL     1     -36.284  23.427   2.098  0.00  0.00    +0.078 C 
ATOM      6  C   UNL     1     -35.078  26.072   1.979  0.00  0.00    +0.173 C 
ATOM      7  C   UNL     1     -37.162  25.526   0.809  0.00  0.00    +0.200 C 
ATOM      8  C   UNL     1     -33.921  25.435  -0.270  0.00  0.00    +0.172 C 
ATOM      9  C   UNL     1     -36.420  26.681   1.539  0.00  0.00    +0.180 C 
ATOM     10  C   UNL     1     -36.164  24.363   3.346  0.00  0.00    +0.140 C 
ATOM     11  C   UNL     1     -36.258  23.480  -0.518  0.00  0.00    +0.006 C 
ATOM     12  C   UNL     1     -35.180  22.322   2.206  0.00  0.00    +0.040 C 
ATOM     13  C   UNL     1     -35.190  21.527   3.523  0.00  0.00    +0.129 C 
ATOM     14  C   UNL     1     -35.885  23.646   4.641  0.00  0.00    -0.003 C 
ATOM     15  C   UNL     1     -35.476  22.370   4.739  0.00  0.00    -0.020 C 
ATOM     16  C   UNL     1     -35.239  21.728   6.077  0.00  0.00    +0.029 C 
ENDROOT
BRANCH   9  17
ATOM     17  O   UNL     1     -37.174  27.197   2.617  0.00  0.00    -0.379 OA
ATOM     18  H   UNL     1     -37.371  26.484   3.244  0.00  0.00    +0.211 HD
ENDBRANCH   9  17
BRANCH  13  19
ATOM     19  O   UNL     1     -36.138  20.465   3.424  0.00  0.00    -0.380 OA
ATOM     20  H   UNL     1     -35.682  19.646   3.175  0.00  0.00    +0.211 HD
ENDBRANCH  13  19
BRANCH   7  21
ATOM     21  O   UNL     1     -37.483  25.966  -0.510  0.00  0.00    -0.450 OA
BRANCH  21  23
ATOM     22  O   UNL     1     -39.200  27.507  -0.625  0.00  0.00    -0.250 OA
ATOM     23  C   UNL     1     -38.774  26.363  -0.701  0.00  0.00    +0.318 C 
ATOM     24  C   UNL     1     -39.624  25.172  -1.026  0.00  0.00    +0.121 C 
ENDBRANCH  21  23
ENDBRANCH   7  21
BRANCH   5  25
ATOM     25  C   UNL     1     -37.666  22.712   2.124  0.00  0.00    +0.211 C 
BRANCH  25  26
ATOM     26  O   UNL     1     -38.494  23.431   3.004  0.00  0.00    -0.448 OA
BRANCH  26  28
ATOM     27  O   UNL     1     -40.444  23.074   1.816  0.00  0.00    -0.250 OA
ATOM     28  C   UNL     1     -39.737  23.774   2.529  0.00  0.00    +0.318 C 
ATOM     29  C   UNL     1     -40.123  25.141   3.008  0.00  0.00    +0.121 C 
ENDBRANCH  26  28
ENDBRANCH  25  26
ENDBRANCH   5  25
TORSDOF 7
ENDMDL
MODEL 7
REMARK VINA RESULT:      -5.6      2.818      4.408
REMARK  Name = 5458421
REMARK  7 active torsions:
REMARK  status: ('A' for Active; 'I' for Inactive)
REMARK    1  A    between atoms: C_5  and  C_25
REMARK    2  A    between atoms: C_7  and  O_21
REMARK    3  A    between atoms: C_9  and  O_17
REMARK    4  A    between atoms: C_13  and  O_19
REMARK    5  A    between atoms: O_21  and  C_23
REMARK    6  A    between atoms: C_25  and  O_26
REMARK    7  A    between atoms: O_26  and  C_28
REMARK                            x       y       z     vdW  Elec       q    Type
REMARK                         _______ _______ _______ _____ _____    ______ ____
ROOT
ATOM      1  O   UNL     1     -34.950  25.023   0.601  0.00  0.00    -0.351 OA
ATOM      2  O   UNL     1     -36.187  25.287   3.368  0.00  0.00    -0.349 OA
ATOM      3  C   UNL     1     -37.365  24.268   0.981  0.00  0.00    +0.073 C 
ATOM      4  C   UNL     1     -36.279  25.324   0.998  0.00  0.00    +0.151 C 
ATOM      5  C   UNL     1     -37.083  23.255   2.195  0.00  0.00    +0.078 C 
ATOM      6  C   UNL     1     -36.504  26.107   2.239  0.00  0.00    +0.173 C 
ATOM      7  C   UNL     1     -38.600  25.206   1.341  0.00  0.00    +0.200 C 
ATOM      8  C   UNL     1     -35.658  25.965  -0.224  0.00  0.00    +0.172 C 
ATOM      9  C   UNL     1     -38.001  26.427   2.092  0.00  0.00    +0.180 C 
ATOM     10  C   UNL     1     -36.943  24.074   3.522  0.00  0.00    +0.140 C 
ATOM     11  C   UNL     1     -37.535  23.556  -0.364  0.00  0.00    +0.006 C 
ATOM     12  C   UNL     1     -35.769  22.430   1.988  0.00  0.00    +0.040 C 
ATOM     13  C   UNL     1     -35.376  21.534   3.176  0.00  0.00    +0.129 C 
ATOM     14  C   UNL     1     -36.293  23.323   4.654  0.00  0.00    -0.003 C 
ATOM     15  C   UNL     1     -35.612  22.172   4.522  0.00  0.00    -0.020 C 
ATOM     16  C   UNL     1     -35.011  21.481   5.712  0.00  0.00    +0.029 C 
ENDROOT
BRANCH   9  17
ATOM     17  O   UNL     1     -38.643  26.654   3.332  0.00  0.00    -0.379 OA
ATOM     18  H   UNL     1     -38.101  26.287   4.048  0.00  0.00    +0.211 HD
ENDBRANCH   9  17
BRANCH  13  19
ATOM     19  O   UNL     1     -36.080  20.297   3.086  0.00  0.00    -0.380 OA
ATOM     20  H   UNL     1     -36.097  20.002   2.162  0.00  0.00    +0.211 HD
ENDBRANCH  13  19
BRANCH   7  21
ATOM     21  O   UNL     1     -39.236  25.681   0.154  0.00  0.00    -0.450 OA
BRANCH  21  23
ATOM     22  O   UNL     1     -41.364  26.137  -0.621  0.00  0.00    -0.250 OA
ATOM     23  C   UNL     1     -40.592  25.537   0.115  0.00  0.00    +0.318 C 
ATOM     24  C   UNL     1     -41.020  24.514   1.124  0.00  0.00    +0.121 C 
ENDBRANCH  21  23
ENDBRANCH   7  21
BRANCH   5  25
ATOM     25  C   UNL     1     -38.255  22.241   2.339  0.00  0.00    +0.211 C 
BRANCH  25  26
ATOM     26  O   UNL     1     -38.110  21.285   1.318  0.00  0.00    -0.448 OA
BRANCH  26  28
ATOM     27  O   UNL     1     -40.397  20.978   1.194  0.00  0.00    -0.250 OA
ATOM     28  C   UNL     1     -39.270  20.829   0.739  0.00  0.00    +0.318 C 
ATOM     29  C   UNL     1     -38.971  20.115  -0.544  0.00  0.00    +0.121 C 
ENDBRANCH  26  28
ENDBRANCH  25  26
ENDBRANCH   5  25
TORSDOF 7
ENDMDL
MODEL 8
REMARK VINA RESULT:      -5.4      1.784      5.968
REMARK  Name = 5458421
REMARK  7 active torsions:
REMARK  status: ('A' for Active; 'I' for Inactive)
REMARK    1  A    between atoms: C_5  and  C_25
REMARK    2  A    between atoms: C_7  and  O_21
REMARK    3  A    between atoms: C_9  and  O_17
REMARK    4  A    between atoms: C_13  and  O_19
REMARK    5  A    between atoms: O_21  and  C_23
REMARK    6  A    between atoms: C_25  and  O_26
REMARK    7  A    between atoms: O_26  and  C_28
REMARK                            x       y       z     vdW  Elec       q    Type
REMARK                         _______ _______ _______ _____ _____    ______ ____
ROOT
ATOM      1  O   UNL     1     -37.031  23.918  -0.246  0.00  0.00    -0.351 OA
ATOM      2  O   UNL     1     -37.651  26.121   1.758  0.00  0.00    -0.349 OA
ATOM      3  C   UNL     1     -35.738  24.017   1.960  0.00  0.00    +0.073 C 
ATOM      4  C   UNL     1     -37.028  23.908   1.173  0.00  0.00    +0.151 C 
ATOM      5  C   UNL     1     -35.211  25.529   1.830  0.00  0.00    +0.078 C 
ATOM      6  C   UNL     1     -38.013  24.745   1.904  0.00  0.00    +0.173 C 
ATOM      7  C   UNL     1     -36.339  23.782   3.415  0.00  0.00    +0.200 C 
ATOM      8  C   UNL     1     -37.472  22.700   0.378  0.00  0.00    +0.172 C 
ATOM      9  C   UNL     1     -37.835  24.193   3.328  0.00  0.00    +0.180 C 
ATOM     10  C   UNL     1     -36.357  26.508   2.252  0.00  0.00    +0.140 C 
ATOM     11  C   UNL     1     -34.677  22.980   1.583  0.00  0.00    +0.006 C 
ATOM     12  C   UNL     1     -34.777  25.884   0.369  0.00  0.00    +0.040 C 
ATOM     13  C   UNL     1     -34.383  27.356   0.152  0.00  0.00    +0.129 C 
ATOM     14  C   UNL     1     -36.156  27.933   1.811  0.00  0.00    -0.003 C 
ATOM     15  C   UNL     1     -35.259  28.334   0.893  0.00  0.00    -0.020 C 
ATOM     16  C   UNL     1     -35.113  29.783   0.526  0.00  0.00    +0.029 C 
ENDROOT
BRANCH   9  17
ATOM     17  O   UNL     1     -38.187  25.126   4.332  0.00  0.00    -0.379 OA
ATOM     18  H   UNL     1     -38.024  26.025   4.007  0.00  0.00    +0.211 HD
ENDBRANCH   9  17
BRANCH  13  19
ATOM     19  O   UNL     1     -33.018  27.536   0.523  0.00  0.00    -0.380 OA
ATOM     20  H   UNL     1     -32.534  27.943  -0.213  0.00  0.00    +0.211 HD
ENDBRANCH  13  19
BRANCH   7  21
ATOM     21  O   UNL     1     -36.277  22.401   3.770  0.00  0.00    -0.450 OA
BRANCH  21  23
ATOM     22  O   UNL     1     -35.188  21.000   5.249  0.00  0.00    -0.250 OA
ATOM     23  C   UNL     1     -35.546  22.112   4.885  0.00  0.00    +0.318 C 
ATOM     24  C   UNL     1     -35.232  23.377   5.625  0.00  0.00    +0.121 C 
ENDBRANCH  21  23
ENDBRANCH   7  21
BRANCH   5  25
ATOM     25  C   UNL     1     -33.978  25.754   2.752  0.00  0.00    +0.211 C 
BRANCH  25  26
ATOM     26  O   UNL     1     -34.457  26.243   3.981  0.00  0.00    -0.448 OA
BRANCH  26  28
ATOM     27  O   UNL     1     -33.407  26.858   5.946  0.00  0.00    -0.250 OA
ATOM     28  C   UNL     1     -33.568  26.968   4.737  0.00  0.00    +0.318 C 
ATOM     29  C   UNL     1     -32.805  27.927   3.874  0.00  0.00    +0.121 C 
ENDBRANCH  26  28
ENDBRANCH  25  26
ENDBRANCH   5  25
TORSDOF 7
ENDMDL
MODEL 9
REMARK VINA RESULT:      -5.4      1.818      4.698
REMARK  Name = 5458421
REMARK  7 active torsions:
REMARK  status: ('A' for Active; 'I' for Inactive)
REMARK    1  A    between atoms: C_5  and  C_25
REMARK    2  A    between atoms: C_7  and  O_21
REMARK    3  A    between atoms: C_9  and  O_17
REMARK    4  A    between atoms: C_13  and  O_19
REMARK    5  A    between atoms: O_21  and  C_23
REMARK    6  A    between atoms: C_25  and  O_26
REMARK    7  A    between atoms: O_26  and  C_28
REMARK                            x       y       z     vdW  Elec       q    Type
REMARK                         _______ _______ _______ _____ _____    ______ ____
ROOT
ATOM      1  O   UNL     1     -36.794  22.394   2.934  0.00  0.00    -0.351 OA
ATOM      2  O   UNL     1     -38.266  24.784   4.106  0.00  0.00    -0.349 OA
ATOM      3  C   UNL     1     -36.125  24.759   2.225  0.00  0.00    +0.073 C 
ATOM      4  C   UNL     1     -36.331  23.690   3.278  0.00  0.00    +0.151 C 
ATOM      5  C   UNL     1     -37.574  25.253   1.738  0.00  0.00    +0.078 C 
ATOM      6  C   UNL     1     -36.933  24.388   4.442  0.00  0.00    +0.173 C 
ATOM      7  C   UNL     1     -35.464  25.870   3.154  0.00  0.00    +0.200 C 
ATOM      8  C   UNL     1     -35.461  22.467   3.469  0.00  0.00    +0.172 C 
ATOM      9  C   UNL     1     -35.947  25.558   4.598  0.00  0.00    +0.180 C 
ATOM     10  C   UNL     1     -38.416  25.675   2.988  0.00  0.00    +0.140 C 
ATOM     11  C   UNL     1     -35.216  24.340   1.066  0.00  0.00    +0.006 C 
ATOM     12  C   UNL     1     -38.357  24.135   0.973  0.00  0.00    +0.040 C 
ATOM     13  C   UNL     1     -39.802  24.505   0.593  0.00  0.00    +0.129 C 
ATOM     14  C   UNL     1     -39.897  25.777   2.737  0.00  0.00    -0.003 C 
ATOM     15  C   UNL     1     -40.530  25.283   1.659  0.00  0.00    -0.020 C 
ATOM     16  C   UNL     1     -42.013  25.448   1.481  0.00  0.00    +0.029 C 
ENDROOT
BRANCH   9  17
ATOM     17  O   UNL     1     -36.525  26.690   5.219  0.00  0.00    -0.379 OA
ATOM     18  H   UNL     1     -35.822  27.279   5.536  0.00  0.00    +0.211 HD
ENDBRANCH   9  17
BRANCH  13  19
ATOM     19  O   UNL     1     -39.793  25.234  -0.633  0.00  0.00    -0.380 OA
ATOM     20  H   UNL     1     -40.632  25.711  -0.732  0.00  0.00    +0.211 HD
ENDBRANCH  13  19
BRANCH   7  21
ATOM     21  O   UNL     1     -34.040  25.767   3.130  0.00  0.00    -0.450 OA
BRANCH  21  23
ATOM     22  O   UNL     1     -32.769  26.688   4.825  0.00  0.00    -0.250 OA
ATOM     23  C   UNL     1     -33.366  26.773   3.760  0.00  0.00    +0.318 C 
ATOM     24  C   UNL     1     -33.460  28.029   2.949  0.00  0.00    +0.121 C 
ENDBRANCH  21  23
ENDBRANCH   7  21
BRANCH   5  25
ATOM     25  C   UNL     1     -37.436  26.470   0.777  0.00  0.00    +0.211 C 
BRANCH  25  26
ATOM     26  O   UNL     1     -37.320  27.623   1.574  0.00  0.00    -0.448 OA
BRANCH  26  28
ATOM     27  O   UNL     1     -36.836  29.866   1.297  0.00  0.00    -0.250 OA
ATOM     28  C   UNL     1     -36.658  28.688   1.013  0.00  0.00    +0.318 C 
ATOM     29  C   UNL     1     -35.670  28.213  -0.009  0.00  0.00    +0.121 C 
ENDBRANCH  26  28
ENDBRANCH  25  26
ENDBRANCH   5  25
TORSDOF 7
ENDMDL
