MODEL 1
REMARK VINA RESULT:      -6.1      0.000      0.000
REMARK  Name = 5918438
REMARK  4 active torsions:
REMARK  status: ('A' for Active; 'I' for Inactive)
REMARK    1  A    between atoms: C_10  and  C_12
REMARK    2  A    between atoms: C_11  and  C_21
REMARK    3  A    between atoms: C_17  and  N_20
REMARK    4  A    between atoms: C_26  and  N_29
REMARK                            x       y       z     vdW  Elec       q    Type
REMARK                         _______ _______ _______ _____ _____    ______ ____
ROOT
ATOM      1  S   UNL     1     -35.128  20.622   2.307  0.00  0.00    -0.001 S 
ATOM      2  O   UNL     1     -35.200  20.747   3.752  0.00  0.00    -0.172 OA
ATOM      3  O   UNL     1     -34.154  19.737   1.694  0.00  0.00    -0.172 OA
ATOM      4  O   UNL     1     -37.880  22.942  -0.236  0.00  0.00    -0.287 OA
ATOM      5  C   UNL     1     -36.743  20.118   1.740  0.00  0.00    +0.181 C 
ATOM      6  C   UNL     1     -34.849  22.253   1.638  0.00  0.00    +0.181 C 
ATOM      7  C   UNL     1     -37.052  20.810   0.456  0.00  0.00    +0.040 C 
ATOM      8  C   UNL     1     -36.162  22.929   1.425  0.00  0.00    +0.040 C 
ATOM      9  C   UNL     1     -37.115  22.297   0.471  0.00  0.00    +0.191 C 
ATOM     10  C   UNL     1     -37.341  20.176  -0.688  0.00  0.00    +0.001 C 
ATOM     11  C   UNL     1     -36.506  24.097   1.981  0.00  0.00    +0.001 C 
ENDROOT
BRANCH  10  12
ATOM     12  C   UNL     1     -37.323  18.755  -0.852  0.00  0.00    -0.000 C 
ATOM     13  C   UNL     1     -38.515  18.009  -0.809  0.00  0.00    +0.002 C 
ATOM     14  C   UNL     1     -36.113  18.069  -1.059  0.00  0.00    +0.002 C 
ATOM     15  C   UNL     1     -38.498  16.624  -0.968  0.00  0.00    +0.024 C 
ATOM     16  C   UNL     1     -36.095  16.683  -1.219  0.00  0.00    +0.024 C 
ATOM     17  C   UNL     1     -37.287  15.960  -1.174  0.00  0.00    +0.143 C 
BRANCH  17  20
ATOM     18  O   UNL     1     -36.167  13.950  -1.322  0.00  0.00    -0.126 OA
ATOM     19  O   UNL     1     -38.356  13.942  -1.492  0.00  0.00    -0.126 OA
ATOM     20  N   UNL     1     -37.270  14.549  -1.337  0.00  0.00    +0.058 N 
ENDBRANCH  17  20
ENDBRANCH  10  12
BRANCH  11  21
ATOM     21  C   UNL     1     -35.695  24.819   2.913  0.00  0.00    -0.000 C 
ATOM     22  C   UNL     1     -34.819  25.829   2.476  0.00  0.00    +0.002 C 
ATOM     23  C   UNL     1     -35.753  24.535   4.291  0.00  0.00    +0.002 C 
ATOM     24  C   UNL     1     -34.029  26.533   3.385  0.00  0.00    +0.024 C 
ATOM     25  C   UNL     1     -34.963  25.239   5.199  0.00  0.00    +0.024 C 
ATOM     26  C   UNL     1     -34.100  26.238   4.746  0.00  0.00    +0.143 C 
BRANCH  26  29
ATOM     27  O   UNL     1     -32.862  28.088   5.349  0.00  0.00    -0.126 OA
ATOM     28  O   UNL     1     -33.041  26.436   6.785  0.00  0.00    -0.126 OA
ATOM     29  N   UNL     1     -33.296  26.955   5.671  0.00  0.00    +0.058 N 
ENDBRANCH  26  29
ENDBRANCH  11  21
TORSDOF 4
ENDMDL
MODEL 2
REMARK VINA RESULT:      -6.1      0.060      9.750
REMARK  Name = 5918438
REMARK  4 active torsions:
REMARK  status: ('A' for Active; 'I' for Inactive)
REMARK    1  A    between atoms: C_10  and  C_12
REMARK    2  A    between atoms: C_11  and  C_21
REMARK    3  A    between atoms: C_17  and  N_20
REMARK    4  A    between atoms: C_26  and  N_29
REMARK                            x       y       z     vdW  Elec       q    Type
REMARK                         _______ _______ _______ _____ _____    ______ ____
ROOT
ATOM      1  S   UNL     1     -35.142  20.600   2.300  0.00  0.00    -0.001 S 
ATOM      2  O   UNL     1     -34.166  19.697   1.718  0.00  0.00    -0.172 OA
ATOM      3  O   UNL     1     -35.244  20.742   3.741  0.00  0.00    -0.172 OA
ATOM      4  O   UNL     1     -37.813  22.927  -0.322  0.00  0.00    -0.287 OA
ATOM      5  C   UNL     1     -34.830  22.221   1.621  0.00  0.00    +0.181 C 
ATOM      6  C   UNL     1     -36.752  20.110   1.705  0.00  0.00    +0.181 C 
ATOM      7  C   UNL     1     -36.130  22.909   1.374  0.00  0.00    +0.040 C 
ATOM      8  C   UNL     1     -37.026  20.792   0.406  0.00  0.00    +0.040 C 
ATOM      9  C   UNL     1     -37.070  22.281   0.407  0.00  0.00    +0.191 C 
ATOM     10  C   UNL     1     -36.471  24.087   1.914  0.00  0.00    +0.001 C 
ATOM     11  C   UNL     1     -37.301  20.153  -0.737  0.00  0.00    +0.001 C 
ENDROOT
BRANCH  10  12
ATOM     12  C   UNL     1     -35.669  24.807   2.856  0.00  0.00    -0.000 C 
ATOM     13  C   UNL     1     -35.771  24.550   4.235  0.00  0.00    +0.002 C 
ATOM     14  C   UNL     1     -34.760  25.790   2.425  0.00  0.00    +0.002 C 
ATOM     15  C   UNL     1     -34.990  25.252   5.153  0.00  0.00    +0.024 C 
ATOM     16  C   UNL     1     -33.977  26.491   3.342  0.00  0.00    +0.024 C 
ATOM     17  C   UNL     1     -34.092  26.223   4.706  0.00  0.00    +0.143 C 
BRANCH  17  20
ATOM     18  O   UNL     1     -32.835  28.058   5.315  0.00  0.00    -0.126 OA
ATOM     19  O   UNL     1     -33.075  26.427   6.765  0.00  0.00    -0.126 OA
ATOM     20  N   UNL     1     -33.296  26.937   5.641  0.00  0.00    +0.058 N 
ENDBRANCH  17  20
ENDBRANCH  10  12
BRANCH  11  21
ATOM     21  C   UNL     1     -37.296  18.730  -0.888  0.00  0.00    -0.000 C 
ATOM     22  C   UNL     1     -38.491  17.991  -0.806  0.00  0.00    +0.002 C 
ATOM     23  C   UNL     1     -36.095  18.033  -1.122  0.00  0.00    +0.002 C 
ATOM     24  C   UNL     1     -38.486  16.604  -0.954  0.00  0.00    +0.024 C 
ATOM     25  C   UNL     1     -36.091  16.647  -1.270  0.00  0.00    +0.024 C 
ATOM     26  C   UNL     1     -37.286  15.932  -1.185  0.00  0.00    +0.143 C 
BRANCH  26  29
ATOM     27  O   UNL     1     -36.182  13.916  -1.379  0.00  0.00    -0.126 OA
ATOM     28  O   UNL     1     -38.377  13.914  -1.424  0.00  0.00    -0.126 OA
ATOM     29  N   UNL     1     -37.282  14.520  -1.337  0.00  0.00    +0.058 N 
ENDBRANCH  26  29
ENDBRANCH  11  21
TORSDOF 4
ENDMDL
MODEL 3
REMARK VINA RESULT:      -6.1      4.364      8.219
REMARK  Name = 5918438
REMARK  4 active torsions:
REMARK  status: ('A' for Active; 'I' for Inactive)
REMARK    1  A    between atoms: C_10  and  C_12
REMARK    2  A    between atoms: C_11  and  C_21
REMARK    3  A    between atoms: C_17  and  N_20
REMARK    4  A    between atoms: C_26  and  N_29
REMARK                            x       y       z     vdW  Elec       q    Type
REMARK                         _______ _______ _______ _____ _____    ______ ____
ROOT
ATOM      1  S   UNL     1     -35.479  22.881   1.909  0.00  0.00    -0.001 S 
ATOM      2  O   UNL     1     -34.302  23.328   1.186  0.00  0.00    -0.172 OA
ATOM      3  O   UNL     1     -35.800  23.443   3.209  0.00  0.00    -0.172 OA
ATOM      4  O   UNL     1     -38.095  19.800   0.152  0.00  0.00    -0.287 OA
ATOM      5  C   UNL     1     -36.886  23.152   0.845  0.00  0.00    +0.181 C 
ATOM      6  C   UNL     1     -35.343  21.114   2.120  0.00  0.00    +0.181 C 
ATOM      7  C   UNL     1     -37.845  22.020   1.001  0.00  0.00    +0.040 C 
ATOM      8  C   UNL     1     -35.925  20.429   0.929  0.00  0.00    +0.040 C 
ATOM      9  C   UNL     1     -37.368  20.657   0.641  0.00  0.00    +0.191 C 
ATOM     10  C   UNL     1     -39.123  22.165   1.377  0.00  0.00    +0.001 C 
ATOM     11  C   UNL     1     -35.252  19.575   0.148  0.00  0.00    +0.001 C 
ENDROOT
BRANCH  10  12
ATOM     12  C   UNL     1     -39.719  23.411   1.751  0.00  0.00    -0.000 C 
ATOM     13  C   UNL     1     -39.369  24.044   2.957  0.00  0.00    +0.002 C 
ATOM     14  C   UNL     1     -40.669  24.032   0.921  0.00  0.00    +0.002 C 
ATOM     15  C   UNL     1     -39.951  25.258   3.321  0.00  0.00    +0.024 C 
ATOM     16  C   UNL     1     -41.250  25.247   1.284  0.00  0.00    +0.024 C 
ATOM     17  C   UNL     1     -40.892  25.861   2.484  0.00  0.00    +0.143 C 
BRANCH  17  20
ATOM     18  O   UNL     1     -41.557  27.395   4.072  0.00  0.00    -0.126 OA
ATOM     19  O   UNL     1     -41.914  27.859   1.956  0.00  0.00    -0.126 OA
ATOM     20  N   UNL     1     -41.483  27.098   2.855  0.00  0.00    +0.058 N 
ENDBRANCH  17  20
ENDBRANCH  10  12
BRANCH  11  21
ATOM     21  C   UNL     1     -33.865  19.259   0.305  0.00  0.00    -0.000 C 
ATOM     22  C   UNL     1     -32.869  20.132  -0.167  0.00  0.00    +0.002 C 
ATOM     23  C   UNL     1     -33.464  18.066   0.935  0.00  0.00    +0.002 C 
ATOM     24  C   UNL     1     -31.516  19.824  -0.015  0.00  0.00    +0.024 C 
ATOM     25  C   UNL     1     -32.113  17.758   1.087  0.00  0.00    +0.024 C 
ATOM     26  C   UNL     1     -31.139  18.637   0.612  0.00  0.00    +0.143 C 
BRANCH  26  29
ATOM     27  O   UNL     1     -28.908  19.022   0.170  0.00  0.00    -0.126 OA
ATOM     28  O   UNL     1     -29.438  17.357   1.500  0.00  0.00    -0.126 OA
ATOM     29  N   UNL     1     -29.762  18.324   0.768  0.00  0.00    +0.058 N 
ENDBRANCH  26  29
ENDBRANCH  11  21
TORSDOF 4
ENDMDL
MODEL 4
REMARK VINA RESULT:      -6.1      4.352      5.835
REMARK  Name = 5918438
REMARK  4 active torsions:
REMARK  status: ('A' for Active; 'I' for Inactive)
REMARK    1  A    between atoms: C_10  and  C_12
REMARK    2  A    between atoms: C_11  and  C_21
REMARK    3  A    between atoms: C_17  and  N_20
REMARK    4  A    between atoms: C_26  and  N_29
REMARK                            x       y       z     vdW  Elec       q    Type
REMARK                         _______ _______ _______ _____ _____    ______ ____
ROOT
ATOM      1  S   UNL     1     -35.535  22.851   1.913  0.00  0.00    -0.001 S 
ATOM      2  O   UNL     1     -35.865  23.397   3.217  0.00  0.00    -0.172 OA
ATOM      3  O   UNL     1     -34.348  23.300   1.208  0.00  0.00    -0.172 OA
ATOM      4  O   UNL     1     -38.151  19.816   0.079  0.00  0.00    -0.287 OA
ATOM      5  C   UNL     1     -35.413  21.080   2.098  0.00  0.00    +0.181 C 
ATOM      6  C   UNL     1     -36.928  23.148   0.837  0.00  0.00    +0.181 C 
ATOM      7  C   UNL     1     -35.986  20.419   0.890  0.00  0.00    +0.040 C 
ATOM      8  C   UNL     1     -37.898  22.020   0.965  0.00  0.00    +0.040 C 
ATOM      9  C   UNL     1     -37.424  20.659   0.589  0.00  0.00    +0.191 C 
ATOM     10  C   UNL     1     -35.308  19.573   0.103  0.00  0.00    +0.001 C 
ATOM     11  C   UNL     1     -39.178  22.166   1.327  0.00  0.00    +0.001 C 
ENDROOT
BRANCH  10  12
ATOM     12  C   UNL     1     -33.925  19.246   0.271  0.00  0.00    -0.000 C 
ATOM     13  C   UNL     1     -32.918  20.135  -0.147  0.00  0.00    +0.002 C 
ATOM     14  C   UNL     1     -33.539  18.028   0.858  0.00  0.00    +0.002 C 
ATOM     15  C   UNL     1     -31.570  19.817   0.016  0.00  0.00    +0.024 C 
ATOM     16  C   UNL     1     -32.191  17.709   1.023  0.00  0.00    +0.024 C 
ATOM     17  C   UNL     1     -31.206  18.603   0.602  0.00  0.00    +0.143 C 
BRANCH  17  20
ATOM     18  O   UNL     1     -29.521  17.327   1.525  0.00  0.00    -0.126 OA
ATOM     19  O   UNL     1     -28.971  18.955   0.158  0.00  0.00    -0.126 OA
ATOM     20  N   UNL     1     -29.833  18.280   0.769  0.00  0.00    +0.058 N 
ENDBRANCH  17  20
ENDBRANCH  10  12
BRANCH  11  21
ATOM     21  C   UNL     1     -39.771  23.410   1.714  0.00  0.00    -0.000 C 
ATOM     22  C   UNL     1     -39.417  24.033   2.923  0.00  0.00    +0.002 C 
ATOM     23  C   UNL     1     -40.726  24.039   0.892  0.00  0.00    +0.002 C 
ATOM     24  C   UNL     1     -39.995  25.246   3.300  0.00  0.00    +0.024 C 
ATOM     25  C   UNL     1     -41.303  25.251   1.268  0.00  0.00    +0.024 C 
ATOM     26  C   UNL     1     -40.939  25.854   2.472  0.00  0.00    +0.143 C 
BRANCH  26  29
ATOM     27  O   UNL     1     -41.964  27.857   1.964  0.00  0.00    -0.126 OA
ATOM     28  O   UNL     1     -41.595  27.378   4.074  0.00  0.00    -0.126 OA
ATOM     29  N   UNL     1     -41.527  27.089   2.855  0.00  0.00    +0.058 N 
ENDBRANCH  26  29
ENDBRANCH  11  21
TORSDOF 4
ENDMDL
MODEL 5
REMARK VINA RESULT:      -6.0      4.543     10.381
REMARK  Name = 5918438
REMARK  4 active torsions:
REMARK  status: ('A' for Active; 'I' for Inactive)
REMARK    1  A    between atoms: C_10  and  C_12
REMARK    2  A    between atoms: C_11  and  C_21
REMARK    3  A    between atoms: C_17  and  N_20
REMARK    4  A    between atoms: C_26  and  N_29
REMARK                            x       y       z     vdW  Elec       q    Type
REMARK                         _______ _______ _______ _____ _____    ______ ____
ROOT
ATOM      1  S   UNL     1     -37.002  26.143   2.263  0.00  0.00    -0.001 S 
ATOM      2  O   UNL     1     -38.369  26.632   2.249  0.00  0.00    -0.172 OA
ATOM      3  O   UNL     1     -35.945  26.898   1.616  0.00  0.00    -0.172 OA
ATOM      4  O   UNL     1     -36.054  22.340   4.278  0.00  0.00    -0.287 OA
ATOM      5  C   UNL     1     -36.538  25.924   3.972  0.00  0.00    +0.181 C 
ATOM      6  C   UNL     1     -37.006  24.514   1.532  0.00  0.00    +0.181 C 
ATOM      7  C   UNL     1     -35.701  24.697   4.101  0.00  0.00    +0.040 C 
ATOM      8  C   UNL     1     -37.285  23.500   2.591  0.00  0.00    +0.040 C 
ATOM      9  C   UNL     1     -36.317  23.397   3.718  0.00  0.00    +0.191 C 
ATOM     10  C   UNL     1     -34.458  24.684   4.602  0.00  0.00    +0.001 C 
ATOM     11  C   UNL     1     -38.307  22.636   2.554  0.00  0.00    +0.001 C 
ENDROOT
BRANCH  10  12
ATOM     12  C   UNL     1     -33.741  25.852   5.012  0.00  0.00    -0.000 C 
ATOM     13  C   UNL     1     -33.562  26.146   6.377  0.00  0.00    +0.002 C 
ATOM     14  C   UNL     1     -33.196  26.735   4.062  0.00  0.00    +0.002 C 
ATOM     15  C   UNL     1     -32.863  27.284   6.777  0.00  0.00    +0.024 C 
ATOM     16  C   UNL     1     -32.496  27.873   4.462  0.00  0.00    +0.024 C 
ATOM     17  C   UNL     1     -32.329  28.148   5.820  0.00  0.00    +0.143 C 
BRANCH  17  20
ATOM     18  O   UNL     1     -32.177  30.427   6.143  0.00  0.00    -0.126 OA
ATOM     19  O   UNL     1     -30.446  29.179   6.661  0.00  0.00    -0.126 OA
ATOM     20  N   UNL     1     -31.616  29.307   6.228  0.00  0.00    +0.058 N 
ENDBRANCH  17  20
ENDBRANCH  10  12
BRANCH  11  21
ATOM     21  C   UNL     1     -39.312  22.616   1.536  0.00  0.00    -0.000 C 
ATOM     22  C   UNL     1     -39.439  21.515   0.670  0.00  0.00    +0.002 C 
ATOM     23  C   UNL     1     -40.199  23.697   1.376  0.00  0.00    +0.002 C 
ATOM     24  C   UNL     1     -40.419  21.495  -0.323  0.00  0.00    +0.024 C 
ATOM     25  C   UNL     1     -41.179  23.677   0.384  0.00  0.00    +0.024 C 
ATOM     26  C   UNL     1     -41.289  22.576  -0.465  0.00  0.00    +0.143 C 
BRANCH  26  29
ATOM     27  O   UNL     1     -43.465  22.257  -1.160  0.00  0.00    -0.126 OA
ATOM     28  O   UNL     1     -41.965  22.835  -2.655  0.00  0.00    -0.126 OA
ATOM     29  N   UNL     1     -42.287  22.555  -1.475  0.00  0.00    +0.058 N 
ENDBRANCH  26  29
ENDBRANCH  11  21
TORSDOF 4
ENDMDL
MODEL 6
REMARK VINA RESULT:      -6.0      5.070     11.184
REMARK  Name = 5918438
REMARK  4 active torsions:
REMARK  status: ('A' for Active; 'I' for Inactive)
REMARK    1  A    between atoms: C_10  and  C_12
REMARK    2  A    between atoms: C_11  and  C_21
REMARK    3  A    between atoms: C_17  and  N_20
REMARK    4  A    between atoms: C_26  and  N_29
REMARK                            x       y       z     vdW  Elec       q    Type
REMARK                         _______ _______ _______ _____ _____    ______ ____
ROOT
ATOM      1  S   UNL     1     -34.113  25.877   4.898  0.00  0.00    -0.001 S 
ATOM      2  O   UNL     1     -34.122  24.496   4.449  0.00  0.00    -0.172 OA
ATOM      3  O   UNL     1     -34.052  26.188   6.315  0.00  0.00    -0.172 OA
ATOM      4  O   UNL     1     -34.272  29.144   1.945  0.00  0.00    -0.287 OA
ATOM      5  C   UNL     1     -32.725  26.678   4.111  0.00  0.00    +0.181 C 
ATOM      6  C   UNL     1     -35.578  26.663   4.250  0.00  0.00    +0.181 C 
ATOM      7  C   UNL     1     -33.109  28.068   3.734  0.00  0.00    +0.040 C 
ATOM      8  C   UNL     1     -35.288  27.198   2.887  0.00  0.00    +0.040 C 
ATOM      9  C   UNL     1     -34.228  28.236   2.766  0.00  0.00    +0.191 C 
ATOM     10  C   UNL     1     -32.469  29.166   4.157  0.00  0.00    +0.001 C 
ATOM     11  C   UNL     1     -35.965  26.855   1.785  0.00  0.00    +0.001 C 
ENDROOT
BRANCH  10  12
ATOM     12  C   UNL     1     -31.378  29.159   5.083  0.00  0.00    -0.000 C 
ATOM     13  C   UNL     1     -30.059  28.942   4.642  0.00  0.00    +0.002 C 
ATOM     14  C   UNL     1     -31.597  29.368   6.456  0.00  0.00    +0.002 C 
ATOM     15  C   UNL     1     -28.996  28.934   5.544  0.00  0.00    +0.024 C 
ATOM     16  C   UNL     1     -30.533  29.361   7.359  0.00  0.00    +0.024 C 
ATOM     17  C   UNL     1     -29.233  29.145   6.904  0.00  0.00    +0.143 C 
BRANCH  17  20
ATOM     18  O   UNL     1     -28.066  30.061   8.669  0.00  0.00    -0.126 OA
ATOM     19  O   UNL     1     -27.307  28.211   7.762  0.00  0.00    -0.126 OA
ATOM     20  N   UNL     1     -28.150  29.138   7.822  0.00  0.00    +0.058 N 
ENDBRANCH  17  20
ENDBRANCH  10  12
BRANCH  11  21
ATOM     21  C   UNL     1     -37.008  25.875   1.749  0.00  0.00    -0.000 C 
ATOM     22  C   UNL     1     -38.355  26.250   1.897  0.00  0.00    +0.002 C 
ATOM     23  C   UNL     1     -36.710  24.512   1.564  0.00  0.00    +0.002 C 
ATOM     24  C   UNL     1     -39.372  25.295   1.861  0.00  0.00    +0.024 C 
ATOM     25  C   UNL     1     -37.726  23.558   1.528  0.00  0.00    +0.024 C 
ATOM     26  C   UNL     1     -39.057  23.949   1.677  0.00  0.00    +0.143 C 
BRANCH  26  29
ATOM     27  O   UNL     1     -39.907  21.870   2.202  0.00  0.00    -0.126 OA
ATOM     28  O   UNL     1     -41.163  23.251   1.046  0.00  0.00    -0.126 OA
ATOM     29  N   UNL     1     -40.092  22.977   1.640  0.00  0.00    +0.058 N 
ENDBRANCH  26  29
ENDBRANCH  11  21
TORSDOF 4
ENDMDL
MODEL 7
REMARK VINA RESULT:      -6.0      4.513      5.688
REMARK  Name = 5918438
REMARK  4 active torsions:
REMARK  status: ('A' for Active; 'I' for Inactive)
REMARK    1  A    between atoms: C_10  and  C_12
REMARK    2  A    between atoms: C_11  and  C_21
REMARK    3  A    between atoms: C_17  and  N_20
REMARK    4  A    between atoms: C_26  and  N_29
REMARK                            x       y       z     vdW  Elec       q    Type
REMARK                         _______ _______ _______ _____ _____    ______ ____
ROOT
ATOM      1  S   UNL     1     -37.028  26.153   2.268  0.00  0.00    -0.001 S 
ATOM      2  O   UNL     1     -35.986  26.929   1.620  0.00  0.00    -0.172 OA
ATOM      3  O   UNL     1     -38.400  26.627   2.274  0.00  0.00    -0.172 OA
ATOM      4  O   UNL     1     -36.024  22.338   4.232  0.00  0.00    -0.287 OA
ATOM      5  C   UNL     1     -37.022  24.533   1.520  0.00  0.00    +0.181 C 
ATOM      6  C   UNL     1     -36.546  25.920   3.971  0.00  0.00    +0.181 C 
ATOM      7  C   UNL     1     -37.281  23.506   2.569  0.00  0.00    +0.040 C 
ATOM      8  C   UNL     1     -35.694  24.699   4.079  0.00  0.00    +0.040 C 
ATOM      9  C   UNL     1     -36.303  23.398   3.686  0.00  0.00    +0.191 C 
ATOM     10  C   UNL     1     -38.297  22.633   2.532  0.00  0.00    +0.001 C 
ATOM     11  C   UNL     1     -34.449  24.692   4.569  0.00  0.00    +0.001 C 
ENDROOT
BRANCH  10  12
ATOM     12  C   UNL     1     -39.310  22.615   1.522  0.00  0.00    -0.000 C 
ATOM     13  C   UNL     1     -39.440  21.517   0.651  0.00  0.00    +0.002 C 
ATOM     14  C   UNL     1     -40.201  23.694   1.375  0.00  0.00    +0.002 C 
ATOM     15  C   UNL     1     -40.428  21.500  -0.334  0.00  0.00    +0.024 C 
ATOM     16  C   UNL     1     -41.189  23.676   0.390  0.00  0.00    +0.024 C 
ATOM     17  C   UNL     1     -41.303  22.579  -0.464  0.00  0.00    +0.143 C 
BRANCH  17  20
ATOM     18  O   UNL     1     -41.967  22.445  -2.669  0.00  0.00    -0.126 OA
ATOM     19  O   UNL     1     -43.511  22.660  -1.123  0.00  0.00    -0.126 OA
ATOM     20  N   UNL     1     -42.309  22.560  -1.466  0.00  0.00    +0.058 N 
ENDBRANCH  17  20
ENDBRANCH  10  12
BRANCH  11  21
ATOM     21  C   UNL     1     -33.738  25.861   4.986  0.00  0.00    -0.000 C 
ATOM     22  C   UNL     1     -33.557  26.148   6.351  0.00  0.00    +0.002 C 
ATOM     23  C   UNL     1     -33.200  26.755   4.040  0.00  0.00    +0.002 C 
ATOM     24  C   UNL     1     -32.863  27.288   6.758  0.00  0.00    +0.024 C 
ATOM     25  C   UNL     1     -32.506  27.893   4.446  0.00  0.00    +0.024 C 
ATOM     26  C   UNL     1     -32.338  28.160   5.805  0.00  0.00    +0.143 C 
BRANCH  26  29
ATOM     27  O   UNL     1     -30.464  29.195   6.665  0.00  0.00    -0.126 OA
ATOM     28  O   UNL     1     -32.191  30.439   6.128  0.00  0.00    -0.126 OA
ATOM     29  N   UNL     1     -31.631  29.321   6.219  0.00  0.00    +0.058 N 
ENDBRANCH  26  29
ENDBRANCH  11  21
TORSDOF 4
ENDMDL
MODEL 8
REMARK VINA RESULT:      -6.0      5.087      7.319
REMARK  Name = 5918438
REMARK  4 active torsions:
REMARK  status: ('A' for Active; 'I' for Inactive)
REMARK    1  A    between atoms: C_10  and  C_12
REMARK    2  A    between atoms: C_11  and  C_21
REMARK    3  A    between atoms: C_17  and  N_20
REMARK    4  A    between atoms: C_26  and  N_29
REMARK                            x       y       z     vdW  Elec       q    Type
REMARK                         _______ _______ _______ _____ _____    ______ ____
ROOT
ATOM      1  S   UNL     1     -34.084  25.866   4.935  0.00  0.00    -0.001 S 
ATOM      2  O   UNL     1     -34.012  26.158   6.355  0.00  0.00    -0.172 OA
ATOM      3  O   UNL     1     -34.089  24.492   4.467  0.00  0.00    -0.172 OA
ATOM      4  O   UNL     1     -34.284  29.168   2.023  0.00  0.00    -0.287 OA
ATOM      5  C   UNL     1     -35.558  26.653   4.308  0.00  0.00    +0.181 C 
ATOM      6  C   UNL     1     -32.706  26.683   4.147  0.00  0.00    +0.181 C 
ATOM      7  C   UNL     1     -35.282  27.205   2.951  0.00  0.00    +0.040 C 
ATOM      8  C   UNL     1     -33.100  28.078   3.789  0.00  0.00    +0.040 C 
ATOM      9  C   UNL     1     -34.229  28.250   2.832  0.00  0.00    +0.191 C 
ATOM     10  C   UNL     1     -35.967  26.869   1.850  0.00  0.00    +0.001 C 
ATOM     11  C   UNL     1     -32.462  29.173   4.217  0.00  0.00    +0.001 C 
ENDROOT
BRANCH  10  12
ATOM     12  C   UNL     1     -37.004  25.885   1.812  0.00  0.00    -0.000 C 
ATOM     13  C   UNL     1     -36.697  24.519   1.677  0.00  0.00    +0.002 C 
ATOM     14  C   UNL     1     -38.357  26.259   1.908  0.00  0.00    +0.002 C 
ATOM     15  C   UNL     1     -37.708  23.559   1.640  0.00  0.00    +0.024 C 
ATOM     16  C   UNL     1     -39.369  25.299   1.873  0.00  0.00    +0.024 C 
ATOM     17  C   UNL     1     -39.045  23.949   1.739  0.00  0.00    +0.143 C 
BRANCH  17  20
ATOM     18  O   UNL     1     -41.153  23.247   1.122  0.00  0.00    -0.126 OA
ATOM     19  O   UNL     1     -39.877  21.861   2.250  0.00  0.00    -0.126 OA
ATOM     20  N   UNL     1     -40.074  22.971   1.702  0.00  0.00    +0.058 N 
ENDBRANCH  17  20
ENDBRANCH  10  12
BRANCH  11  21
ATOM     21  C   UNL     1     -31.364  29.162   5.135  0.00  0.00    -0.000 C 
ATOM     22  C   UNL     1     -31.578  29.292   6.519  0.00  0.00    +0.002 C 
ATOM     23  C   UNL     1     -30.041  29.020   4.675  0.00  0.00    +0.002 C 
ATOM     24  C   UNL     1     -30.508  29.280   7.413  0.00  0.00    +0.024 C 
ATOM     25  C   UNL     1     -28.971  29.008   5.569  0.00  0.00    +0.024 C 
ATOM     26  C   UNL     1     -29.204  29.139   6.938  0.00  0.00    +0.143 C 
BRANCH  26  29
ATOM     27  O   UNL     1     -28.063  30.000   8.747  0.00  0.00    -0.126 OA
ATOM     28  O   UNL     1     -27.232  28.242   7.729  0.00  0.00    -0.126 OA
ATOM     29  N   UNL     1     -28.114  29.126   7.848  0.00  0.00    +0.058 N 
ENDBRANCH  26  29
ENDBRANCH  11  21
TORSDOF 4
ENDMDL
MODEL 9
REMARK VINA RESULT:      -5.9      4.598      8.761
REMARK  Name = 5918438
REMARK  4 active torsions:
REMARK  status: ('A' for Active; 'I' for Inactive)
REMARK    1  A    between atoms: C_10  and  C_12
REMARK    2  A    between atoms: C_11  and  C_21
REMARK    3  A    between atoms: C_17  and  N_20
REMARK    4  A    between atoms: C_26  and  N_29
REMARK                            x       y       z     vdW  Elec       q    Type
REMARK                         _______ _______ _______ _____ _____    ______ ____
ROOT
ATOM      1  S   UNL     1     -36.908  23.609   2.428  0.00  0.00    -0.001 S 
ATOM      2  O   UNL     1     -35.552  24.033   2.130  0.00  0.00    -0.172 OA
ATOM      3  O   UNL     1     -37.460  23.796   3.757  0.00  0.00    -0.172 OA
ATOM      4  O   UNL     1     -39.364  21.741  -0.719  0.00  0.00    -0.287 OA
ATOM      5  C   UNL     1     -37.986  24.442   1.276  0.00  0.00    +0.181 C 
ATOM      6  C   UNL     1     -37.022  21.868   2.052  0.00  0.00    +0.181 C 
ATOM      7  C   UNL     1     -39.075  23.511   0.860  0.00  0.00    +0.040 C 
ATOM      8  C   UNL     1     -37.381  21.698   0.613  0.00  0.00    +0.040 C 
ATOM      9  C   UNL     1     -38.681  22.260   0.156  0.00  0.00    +0.191 C 
ATOM     10  C   UNL     1     -40.381  23.764   1.019  0.00  0.00    +0.001 C 
ATOM     11  C   UNL     1     -36.642  21.015  -0.271  0.00  0.00    +0.001 C 
ENDROOT
BRANCH  10  12
ATOM     12  C   UNL     1     -40.906  24.923   1.673  0.00  0.00    -0.000 C 
ATOM     13  C   UNL     1     -41.710  25.842   0.974  0.00  0.00    +0.002 C 
ATOM     14  C   UNL     1     -40.632  25.171   3.030  0.00  0.00    +0.002 C 
ATOM     15  C   UNL     1     -42.222  26.973   1.611  0.00  0.00    +0.024 C 
ATOM     16  C   UNL     1     -41.145  26.301   3.668  0.00  0.00    +0.024 C 
ATOM     17  C   UNL     1     -41.940  27.202   2.959  0.00  0.00    +0.143 C 
BRANCH  17  20
ATOM     18  O   UNL     1     -43.444  28.944   3.097  0.00  0.00    -0.126 OA
ATOM     19  O   UNL     1     -41.928  28.745   4.673  0.00  0.00    -0.126 OA
ATOM     20  N   UNL     1     -42.462  28.352   3.608  0.00  0.00    +0.058 N 
ENDBRANCH  17  20
ENDBRANCH  10  12
BRANCH  11  21
ATOM     21  C   UNL     1     -35.375  20.420   0.024  0.00  0.00    -0.000 C 
ATOM     22  C   UNL     1     -35.273  19.049   0.323  0.00  0.00    +0.002 C 
ATOM     23  C   UNL     1     -34.197  21.191   0.022  0.00  0.00    +0.002 C 
ATOM     24  C   UNL     1     -34.038  18.468   0.609  0.00  0.00    +0.024 C 
ATOM     25  C   UNL     1     -32.963  20.611   0.308  0.00  0.00    +0.024 C 
ATOM     26  C   UNL     1     -32.882  19.250   0.602  0.00  0.00    +0.143 C 
BRANCH  26  29
ATOM     27  O   UNL     1     -31.576  17.697   1.699  0.00  0.00    -0.126 OA
ATOM     28  O   UNL     1     -30.595  19.114   0.338  0.00  0.00    -0.126 OA
ATOM     29  N   UNL     1     -31.624  18.659   0.894  0.00  0.00    +0.058 N 
ENDBRANCH  26  29
ENDBRANCH  11  21
TORSDOF 4
ENDMDL
