MODEL 1
REMARK VINA RESULT:      -4.6      0.000      0.000
REMARK  Name = 560193
REMARK  8 active torsions:
REMARK  status: ('A' for Active; 'I' for Inactive)
REMARK    1  A    between atoms: C_1  and  S_2
REMARK    2  A    between atoms: C_1  and  C_10
REMARK    3  A    between atoms: S_2  and  C_3
REMARK    4  A    between atoms: C_3  and  C_7
REMARK    5  A    between atoms: C_10  and  S_11
REMARK    6  A    between atoms: S_11  and  P_12
REMARK    7  A    between atoms: P_12  and  O_14
REMARK    8  A    between atoms: P_12  and  O_16
REMARK                            x       y       z     vdW  Elec       q    Type
REMARK                         _______ _______ _______ _____ _____    ______ ____
ROOT
ATOM      1  C   UNL     1     -34.044  25.249   4.272  0.00  0.00    +0.070 C 
ENDROOT
BRANCH   1   2
ATOM      2  S   UNL     1     -35.347  24.639   5.382  0.00  0.00    -0.131 S 
BRANCH   2   3
ATOM      3  C   UNL     1     -35.113  22.868   5.109  0.00  0.00    +0.124 C 
ATOM      4  C   UNL     1     -35.347  22.110   6.409  0.00  0.00    +0.021 C 
BRANCH   3   7
ATOM      5  O   UNL     1     -37.109  23.058   3.757  0.00  0.00    -0.274 OA
ATOM      6  N   UNL     1     -35.669  21.280   3.369  0.00  0.00    -0.302 N 
ATOM      7  C   UNL     1     -36.084  22.432   4.021  0.00  0.00    +0.232 C 
ATOM      8  C   UNL     1     -36.417  20.684   2.286  0.00  0.00    +0.111 C 
ATOM      9  H   UNL     1     -34.831  20.850   3.656  0.00  0.00    +0.150 HD
ENDBRANCH   3   7
ENDBRANCH   2   3
ENDBRANCH   1   2
BRANCH   1  10
ATOM     10  C   UNL     1     -34.233  26.738   4.012  0.00  0.00    +0.081 C 
BRANCH  10  11
ATOM     11  S   UNL     1     -32.629  27.540   3.808  0.00  0.00    -0.030 S 
BRANCH  11  12
ATOM     12  P   UNL     1     -32.063  28.142   5.741  0.00  0.00    +0.393 P 
ATOM     13  O   UNL     1     -32.871  27.399   6.773  0.00  0.00    -0.246 OA
BRANCH  12  14
ATOM     14  O   UNL     1     -32.234  29.753   5.870  0.00  0.00    -0.284 OA
ATOM     15  C   UNL     1     -32.465  30.512   4.695  0.00  0.00    +0.185 C 
ENDBRANCH  12  14
BRANCH  12  16
ATOM     16  O   UNL     1     -30.467  27.929   5.965  0.00  0.00    -0.284 OA
ATOM     17  C   UNL     1     -29.690  28.958   6.554  0.00  0.00    +0.185 C 
ENDBRANCH  12  16
ENDBRANCH  11  12
ENDBRANCH  10  11
ENDBRANCH   1  10
TORSDOF 8
ENDMDL
MODEL 2
REMARK VINA RESULT:      -4.3      3.635      7.859
REMARK  Name = 560193
REMARK  8 active torsions:
REMARK  status: ('A' for Active; 'I' for Inactive)
REMARK    1  A    between atoms: C_1  and  S_2
REMARK    2  A    between atoms: C_1  and  C_10
REMARK    3  A    between atoms: S_2  and  C_3
REMARK    4  A    between atoms: C_3  and  C_7
REMARK    5  A    between atoms: C_10  and  S_11
REMARK    6  A    between atoms: S_11  and  P_12
REMARK    7  A    between atoms: P_12  and  O_14
REMARK    8  A    between atoms: P_12  and  O_16
REMARK                            x       y       z     vdW  Elec       q    Type
REMARK                         _______ _______ _______ _____ _____    ______ ____
ROOT
ATOM      1  C   UNL     1     -33.225  27.205   4.596  0.00  0.00    +0.070 C 
ENDROOT
BRANCH   1   2
ATOM      2  S   UNL     1     -32.436  27.450   6.215  0.00  0.00    -0.131 S 
BRANCH   2   3
ATOM      3  C   UNL     1     -31.289  28.767   5.749  0.00  0.00    +0.124 C 
ATOM      4  C   UNL     1     -31.807  30.105   6.258  0.00  0.00    +0.021 C 
BRANCH   3   7
ATOM      5  O   UNL     1     -29.261  27.467   5.962  0.00  0.00    -0.274 OA
ATOM      6  N   UNL     1     -29.534  29.331   7.317  0.00  0.00    -0.302 N 
ATOM      7  C   UNL     1     -29.928  28.429   6.339  0.00  0.00    +0.232 C 
ATOM      8  C   UNL     1     -28.270  29.229   8.009  0.00  0.00    +0.111 C 
ATOM      9  H   UNL     1     -30.141  30.071   7.549  0.00  0.00    +0.150 HD
ENDBRANCH   3   7
ENDBRANCH   2   3
ENDBRANCH   1   2
BRANCH   1  10
ATOM     10  C   UNL     1     -34.502  26.389   4.753  0.00  0.00    +0.081 C 
BRANCH  10  11
ATOM     11  S   UNL     1     -34.141  24.631   4.571  0.00  0.00    -0.030 S 
BRANCH  11  12
ATOM     12  P   UNL     1     -36.014  23.678   4.591  0.00  0.00    +0.393 P 
ATOM     13  O   UNL     1     -37.118  24.703   4.596  0.00  0.00    -0.246 OA
BRANCH  12  14
ATOM     14  O   UNL     1     -36.094  22.684   5.875  0.00  0.00    -0.284 OA
ATOM     15  C   UNL     1     -35.072  21.718   6.055  0.00  0.00    +0.185 C 
ENDBRANCH  12  14
BRANCH  12  16
ATOM     16  O   UNL     1     -36.153  22.656   3.334  0.00  0.00    -0.284 OA
ATOM     17  C   UNL     1     -35.215  22.705   2.273  0.00  0.00    +0.185 C 
ENDBRANCH  12  16
ENDBRANCH  11  12
ENDBRANCH  10  11
ENDBRANCH   1  10
TORSDOF 8
ENDMDL
MODEL 3
REMARK VINA RESULT:      -4.3      3.365      7.241
REMARK  Name = 560193
REMARK  8 active torsions:
REMARK  status: ('A' for Active; 'I' for Inactive)
REMARK    1  A    between atoms: C_1  and  S_2
REMARK    2  A    between atoms: C_1  and  C_10
REMARK    3  A    between atoms: S_2  and  C_3
REMARK    4  A    between atoms: C_3  and  C_7
REMARK    5  A    between atoms: C_10  and  S_11
REMARK    6  A    between atoms: S_11  and  P_12
REMARK    7  A    between atoms: P_12  and  O_14
REMARK    8  A    between atoms: P_12  and  O_16
REMARK                            x       y       z     vdW  Elec       q    Type
REMARK                         _______ _______ _______ _____ _____    ______ ____
ROOT
ATOM      1  C   UNL     1     -35.504  26.742   3.007  0.00  0.00    +0.070 C 
ENDROOT
BRANCH   1   2
ATOM      2  S   UNL     1     -34.684  26.417   4.596  0.00  0.00    -0.131 S 
BRANCH   2   3
ATOM      3  C   UNL     1     -33.128  27.275   4.267  0.00  0.00    +0.124 C 
ATOM      4  C   UNL     1     -33.375  28.446   3.326  0.00  0.00    +0.021 C 
BRANCH   3   7
ATOM      5  O   UNL     1     -32.396  26.974   6.552  0.00  0.00    -0.274 OA
ATOM      6  N   UNL     1     -32.237  29.085   5.604  0.00  0.00    -0.302 N 
ATOM      7  C   UNL     1     -32.559  27.736   5.601  0.00  0.00    +0.232 C 
ATOM      8  C   UNL     1     -31.664  29.749   6.752  0.00  0.00    +0.111 C 
ATOM      9  H   UNL     1     -32.407  29.614   4.790  0.00  0.00    +0.150 HD
ENDBRANCH   3   7
ENDBRANCH   2   3
ENDBRANCH   1   2
BRANCH   1  10
ATOM     10  C   UNL     1     -35.946  25.432   2.368  0.00  0.00    +0.081 C 
BRANCH  10  11
ATOM     11  S   UNL     1     -34.839  24.096   2.863  0.00  0.00    -0.030 S 
BRANCH  11  12
ATOM     12  P   UNL     1     -36.079  22.656   3.763  0.00  0.00    +0.393 P 
ATOM     13  O   UNL     1     -35.583  21.270   3.442  0.00  0.00    -0.246 OA
BRANCH  12  14
ATOM     14  O   UNL     1     -37.611  22.889   3.272  0.00  0.00    -0.284 OA
ATOM     15  C   UNL     1     -38.139  22.046   2.261  0.00  0.00    +0.185 C 
ENDBRANCH  12  14
BRANCH  12  16
ATOM     16  O   UNL     1     -36.174  22.901   5.368  0.00  0.00    -0.284 OA
ATOM     17  C   UNL     1     -35.354  22.152   6.248  0.00  0.00    +0.185 C 
ENDBRANCH  12  16
ENDBRANCH  11  12
ENDBRANCH  10  11
ENDBRANCH   1  10
TORSDOF 8
ENDMDL
MODEL 4
REMARK VINA RESULT:      -4.3      2.856      3.957
REMARK  Name = 560193
REMARK  8 active torsions:
REMARK  status: ('A' for Active; 'I' for Inactive)
REMARK    1  A    between atoms: C_1  and  S_2
REMARK    2  A    between atoms: C_1  and  C_10
REMARK    3  A    between atoms: S_2  and  C_3
REMARK    4  A    between atoms: C_3  and  C_7
REMARK    5  A    between atoms: C_10  and  S_11
REMARK    6  A    between atoms: S_11  and  P_12
REMARK    7  A    between atoms: P_12  and  O_14
REMARK    8  A    between atoms: P_12  and  O_16
REMARK                            x       y       z     vdW  Elec       q    Type
REMARK                         _______ _______ _______ _____ _____    ______ ____
ROOT
ATOM      1  C   UNL     1     -34.504  23.348   0.642  0.00  0.00    +0.070 C 
ENDROOT
BRANCH   1   2
ATOM      2  S   UNL     1     -35.218  21.787   1.239  0.00  0.00    -0.131 S 
BRANCH   2   3
ATOM      3  C   UNL     1     -36.185  22.452   2.613  0.00  0.00    +0.124 C 
ATOM      4  C   UNL     1     -37.668  22.210   2.365  0.00  0.00    +0.021 C 
BRANCH   3   7
ATOM      5  O   UNL     1     -35.185  20.660   3.893  0.00  0.00    -0.274 OA
ATOM      6  N   UNL     1     -35.919  22.552   5.017  0.00  0.00    -0.302 N 
ATOM      7  C   UNL     1     -35.710  21.772   3.889  0.00  0.00    +0.232 C 
ATOM      8  C   UNL     1     -35.534  22.127   6.342  0.00  0.00    +0.111 C 
ATOM      9  H   UNL     1     -36.350  23.432   4.910  0.00  0.00    +0.150 HD
ENDBRANCH   3   7
ENDBRANCH   2   3
ENDBRANCH   1   2
BRANCH   1  10
ATOM     10  C   UNL     1     -35.216  24.530   1.285  0.00  0.00    +0.081 C 
BRANCH  10  11
ATOM     11  S   UNL     1     -34.009  25.731   1.884  0.00  0.00    -0.030 S 
BRANCH  11  12
ATOM     12  P   UNL     1     -34.258  25.769   3.971  0.00  0.00    +0.393 P 
ATOM     13  O   UNL     1     -33.425  24.690   4.613  0.00  0.00    -0.246 OA
BRANCH  12  14
ATOM     14  O   UNL     1     -35.837  25.617   4.324  0.00  0.00    -0.284 OA
ATOM     15  C   UNL     1     -36.285  25.974   5.621  0.00  0.00    +0.185 C 
ENDBRANCH  12  14
BRANCH  12  16
ATOM     16  O   UNL     1     -33.895  27.238   4.566  0.00  0.00    -0.284 OA
ATOM     17  C   UNL     1     -32.586  27.760   4.418  0.00  0.00    +0.185 C 
ENDBRANCH  12  16
ENDBRANCH  11  12
ENDBRANCH  10  11
ENDBRANCH   1  10
TORSDOF 8
ENDMDL
MODEL 5
REMARK VINA RESULT:      -4.2      1.633      2.399
REMARK  Name = 560193
REMARK  8 active torsions:
REMARK  status: ('A' for Active; 'I' for Inactive)
REMARK    1  A    between atoms: C_1  and  S_2
REMARK    2  A    between atoms: C_1  and  C_10
REMARK    3  A    between atoms: S_2  and  C_3
REMARK    4  A    between atoms: C_3  and  C_7
REMARK    5  A    between atoms: C_10  and  S_11
REMARK    6  A    between atoms: S_11  and  P_12
REMARK    7  A    between atoms: P_12  and  O_14
REMARK    8  A    between atoms: P_12  and  O_16
REMARK                            x       y       z     vdW  Elec       q    Type
REMARK                         _______ _______ _______ _____ _____    ______ ____
ROOT
ATOM      1  C   UNL     1     -34.126  25.119   4.244  0.00  0.00    +0.070 C 
ENDROOT
BRANCH   1   2
ATOM      2  S   UNL     1     -35.522  24.461   5.204  0.00  0.00    -0.131 S 
BRANCH   2   3
ATOM      3  C   UNL     1     -35.096  22.707   5.112  0.00  0.00    +0.124 C 
ATOM      4  C   UNL     1     -35.475  22.016   6.416  0.00  0.00    +0.021 C 
BRANCH   3   7
ATOM      5  O   UNL     1     -35.432  21.117   3.322  0.00  0.00    -0.274 OA
ATOM      6  N   UNL     1     -37.003  22.797   3.624  0.00  0.00    -0.302 N 
ATOM      7  C   UNL     1     -35.836  22.110   3.924  0.00  0.00    +0.232 C 
ATOM      8  C   UNL     1     -37.884  22.406   2.548  0.00  0.00    +0.111 C 
ATOM      9  H   UNL     1     -37.241  23.584   4.167  0.00  0.00    +0.150 HD
ENDBRANCH   3   7
ENDBRANCH   2   3
ENDBRANCH   1   2
BRANCH   1  10
ATOM     10  C   UNL     1     -34.460  26.510   3.720  0.00  0.00    +0.081 C 
BRANCH  10  11
ATOM     11  S   UNL     1     -33.101  27.137   2.713  0.00  0.00    -0.030 S 
BRANCH  11  12
ATOM     12  P   UNL     1     -32.111  28.536   3.931  0.00  0.00    +0.393 P 
ATOM     13  O   UNL     1     -30.886  29.061   3.228  0.00  0.00    -0.246 OA
BRANCH  12  14
ATOM     14  O   UNL     1     -31.752  27.843   5.356  0.00  0.00    -0.284 OA
ATOM     15  C   UNL     1     -31.778  28.640   6.528  0.00  0.00    +0.185 C 
ENDBRANCH  12  14
BRANCH  12  16
ATOM     16  O   UNL     1     -33.118  29.740   4.358  0.00  0.00    -0.284 OA
ATOM     17  C   UNL     1     -33.401  30.785   3.445  0.00  0.00    +0.185 C 
ENDBRANCH  12  16
ENDBRANCH  11  12
ENDBRANCH  10  11
ENDBRANCH   1  10
TORSDOF 8
ENDMDL
MODEL 6
REMARK VINA RESULT:      -4.2      2.114      3.018
REMARK  Name = 560193
REMARK  8 active torsions:
REMARK  status: ('A' for Active; 'I' for Inactive)
REMARK    1  A    between atoms: C_1  and  S_2
REMARK    2  A    between atoms: C_1  and  C_10
REMARK    3  A    between atoms: S_2  and  C_3
REMARK    4  A    between atoms: C_3  and  C_7
REMARK    5  A    between atoms: C_10  and  S_11
REMARK    6  A    between atoms: S_11  and  P_12
REMARK    7  A    between atoms: P_12  and  O_14
REMARK    8  A    between atoms: P_12  and  O_16
REMARK                            x       y       z     vdW  Elec       q    Type
REMARK                         _______ _______ _______ _____ _____    ______ ____
ROOT
ATOM      1  C   UNL     1     -34.539  24.246   4.493  0.00  0.00    +0.070 C 
ENDROOT
BRANCH   1   2
ATOM      2  S   UNL     1     -35.381  22.666   4.809  0.00  0.00    -0.131 S 
BRANCH   2   3
ATOM      3  C   UNL     1     -35.855  22.279   3.109  0.00  0.00    +0.124 C 
ATOM      4  C   UNL     1     -35.543  20.819   2.807  0.00  0.00    +0.021 C 
BRANCH   3   7
ATOM      5  O   UNL     1     -37.854  23.610   3.389  0.00  0.00    -0.274 OA
ATOM      6  N   UNL     1     -38.018  21.581   2.277  0.00  0.00    -0.302 N 
ATOM      7  C   UNL     1     -37.339  22.580   2.960  0.00  0.00    +0.232 C 
ATOM      8  C   UNL     1     -39.433  21.651   1.996  0.00  0.00    +0.111 C 
ATOM      9  H   UNL     1     -37.515  20.790   1.973  0.00  0.00    +0.150 HD
ENDBRANCH   3   7
ENDBRANCH   2   3
ENDBRANCH   1   2
BRANCH   1  10
ATOM     10  C   UNL     1     -35.096  25.328   5.409  0.00  0.00    +0.081 C 
BRANCH  10  11
ATOM     11  S   UNL     1     -33.753  26.338   6.064  0.00  0.00    -0.030 S 
BRANCH  11  12
ATOM     12  P   UNL     1     -33.152  27.564   4.466  0.00  0.00    +0.393 P 
ATOM     13  O   UNL     1     -32.204  26.816   3.565  0.00  0.00    -0.246 OA
BRANCH  12  14
ATOM     14  O   UNL     1     -32.491  28.926   5.057  0.00  0.00    -0.284 OA
ATOM     15  C   UNL     1     -31.734  28.855   6.253  0.00  0.00    +0.185 C 
ENDBRANCH  12  14
BRANCH  12  16
ATOM     16  O   UNL     1     -34.445  28.116   3.648  0.00  0.00    -0.284 OA
ATOM     17  C   UNL     1     -34.744  27.598   2.363  0.00  0.00    +0.185 C 
ENDBRANCH  12  16
ENDBRANCH  11  12
ENDBRANCH  10  11
ENDBRANCH   1  10
TORSDOF 8
ENDMDL
MODEL 7
REMARK VINA RESULT:      -4.2      4.776      7.636
REMARK  Name = 560193
REMARK  8 active torsions:
REMARK  status: ('A' for Active; 'I' for Inactive)
REMARK    1  A    between atoms: C_1  and  S_2
REMARK    2  A    between atoms: C_1  and  C_10
REMARK    3  A    between atoms: S_2  and  C_3
REMARK    4  A    between atoms: C_3  and  C_7
REMARK    5  A    between atoms: C_10  and  S_11
REMARK    6  A    between atoms: S_11  and  P_12
REMARK    7  A    between atoms: P_12  and  O_14
REMARK    8  A    between atoms: P_12  and  O_16
REMARK                            x       y       z     vdW  Elec       q    Type
REMARK                         _______ _______ _______ _____ _____    ______ ____
ROOT
ATOM      1  C   UNL     1     -36.453  23.971   0.782  0.00  0.00    +0.070 C 
ENDROOT
BRANCH   1   2
ATOM      2  S   UNL     1     -35.284  24.420   2.099  0.00  0.00    -0.131 S 
BRANCH   2   3
ATOM      3  C   UNL     1     -36.381  24.179   3.515  0.00  0.00    +0.124 C 
ATOM      4  C   UNL     1     -37.478  23.186   3.153  0.00  0.00    +0.021 C 
BRANCH   3   7
ATOM      5  O   UNL     1     -34.507  24.249   5.041  0.00  0.00    -0.274 OA
ATOM      6  N   UNL     1     -36.071  22.553   5.281  0.00  0.00    -0.302 N 
ATOM      7  C   UNL     1     -35.537  23.683   4.680  0.00  0.00    +0.232 C 
ATOM      8  C   UNL     1     -35.457  21.910   6.419  0.00  0.00    +0.111 C 
ATOM      9  H   UNL     1     -36.903  22.172   4.916  0.00  0.00    +0.150 HD
ENDBRANCH   3   7
ENDBRANCH   2   3
ENDBRANCH   1   2
BRANCH   1  10
ATOM     10  C   UNL     1     -35.854  22.884  -0.101  0.00  0.00    +0.081 C 
BRANCH  10  11
ATOM     11  S   UNL     1     -34.492  22.069   0.756  0.00  0.00    -0.030 S 
BRANCH  11  12
ATOM     12  P   UNL     1     -35.336  20.354   1.631  0.00  0.00    +0.393 P 
ATOM     13  O   UNL     1     -35.207  20.419   3.131  0.00  0.00    -0.246 OA
BRANCH  12  14
ATOM     14  O   UNL     1     -34.624  19.032   1.010  0.00  0.00    -0.284 OA
ATOM     15  C   UNL     1     -33.276  18.758   1.352  0.00  0.00    +0.185 C 
ENDBRANCH  12  14
BRANCH  12  16
ATOM     16  O   UNL     1     -36.886  20.178   1.171  0.00  0.00    -0.284 OA
ATOM     17  C   UNL     1     -37.220  19.271   0.135  0.00  0.00    +0.185 C 
ENDBRANCH  12  16
ENDBRANCH  11  12
ENDBRANCH  10  11
ENDBRANCH   1  10
TORSDOF 8
ENDMDL
MODEL 8
REMARK VINA RESULT:      -4.1      5.537      6.903
REMARK  Name = 560193
REMARK  8 active torsions:
REMARK  status: ('A' for Active; 'I' for Inactive)
REMARK    1  A    between atoms: C_1  and  S_2
REMARK    2  A    between atoms: C_1  and  C_10
REMARK    3  A    between atoms: S_2  and  C_3
REMARK    4  A    between atoms: C_3  and  C_7
REMARK    5  A    between atoms: C_10  and  S_11
REMARK    6  A    between atoms: S_11  and  P_12
REMARK    7  A    between atoms: P_12  and  O_14
REMARK    8  A    between atoms: P_12  and  O_16
REMARK                            x       y       z     vdW  Elec       q    Type
REMARK                         _______ _______ _______ _____ _____    ______ ____
ROOT
ATOM      1  C   UNL     1     -38.482  23.001   0.959  0.00  0.00    +0.070 C 
ENDROOT
BRANCH   1   2
ATOM      2  S   UNL     1     -37.948  21.769   2.183  0.00  0.00    -0.131 S 
BRANCH   2   3
ATOM      3  C   UNL     1     -36.303  22.435   2.523  0.00  0.00    +0.124 C 
ATOM      4  C   UNL     1     -36.047  23.650   1.641  0.00  0.00    +0.021 C 
BRANCH   3   7
ATOM      5  O   UNL     1     -36.726  23.827   4.456  0.00  0.00    -0.274 OA
ATOM      6  N   UNL     1     -35.605  21.818   4.757  0.00  0.00    -0.302 N 
ATOM      7  C   UNL     1     -36.242  22.792   4.002  0.00  0.00    +0.232 C 
ATOM      8  C   UNL     1     -35.441  21.923   6.188  0.00  0.00    +0.111 C 
ATOM      9  H   UNL     1     -35.249  21.022   4.299  0.00  0.00    +0.150 HD
ENDBRANCH   3   7
ENDBRANCH   2   3
ENDBRANCH   1   2
BRANCH   1  10
ATOM     10  C   UNL     1     -40.000  23.128   0.971  0.00  0.00    +0.081 C 
BRANCH  10  11
ATOM     11  S   UNL     1     -40.478  24.864   0.867  0.00  0.00    -0.030 S 
BRANCH  11  12
ATOM     12  P   UNL     1     -39.845  25.720   2.680  0.00  0.00    +0.393 P 
ATOM     13  O   UNL     1     -39.834  24.679   3.769  0.00  0.00    -0.246 OA
BRANCH  12  14
ATOM     14  O   UNL     1     -40.810  26.977   3.043  0.00  0.00    -0.284 OA
ATOM     15  C   UNL     1     -41.968  26.745   3.827  0.00  0.00    +0.185 C 
ENDBRANCH  12  14
BRANCH  12  16
ATOM     16  O   UNL     1     -38.388  26.421   2.507  0.00  0.00    -0.284 OA
ATOM     17  C   UNL     1     -37.945  26.828   1.224  0.00  0.00    +0.185 C 
ENDBRANCH  12  16
ENDBRANCH  11  12
ENDBRANCH  10  11
ENDBRANCH   1  10
TORSDOF 8
ENDMDL
MODEL 9
REMARK VINA RESULT:      -4.1      3.531      7.622
REMARK  Name = 560193
REMARK  8 active torsions:
REMARK  status: ('A' for Active; 'I' for Inactive)
REMARK    1  A    between atoms: C_1  and  S_2
REMARK    2  A    between atoms: C_1  and  C_10
REMARK    3  A    between atoms: S_2  and  C_3
REMARK    4  A    between atoms: C_3  and  C_7
REMARK    5  A    between atoms: C_10  and  S_11
REMARK    6  A    between atoms: S_11  and  P_12
REMARK    7  A    between atoms: P_12  and  O_14
REMARK    8  A    between atoms: P_12  and  O_16
REMARK                            x       y       z     vdW  Elec       q    Type
REMARK                         _______ _______ _______ _____ _____    ______ ____
ROOT
ATOM      1  C   UNL     1     -33.583  26.769   4.803  0.00  0.00    +0.070 C 
ENDROOT
BRANCH   1   2
ATOM      2  S   UNL     1     -32.596  28.141   4.134  0.00  0.00    -0.131 S 
BRANCH   2   3
ATOM      3  C   UNL     1     -31.808  28.669   5.672  0.00  0.00    +0.124 C 
ATOM      4  C   UNL     1     -32.259  27.772   6.817  0.00  0.00    +0.021 C 
BRANCH   3   7
ATOM      5  O   UNL     1     -29.762  27.764   4.755  0.00  0.00    -0.274 OA
ATOM      6  N   UNL     1     -29.630  29.607   6.158  0.00  0.00    -0.302 N 
ATOM      7  C   UNL     1     -30.301  28.606   5.469  0.00  0.00    +0.232 C 
ATOM      8  C   UNL     1     -28.195  29.763   6.105  0.00  0.00    +0.111 C 
ATOM      9  H   UNL     1     -30.153  30.236   6.706  0.00  0.00    +0.150 HD
ENDBRANCH   3   7
ENDBRANCH   2   3
ENDBRANCH   1   2
BRANCH   1  10
ATOM     10  C   UNL     1     -34.826  26.554   3.950  0.00  0.00    +0.081 C 
BRANCH  10  11
ATOM     11  S   UNL     1     -36.124  25.773   4.930  0.00  0.00    -0.030 S 
BRANCH  11  12
ATOM     12  P   UNL     1     -36.024  23.729   4.449  0.00  0.00    +0.393 P 
ATOM     13  O   UNL     1     -34.805  23.452   3.608  0.00  0.00    -0.246 OA
BRANCH  12  14
ATOM     14  O   UNL     1     -37.398  23.288   3.701  0.00  0.00    -0.284 OA
ATOM     15  C   UNL     1     -37.319  22.422   2.582  0.00  0.00    +0.185 C 
ENDBRANCH  12  14
BRANCH  12  16
ATOM     16  O   UNL     1     -36.040  22.819   5.797  0.00  0.00    -0.284 OA
ATOM     17  C   UNL     1     -35.153  21.721   5.922  0.00  0.00    +0.185 C 
ENDBRANCH  12  16
ENDBRANCH  11  12
ENDBRANCH  10  11
ENDBRANCH   1  10
TORSDOF 8
ENDMDL
