MODEL 1
REMARK VINA RESULT:      -4.9      0.000      0.000
REMARK  Name = 196668
REMARK  9 active torsions:
REMARK  status: ('A' for Active; 'I' for Inactive)
REMARK    1  A    between atoms: C_1  and  O_2
REMARK    2  A    between atoms: C_1  and  C_4
REMARK    3  A    between atoms: C_1  and  CA_12
REMARK    4  A    between atoms: C_4  and  O_5
REMARK    5  A    between atoms: C_4  and  C_7
REMARK    6  A    between atoms: C_7  and  C_9
REMARK    7  A    between atoms: C_7  and  O_10
REMARK    8  A    between atoms: CA_12  and  N_14
REMARK    9  A    between atoms: CA_12  and  C_19
REMARK                            x       y       z     vdW  Elec       q    Type
REMARK                         _______ _______ _______ _____ _____    ______ ____
ROOT
ATOM      1  C   UNL     1     -35.824  24.174   3.515  0.00  0.00    +0.165 C 
ENDROOT
BRANCH   1   2
ATOM      2  O   UNL     1     -34.433  24.354   3.820  0.00  0.00    -0.380 OA
ATOM      3  H   UNL     1     -34.262  24.074   4.732  0.00  0.00    +0.211 HD
ENDBRANCH   1   2
BRANCH   1   4
ATOM      4  C   UNL     1     -36.299  22.885   4.219  0.00  0.00    +0.169 C 
BRANCH   4   5
ATOM      5  O   UNL     1     -37.317  22.283   3.408  0.00  0.00    -0.379 OA
ATOM      6  H   UNL     1     -37.858  22.977   3.000  0.00  0.00    +0.211 HD
ENDBRANCH   4   5
BRANCH   4   7
ATOM      7  C   UNL     1     -35.239  21.800   4.468  0.00  0.00    +0.175 C 
BRANCH   7   9
ATOM      8  F   UNL     1     -35.996  22.057   6.668  0.00  0.00    -0.232 F 
ATOM      9  C   UNL     1     -34.978  21.515   5.942  0.00  0.00    +0.225 C 
ENDBRANCH   7   9
BRANCH   7  10
ATOM     10  O   UNL     1     -35.625  20.595   3.816  0.00  0.00    -0.379 OA
ATOM     11  H   UNL     1     -34.944  19.919   3.955  0.00  0.00    +0.211 HD
ENDBRANCH   7  10
ENDBRANCH   4   7
ENDBRANCH   1   4
BRANCH   1  12
ATOM     12  CA  UNL     1     -36.555  25.460   3.918  0.00  0.00    +0.166 C 
BRANCH  12  14
ATOM     13  O   UNL     1     -38.478  26.638   2.090  0.00  0.00    -0.275 OA
ATOM     14  N   UNL     1     -37.987  25.307   3.937  0.00  0.00    -0.297 N 
ATOM     15  C   UNL     1     -38.830  25.913   3.017  0.00  0.00    +0.223 C 
ATOM     16  C   UNL     1     -40.276  25.567   3.250  0.00  0.00    +0.095 C 
ATOM     17  H   UNL     1     -38.388  24.745   4.639  0.00  0.00    +0.150 HD
ENDBRANCH  12  14
BRANCH  12  19
ATOM     18  O   UNL     1     -35.100  26.518   5.536  0.00  0.00    -0.286 OA
ATOM     19  C   UNL     1     -36.157  25.939   5.300  0.00  0.00    +0.229 C 
ENDBRANCH  12  19
ENDBRANCH   1  12
TORSDOF 9
ENDMDL
MODEL 2
REMARK VINA RESULT:      -4.9      2.582      4.934
REMARK  Name = 196668
REMARK  9 active torsions:
REMARK  status: ('A' for Active; 'I' for Inactive)
REMARK    1  A    between atoms: C_1  and  O_2
REMARK    2  A    between atoms: C_1  and  C_4
REMARK    3  A    between atoms: C_1  and  CA_12
REMARK    4  A    between atoms: C_4  and  O_5
REMARK    5  A    between atoms: C_4  and  C_7
REMARK    6  A    between atoms: C_7  and  C_9
REMARK    7  A    between atoms: C_7  and  O_10
REMARK    8  A    between atoms: CA_12  and  N_14
REMARK    9  A    between atoms: CA_12  and  C_19
REMARK                            x       y       z     vdW  Elec       q    Type
REMARK                         _______ _______ _______ _____ _____    ______ ____
ROOT
ATOM      1  C   UNL     1     -35.467  26.110   4.433  0.00  0.00    +0.165 C 
ENDROOT
BRANCH   1   2
ATOM      2  O   UNL     1     -36.336  26.832   5.318  0.00  0.00    -0.380 OA
ATOM      3  H   UNL     1     -37.213  26.917   4.913  0.00  0.00    +0.211 HD
ENDBRANCH   1   2
BRANCH   1   4
ATOM      4  C   UNL     1     -34.073  26.042   5.093  0.00  0.00    +0.169 C 
BRANCH   4   5
ATOM      5  O   UNL     1     -33.356  24.946   4.509  0.00  0.00    -0.379 OA
ATOM      6  H   UNL     1     -32.553  25.278   4.078  0.00  0.00    +0.211 HD
ENDBRANCH   4   5
BRANCH   4   7
ATOM      7  C   UNL     1     -33.174  27.281   4.945  0.00  0.00    +0.175 C 
BRANCH   7   9
ATOM      8  F   UNL     1     -33.027  27.008   7.265  0.00  0.00    -0.232 F 
ATOM      9  C   UNL     1     -32.454  27.679   6.227  0.00  0.00    +0.225 C 
ENDBRANCH   7   9
BRANCH   7  10
ATOM     10  O   UNL     1     -32.216  27.058   3.916  0.00  0.00    -0.379 OA
ATOM     11  H   UNL     1     -31.526  26.459   4.241  0.00  0.00    +0.211 HD
ENDBRANCH   7  10
ENDBRANCH   4   7
ENDBRANCH   1   4
BRANCH   1  12
ATOM     12  CA  UNL     1     -36.128  24.760   4.135  0.00  0.00    +0.166 C 
BRANCH  12  14
ATOM     13  O   UNL     1     -35.357  21.965   3.981  0.00  0.00    -0.275 OA
ATOM     14  N   UNL     1     -36.007  23.825   5.223  0.00  0.00    -0.297 N 
ATOM     15  C   UNL     1     -35.631  22.501   5.053  0.00  0.00    +0.223 C 
ATOM     16  C   UNL     1     -35.559  21.753   6.356  0.00  0.00    +0.095 C 
ATOM     17  H   UNL     1     -36.203  24.142   6.135  0.00  0.00    +0.150 HD
ENDBRANCH  12  14
BRANCH  12  19
ATOM     18  O   UNL     1     -38.300  23.979   3.413  0.00  0.00    -0.286 OA
ATOM     19  C   UNL     1     -37.610  24.896   3.849  0.00  0.00    +0.229 C 
ENDBRANCH  12  19
ENDBRANCH   1  12
TORSDOF 9
ENDMDL
MODEL 3
REMARK VINA RESULT:      -4.7      2.792      4.896
REMARK  Name = 196668
REMARK  9 active torsions:
REMARK  status: ('A' for Active; 'I' for Inactive)
REMARK    1  A    between atoms: C_1  and  O_2
REMARK    2  A    between atoms: C_1  and  C_4
REMARK    3  A    between atoms: C_1  and  CA_12
REMARK    4  A    between atoms: C_4  and  O_5
REMARK    5  A    between atoms: C_4  and  C_7
REMARK    6  A    between atoms: C_7  and  C_9
REMARK    7  A    between atoms: C_7  and  O_10
REMARK    8  A    between atoms: CA_12  and  N_14
REMARK    9  A    between atoms: CA_12  and  C_19
REMARK                            x       y       z     vdW  Elec       q    Type
REMARK                         _______ _______ _______ _____ _____    ______ ____
ROOT
ATOM      1  C   UNL     1     -36.480  25.323   5.034  0.00  0.00    +0.165 C 
ENDROOT
BRANCH   1   2
ATOM      2  O   UNL     1     -36.411  26.749   5.177  0.00  0.00    -0.380 OA
ATOM      3  H   UNL     1     -37.136  27.054   5.744  0.00  0.00    +0.211 HD
ENDBRANCH   1   2
BRANCH   1   4
ATOM      4  C   UNL     1     -36.966  25.015   3.601  0.00  0.00    +0.169 C 
BRANCH   4   5
ATOM      5  O   UNL     1     -37.867  23.901   3.666  0.00  0.00    -0.379 OA
ATOM      6  H   UNL     1     -38.434  23.897   2.879  0.00  0.00    +0.211 HD
ENDBRANCH   4   5
BRANCH   4   7
ATOM      7  C   UNL     1     -37.713  26.139   2.866  0.00  0.00    +0.175 C 
BRANCH   7   9
ATOM      8  F   UNL     1     -39.135  26.415   1.027  0.00  0.00    -0.232 F 
ATOM      9  C   UNL     1     -37.939  25.866   1.384  0.00  0.00    +0.225 C 
ENDBRANCH   7   9
BRANCH   7  10
ATOM     10  O   UNL     1     -38.966  26.375   3.499  0.00  0.00    -0.379 OA
ATOM     11  H   UNL     1     -39.604  25.702   3.215  0.00  0.00    +0.211 HD
ENDBRANCH   7  10
ENDBRANCH   4   7
ENDBRANCH   1   4
BRANCH   1  12
ATOM     12  CA  UNL     1     -35.106  24.754   5.407  0.00  0.00    +0.166 C 
BRANCH  12  14
ATOM     13  O   UNL     1     -36.015  22.259   6.582  0.00  0.00    -0.275 OA
ATOM     14  N   UNL     1     -34.897  23.421   4.902  0.00  0.00    -0.297 N 
ATOM     15  C   UNL     1     -35.371  22.283   5.536  0.00  0.00    +0.223 C 
ATOM     16  C   UNL     1     -35.034  21.024   4.783  0.00  0.00    +0.095 C 
ATOM     17  H   UNL     1     -34.391  23.314   4.064  0.00  0.00    +0.150 HD
ENDBRANCH  12  14
BRANCH  12  19
ATOM     18  O   UNL     1     -33.371  26.433   5.546  0.00  0.00    -0.286 OA
ATOM     19  C   UNL     1     -33.968  25.599   4.871  0.00  0.00    +0.229 C 
ENDBRANCH  12  19
ENDBRANCH   1  12
TORSDOF 9
ENDMDL
MODEL 4
REMARK VINA RESULT:      -4.7      3.192      5.046
REMARK  Name = 196668
REMARK  9 active torsions:
REMARK  status: ('A' for Active; 'I' for Inactive)
REMARK    1  A    between atoms: C_1  and  O_2
REMARK    2  A    between atoms: C_1  and  C_4
REMARK    3  A    between atoms: C_1  and  CA_12
REMARK    4  A    between atoms: C_4  and  O_5
REMARK    5  A    between atoms: C_4  and  C_7
REMARK    6  A    between atoms: C_7  and  C_9
REMARK    7  A    between atoms: C_7  and  O_10
REMARK    8  A    between atoms: CA_12  and  N_14
REMARK    9  A    between atoms: CA_12  and  C_19
REMARK                            x       y       z     vdW  Elec       q    Type
REMARK                         _______ _______ _______ _____ _____    ______ ____
ROOT
ATOM      1  C   UNL     1     -36.780  20.908   1.746  0.00  0.00    +0.165 C 
ENDROOT
BRANCH   1   2
ATOM      2  O   UNL     1     -36.914  19.812   2.663  0.00  0.00    -0.380 OA
ATOM      3  H   UNL     1     -37.851  19.681   2.877  0.00  0.00    +0.211 HD
ENDBRANCH   1   2
BRANCH   1   4
ATOM      4  C   UNL     1     -38.180  21.218   1.174  0.00  0.00    +0.169 C 
BRANCH   4   5
ATOM      5  O   UNL     1     -38.716  20.006   0.625  0.00  0.00    -0.379 OA
ATOM      6  H   UNL     1     -38.005  19.503   0.197  0.00  0.00    +0.211 HD
ENDBRANCH   4   5
BRANCH   4   7
ATOM      7  C   UNL     1     -39.230  21.753   2.161  0.00  0.00    +0.175 C 
BRANCH   7   9
ATOM      8  F   UNL     1     -38.852  23.970   2.810  0.00  0.00    -0.232 F 
ATOM      9  C   UNL     1     -39.591  23.218   1.947  0.00  0.00    +0.225 C 
ENDBRANCH   7   9
BRANCH   7  10
ATOM     10  O   UNL     1     -40.410  20.960   2.082  0.00  0.00    -0.379 OA
ATOM     11  H   UNL     1     -40.942  21.092   2.881  0.00  0.00    +0.211 HD
ENDBRANCH   7  10
ENDBRANCH   4   7
ENDBRANCH   1   4
BRANCH   1  12
ATOM     12  CA  UNL     1     -36.098  22.058   2.496  0.00  0.00    +0.166 C 
BRANCH  12  14
ATOM     13  O   UNL     1     -36.370  23.590   4.947  0.00  0.00    -0.275 OA
ATOM     14  N   UNL     1     -35.659  21.682   3.815  0.00  0.00    -0.297 N 
ATOM     15  C   UNL     1     -35.833  22.485   4.933  0.00  0.00    +0.223 C 
ATOM     16  C   UNL     1     -35.305  21.843   6.188  0.00  0.00    +0.095 C 
ATOM     17  H   UNL     1     -35.212  20.812   3.929  0.00  0.00    +0.150 HD
ENDBRANCH  12  14
BRANCH  12  19
ATOM     18  O   UNL     1     -34.279  21.929   0.908  0.00  0.00    -0.286 OA
ATOM     19  C   UNL     1     -34.874  22.574   1.767  0.00  0.00    +0.229 C 
ENDBRANCH  12  19
ENDBRANCH   1  12
TORSDOF 9
ENDMDL
MODEL 5
REMARK VINA RESULT:      -4.7      2.093      2.383
REMARK  Name = 196668
REMARK  9 active torsions:
REMARK  status: ('A' for Active; 'I' for Inactive)
REMARK    1  A    between atoms: C_1  and  O_2
REMARK    2  A    between atoms: C_1  and  C_4
REMARK    3  A    between atoms: C_1  and  CA_12
REMARK    4  A    between atoms: C_4  and  O_5
REMARK    5  A    between atoms: C_4  and  C_7
REMARK    6  A    between atoms: C_7  and  C_9
REMARK    7  A    between atoms: C_7  and  O_10
REMARK    8  A    between atoms: CA_12  and  N_14
REMARK    9  A    between atoms: CA_12  and  C_19
REMARK                            x       y       z     vdW  Elec       q    Type
REMARK                         _______ _______ _______ _____ _____    ______ ____
ROOT
ATOM      1  C   UNL     1     -36.161  22.906   3.554  0.00  0.00    +0.165 C 
ENDROOT
BRANCH   1   2
ATOM      2  O   UNL     1     -36.374  22.128   4.740  0.00  0.00    -0.380 OA
ATOM      3  H   UNL     1     -36.981  21.397   4.543  0.00  0.00    +0.211 HD
ENDBRANCH   1   2
BRANCH   1   4
ATOM      4  C   UNL     1     -36.958  22.248   2.407  0.00  0.00    +0.169 C 
BRANCH   4   5
ATOM      5  O   UNL     1     -36.948  23.143   1.286  0.00  0.00    -0.379 OA
ATOM      6  H   UNL     1     -37.833  23.176   0.891  0.00  0.00    +0.211 HD
ENDBRANCH   4   5
BRANCH   4   7
ATOM      7  C   UNL     1     -36.441  20.895   1.891  0.00  0.00    +0.175 C 
BRANCH   7   9
ATOM      8  F   UNL     1     -34.427  19.854   2.470  0.00  0.00    -0.232 F 
ATOM      9  C   UNL     1     -34.933  20.846   1.685  0.00  0.00    +0.225 C 
ENDBRANCH   7   9
BRANCH   7  10
ATOM     10  O   UNL     1     -36.828  19.861   2.791  0.00  0.00    -0.379 OA
ATOM     11  H   UNL     1     -37.428  19.248   2.339  0.00  0.00    +0.211 HD
ENDBRANCH   7  10
ENDBRANCH   4   7
ENDBRANCH   1   4
BRANCH   1  12
ATOM     12  CA  UNL     1     -36.537  24.356   3.878  0.00  0.00    +0.166 C 
BRANCH  12  14
ATOM     13  O   UNL     1     -38.213  25.901   2.079  0.00  0.00    -0.275 OA
ATOM     14  N   UNL     1     -37.960  24.559   3.966  0.00  0.00    -0.297 N 
ATOM     15  C   UNL     1     -38.679  25.318   3.055  0.00  0.00    +0.223 C 
ATOM     16  C   UNL     1     -40.152  25.344   3.366  0.00  0.00    +0.095 C 
ATOM     17  H   UNL     1     -38.447  24.137   4.711  0.00  0.00    +0.150 HD
ENDBRANCH  12  14
BRANCH  12  19
ATOM     18  O   UNL     1     -34.943  24.337   5.698  0.00  0.00    -0.286 OA
ATOM     19  C   UNL     1     -35.956  24.820   5.199  0.00  0.00    +0.229 C 
ENDBRANCH  12  19
ENDBRANCH   1  12
TORSDOF 9
ENDMDL
MODEL 6
REMARK VINA RESULT:      -4.7      2.578      4.944
REMARK  Name = 196668
REMARK  9 active torsions:
REMARK  status: ('A' for Active; 'I' for Inactive)
REMARK    1  A    between atoms: C_1  and  O_2
REMARK    2  A    between atoms: C_1  and  C_4
REMARK    3  A    between atoms: C_1  and  CA_12
REMARK    4  A    between atoms: C_4  and  O_5
REMARK    5  A    between atoms: C_4  and  C_7
REMARK    6  A    between atoms: C_7  and  C_9
REMARK    7  A    between atoms: C_7  and  O_10
REMARK    8  A    between atoms: CA_12  and  N_14
REMARK    9  A    between atoms: CA_12  and  C_19
REMARK                            x       y       z     vdW  Elec       q    Type
REMARK                         _______ _______ _______ _____ _____    ______ ____
ROOT
ATOM      1  C   UNL     1     -36.540  25.958   3.596  0.00  0.00    +0.165 C 
ENDROOT
BRANCH   1   2
ATOM      2  O   UNL     1     -37.067  26.295   4.889  0.00  0.00    -0.380 OA
ATOM      3  H   UNL     1     -38.035  26.267   4.861  0.00  0.00    +0.211 HD
ENDBRANCH   1   2
BRANCH   1   4
ATOM      4  C   UNL     1     -35.204  26.711   3.421  0.00  0.00    +0.169 C 
BRANCH   4   5
ATOM      5  O   UNL     1     -35.458  28.113   3.578  0.00  0.00    -0.379 OA
ATOM      6  H   UNL     1     -36.282  28.346   3.121  0.00  0.00    +0.211 HD
ENDBRANCH   4   5
BRANCH   4   7
ATOM      7  C   UNL     1     -34.075  26.358   4.403  0.00  0.00    +0.175 C 
BRANCH   7   9
ATOM      8  F   UNL     1     -32.652  27.830   5.538  0.00  0.00    -0.232 F 
ATOM      9  C   UNL     1     -32.863  27.277   4.310  0.00  0.00    +0.225 C 
ENDBRANCH   7   9
BRANCH   7  10
ATOM     10  O   UNL     1     -34.577  26.373   5.735  0.00  0.00    -0.379 OA
ATOM     11  H   UNL     1     -33.892  26.055   6.343  0.00  0.00    +0.211 HD
ENDBRANCH   7  10
ENDBRANCH   4   7
ENDBRANCH   1   4
BRANCH   1  12
ATOM     12  CA  UNL     1     -36.458  24.430   3.514  0.00  0.00    +0.166 C 
BRANCH  12  14
ATOM     13  O   UNL     1     -35.324  21.802   4.007  0.00  0.00    -0.275 OA
ATOM     14  N   UNL     1     -36.200  23.814   4.790  0.00  0.00    -0.297 N 
ATOM     15  C   UNL     1     -35.653  22.547   4.928  0.00  0.00    +0.223 C 
ATOM     16  C   UNL     1     -35.466  22.156   6.370  0.00  0.00    +0.095 C 
ATOM     17  H   UNL     1     -36.424  24.318   5.606  0.00  0.00    +0.150 HD
ENDBRANCH  12  14
BRANCH  12  19
ATOM     18  O   UNL     1     -38.854  24.119   3.406  0.00  0.00    -0.286 OA
ATOM     19  C   UNL     1     -37.739  23.812   2.992  0.00  0.00    +0.229 C 
ENDBRANCH  12  19
ENDBRANCH   1  12
TORSDOF 9
ENDMDL
MODEL 7
REMARK VINA RESULT:      -4.7      2.057      2.460
REMARK  Name = 196668
REMARK  9 active torsions:
REMARK  status: ('A' for Active; 'I' for Inactive)
REMARK    1  A    between atoms: C_1  and  O_2
REMARK    2  A    between atoms: C_1  and  C_4
REMARK    3  A    between atoms: C_1  and  CA_12
REMARK    4  A    between atoms: C_4  and  O_5
REMARK    5  A    between atoms: C_4  and  C_7
REMARK    6  A    between atoms: C_7  and  C_9
REMARK    7  A    between atoms: C_7  and  O_10
REMARK    8  A    between atoms: CA_12  and  N_14
REMARK    9  A    between atoms: CA_12  and  C_19
REMARK                            x       y       z     vdW  Elec       q    Type
REMARK                         _______ _______ _______ _____ _____    ______ ____
ROOT
ATOM      1  C   UNL     1     -35.483  25.571   5.256  0.00  0.00    +0.165 C 
ENDROOT
BRANCH   1   2
ATOM      2  O   UNL     1     -36.333  26.686   5.567  0.00  0.00    -0.380 OA
ATOM      3  H   UNL     1     -36.442  27.239   4.778  0.00  0.00    +0.211 HD
ENDBRANCH   1   2
BRANCH   1   4
ATOM      4  C   UNL     1     -36.355  24.298   5.256  0.00  0.00    +0.169 C 
BRANCH   4   5
ATOM      5  O   UNL     1     -37.570  24.589   4.551  0.00  0.00    -0.379 OA
ATOM      6  H   UNL     1     -37.987  23.760   4.269  0.00  0.00    +0.211 HD
ENDBRANCH   4   5
BRANCH   4   7
ATOM      7  C   UNL     1     -35.755  23.046   4.595  0.00  0.00    +0.175 C 
BRANCH   7   9
ATOM      8  F   UNL     1     -35.779  22.278   6.805  0.00  0.00    -0.232 F 
ATOM      9  C   UNL     1     -35.235  22.012   5.584  0.00  0.00    +0.225 C 
ENDBRANCH   7   9
BRANCH   7  10
ATOM     10  O   UNL     1     -36.726  22.441   3.747  0.00  0.00    -0.379 OA
ATOM     11  H   UNL     1     -36.290  21.807   3.157  0.00  0.00    +0.211 HD
ENDBRANCH   7  10
ENDBRANCH   4   7
ENDBRANCH   1   4
BRANCH   1  12
ATOM     12  CA  UNL     1     -34.768  25.888   3.938  0.00  0.00    +0.166 C 
BRANCH  12  14
ATOM     13  O   UNL     1     -36.305  24.818   1.718  0.00  0.00    -0.275 OA
ATOM     14  N   UNL     1     -35.597  26.619   3.014  0.00  0.00    -0.297 N 
ATOM     15  C   UNL     1     -36.297  26.019   1.978  0.00  0.00    +0.223 C 
ATOM     16  C   UNL     1     -37.102  27.009   1.180  0.00  0.00    +0.095 C 
ATOM     17  H   UNL     1     -35.669  27.595   3.123  0.00  0.00    +0.150 HD
ENDBRANCH  12  14
BRANCH  12  19
ATOM     18  O   UNL     1     -33.347  27.446   5.122  0.00  0.00    -0.286 OA
ATOM     19  C   UNL     1     -33.520  26.722   4.146  0.00  0.00    +0.229 C 
ENDBRANCH  12  19
ENDBRANCH   1  12
TORSDOF 9
ENDMDL
MODEL 8
REMARK VINA RESULT:      -4.6      2.387      3.122
REMARK  Name = 196668
REMARK  9 active torsions:
REMARK  status: ('A' for Active; 'I' for Inactive)
REMARK    1  A    between atoms: C_1  and  O_2
REMARK    2  A    between atoms: C_1  and  C_4
REMARK    3  A    between atoms: C_1  and  CA_12
REMARK    4  A    between atoms: C_4  and  O_5
REMARK    5  A    between atoms: C_4  and  C_7
REMARK    6  A    between atoms: C_7  and  C_9
REMARK    7  A    between atoms: C_7  and  O_10
REMARK    8  A    between atoms: CA_12  and  N_14
REMARK    9  A    between atoms: CA_12  and  C_19
REMARK                            x       y       z     vdW  Elec       q    Type
REMARK                         _______ _______ _______ _____ _____    ______ ____
ROOT
ATOM      1  C   UNL     1     -35.725  25.641   5.279  0.00  0.00    +0.165 C 
ENDROOT
BRANCH   1   2
ATOM      2  O   UNL     1     -36.737  26.619   5.562  0.00  0.00    -0.380 OA
ATOM      3  H   UNL     1     -37.379  26.250   6.187  0.00  0.00    +0.211 HD
ENDBRANCH   1   2
BRANCH   1   4
ATOM      4  C   UNL     1     -36.378  24.511   4.455  0.00  0.00    +0.169 C 
BRANCH   4   5
ATOM      5  O   UNL     1     -36.290  24.863   3.068  0.00  0.00    -0.379 OA
ATOM      6  H   UNL     1     -35.597  25.531   2.947  0.00  0.00    +0.211 HD
ENDBRANCH   4   5
BRANCH   4   7
ATOM      7  C   UNL     1     -35.762  23.109   4.591  0.00  0.00    +0.175 C 
BRANCH   7   9
ATOM      8  F   UNL     1     -35.075  21.404   6.040  0.00  0.00    -0.232 F 
ATOM      9  C   UNL     1     -35.397  22.728   6.020  0.00  0.00    +0.225 C 
ENDBRANCH   7   9
BRANCH   7  10
ATOM     10  O   UNL     1     -36.659  22.138   4.060  0.00  0.00    -0.379 OA
ATOM     11  H   UNL     1     -36.275  21.254   4.159  0.00  0.00    +0.211 HD
ENDBRANCH   7  10
ENDBRANCH   4   7
ENDBRANCH   1   4
BRANCH   1  12
ATOM     12  CA  UNL     1     -34.556  26.366   4.604  0.00  0.00    +0.166 C 
BRANCH  12  14
ATOM     13  O   UNL     1     -34.533  27.069   1.787  0.00  0.00    -0.275 OA
ATOM     14  N   UNL     1     -34.943  27.621   4.012  0.00  0.00    -0.297 N 
ATOM     15  C   UNL     1     -34.897  27.867   2.648  0.00  0.00    +0.223 C 
ATOM     16  C   UNL     1     -35.379  29.248   2.298  0.00  0.00    +0.095 C 
ATOM     17  H   UNL     1     -35.255  28.341   4.607  0.00  0.00    +0.150 HD
ENDBRANCH  12  14
BRANCH  12  19
ATOM     18  O   UNL     1     -32.906  27.783   5.664  0.00  0.00    -0.286 OA
ATOM     19  C   UNL     1     -33.434  26.678   5.575  0.00  0.00    +0.229 C 
ENDBRANCH  12  19
ENDBRANCH   1  12
TORSDOF 9
ENDMDL
MODEL 9
REMARK VINA RESULT:      -4.6      3.653      4.941
REMARK  Name = 196668
REMARK  9 active torsions:
REMARK  status: ('A' for Active; 'I' for Inactive)
REMARK    1  A    between atoms: C_1  and  O_2
REMARK    2  A    between atoms: C_1  and  C_4
REMARK    3  A    between atoms: C_1  and  CA_12
REMARK    4  A    between atoms: C_4  and  O_5
REMARK    5  A    between atoms: C_4  and  C_7
REMARK    6  A    between atoms: C_7  and  C_9
REMARK    7  A    between atoms: C_7  and  O_10
REMARK    8  A    between atoms: CA_12  and  N_14
REMARK    9  A    between atoms: CA_12  and  C_19
REMARK                            x       y       z     vdW  Elec       q    Type
REMARK                         _______ _______ _______ _____ _____    ______ ____
ROOT
ATOM      1  C   UNL     1     -37.762  21.937   2.227  0.00  0.00    +0.165 C 
ENDROOT
BRANCH   1   2
ATOM      2  O   UNL     1     -38.337  22.695   1.152  0.00  0.00    -0.380 OA
ATOM      3  H   UNL     1     -37.711  23.378   0.866  0.00  0.00    +0.211 HD
ENDBRANCH   1   2
BRANCH   1   4
ATOM      4  C   UNL     1     -36.960  20.772   1.606  0.00  0.00    +0.169 C 
BRANCH   4   5
ATOM      5  O   UNL     1     -36.886  19.717   2.574  0.00  0.00    -0.379 OA
ATOM      6  H   UNL     1     -37.442  18.975   2.287  0.00  0.00    +0.211 HD
ENDBRANCH   4   5
BRANCH   4   7
ATOM      7  C   UNL     1     -37.525  20.148   0.320  0.00  0.00    +0.175 C 
BRANCH   7   9
ATOM      8  F   UNL     1     -37.930  17.879  -0.084  0.00  0.00    -0.232 F 
ATOM      9  C   UNL     1     -36.921  18.794  -0.028  0.00  0.00    +0.225 C 
ENDBRANCH   7   9
BRANCH   7  10
ATOM     10  O   UNL     1     -38.939  20.019   0.432  0.00  0.00    -0.379 OA
ATOM     11  H   UNL     1     -39.196  19.104   0.245  0.00  0.00    +0.211 HD
ENDBRANCH   7  10
ENDBRANCH   4   7
ENDBRANCH   1   4
BRANCH   1  12
ATOM     12  CA  UNL     1     -36.958  22.907   3.099  0.00  0.00    +0.166 C 
BRANCH  12  14
ATOM     13  O   UNL     1     -36.074  24.100   5.594  0.00  0.00    -0.275 OA
ATOM     14  N   UNL     1     -36.287  22.253   4.192  0.00  0.00    -0.297 N 
ATOM     15  C   UNL     1     -35.900  22.908   5.351  0.00  0.00    +0.223 C 
ATOM     16  C   UNL     1     -35.242  21.985   6.341  0.00  0.00    +0.095 C 
ATOM     17  H   UNL     1     -36.093  21.291   4.113  0.00  0.00    +0.150 HD
ENDBRANCH  12  14
BRANCH  12  19
ATOM     18  O   UNL     1     -36.124  24.571   1.553  0.00  0.00    -0.286 OA
ATOM     19  C   UNL     1     -35.886  23.635   2.313  0.00  0.00    +0.229 C 
ENDBRANCH  12  19
ENDBRANCH   1  12
TORSDOF 9
ENDMDL
