MODEL 1
REMARK VINA RESULT:      -5.5      0.000      0.000
REMARK  Name = 191815
REMARK  5 active torsions:
REMARK  status: ('A' for Active; 'I' for Inactive)
REMARK    1  A    between atoms: C_1  and  C_11
REMARK    2  A    between atoms: C_2  and  C_15
REMARK    3  A    between atoms: C_5  and  N_8
REMARK    4  A    between atoms: C_11  and  O_12
REMARK    5  A    between atoms: C_15  and  O_16
REMARK                            x       y       z     vdW  Elec       q    Type
REMARK                         _______ _______ _______ _____ _____    ______ ____
ROOT
ATOM      1  C   UNL     1     -35.051  22.898   4.746  0.00  0.00    +0.083 C 
ATOM      2  C   UNL     1     -35.381  22.665   3.411  0.00  0.00    +0.082 C 
ATOM      3  C   UNL     1     -34.364  24.059   5.101  0.00  0.00    +0.027 C 
ATOM      4  C   UNL     1     -35.026  23.592   2.432  0.00  0.00    +0.008 C 
ATOM      5  C   UNL     1     -34.008  24.987   4.123  0.00  0.00    +0.091 C 
ATOM      6  C   UNL     1     -34.339  24.754   2.788  0.00  0.00    +0.020 C 
ENDROOT
BRANCH   5   8
ATOM      7  S   UNL     1     -34.049  28.383   3.005  0.00  0.00    +0.021 S 
ATOM      8  N   UNL     1     -33.318  26.150   4.478  0.00  0.00    -0.196 NA
ATOM      9  C   UNL     1     -33.637  27.094   3.846  0.00  0.00    +0.041 C 
ENDBRANCH   5   8
BRANCH   1  11
ATOM     10  O   UNL     1     -36.220  22.158   6.697  0.00  0.00    -0.245 OA
ATOM     11  C   UNL     1     -35.409  21.949   5.792  0.00  0.00    +0.338 C 
BRANCH  11  12
ATOM     12  O   UNL     1     -34.743  20.770   5.671  0.00  0.00    -0.477 OA
ATOM     13  H   UNL     1     -35.009  20.027   6.176  0.00  0.00    +0.295 HD
ENDBRANCH  11  12
ENDBRANCH   1  11
BRANCH   2  15
ATOM     14  O   UNL     1     -35.591  20.357   2.820  0.00  0.00    -0.245 OA
ATOM     15  C   UNL     1     -36.101  21.464   3.008  0.00  0.00    +0.338 C 
BRANCH  15  16
ATOM     16  O   UNL     1     -37.434  21.686   2.852  0.00  0.00    -0.477 OA
ATOM     17  H   UNL     1     -37.899  22.201   3.482  0.00  0.00    +0.295 HD
ENDBRANCH  15  16
ENDBRANCH   2  15
TORSDOF 5
ENDMDL
MODEL 2
REMARK VINA RESULT:      -5.4      3.889      5.258
REMARK  Name = 191815
REMARK  5 active torsions:
REMARK  status: ('A' for Active; 'I' for Inactive)
REMARK    1  A    between atoms: C_1  and  C_11
REMARK    2  A    between atoms: C_2  and  C_15
REMARK    3  A    between atoms: C_5  and  N_8
REMARK    4  A    between atoms: C_11  and  O_12
REMARK    5  A    between atoms: C_15  and  O_16
REMARK                            x       y       z     vdW  Elec       q    Type
REMARK                         _______ _______ _______ _____ _____    ______ ____
ROOT
ATOM      1  C   UNL     1     -35.575  24.330   3.551  0.00  0.00    +0.083 C 
ATOM      2  C   UNL     1     -35.376  24.518   4.919  0.00  0.00    +0.082 C 
ATOM      3  C   UNL     1     -35.661  23.040   3.030  0.00  0.00    +0.027 C 
ATOM      4  C   UNL     1     -35.264  23.415   5.765  0.00  0.00    +0.008 C 
ATOM      5  C   UNL     1     -35.549  21.936   3.876  0.00  0.00    +0.091 C 
ATOM      6  C   UNL     1     -35.350  22.124   5.244  0.00  0.00    +0.020 C 
ENDROOT
BRANCH   5   8
ATOM      7  S   UNL     1     -34.187  20.276   1.016  0.00  0.00    +0.021 S 
ATOM      8  N   UNL     1     -35.634  20.641   3.354  0.00  0.00    -0.196 NA
ATOM      9  C   UNL     1     -35.015  20.497   2.361  0.00  0.00    +0.041 C 
ENDBRANCH   5   8
BRANCH   1  11
ATOM     10  O   UNL     1     -34.771  25.966   2.002  0.00  0.00    -0.245 OA
ATOM     11  C   UNL     1     -35.697  25.462   2.642  0.00  0.00    +0.338 C 
BRANCH  11  12
ATOM     12  O   UNL     1     -36.973  25.927   2.562  0.00  0.00    -0.477 OA
ATOM     13  H   UNL     1     -37.452  25.846   1.760  0.00  0.00    +0.295 HD
ENDBRANCH  11  12
ENDBRANCH   1  11
BRANCH   2  15
ATOM     14  O   UNL     1     -34.244  26.395   5.877  0.00  0.00    -0.245 OA
ATOM     15  C   UNL     1     -35.284  25.853   5.495  0.00  0.00    +0.338 C 
BRANCH  15  16
ATOM     16  O   UNL     1     -36.495  26.468   5.574  0.00  0.00    -0.477 OA
ATOM     17  H   UNL     1     -37.050  26.507   4.820  0.00  0.00    +0.295 HD
ENDBRANCH  15  16
ENDBRANCH   2  15
TORSDOF 5
ENDMDL
MODEL 3
REMARK VINA RESULT:      -5.2      1.136      2.951
REMARK  Name = 191815
REMARK  5 active torsions:
REMARK  status: ('A' for Active; 'I' for Inactive)
REMARK    1  A    between atoms: C_1  and  C_11
REMARK    2  A    between atoms: C_2  and  C_15
REMARK    3  A    between atoms: C_5  and  N_8
REMARK    4  A    between atoms: C_11  and  O_12
REMARK    5  A    between atoms: C_15  and  O_16
REMARK                            x       y       z     vdW  Elec       q    Type
REMARK                         _______ _______ _______ _____ _____    ______ ____
ROOT
ATOM      1  C   UNL     1     -35.414  22.729   3.497  0.00  0.00    +0.083 C 
ATOM      2  C   UNL     1     -35.081  22.929   4.837  0.00  0.00    +0.082 C 
ATOM      3  C   UNL     1     -35.089  23.697   2.547  0.00  0.00    +0.027 C 
ATOM      4  C   UNL     1     -34.423  24.094   5.226  0.00  0.00    +0.008 C 
ATOM      5  C   UNL     1     -34.431  24.863   2.935  0.00  0.00    +0.091 C 
ATOM      6  C   UNL     1     -34.098  25.063   4.275  0.00  0.00    +0.020 C 
ENDROOT
BRANCH   5   8
ATOM      7  S   UNL     1     -36.157  27.627   1.462  0.00  0.00    +0.021 S 
ATOM      8  N   UNL     1     -34.105  25.835   1.983  0.00  0.00    -0.196 NA
ATOM      9  C   UNL     1     -34.985  26.592   1.770  0.00  0.00    +0.041 C 
ENDBRANCH   5   8
BRANCH   1  11
ATOM     10  O   UNL     1     -35.570  20.422   2.885  0.00  0.00    -0.245 OA
ATOM     11  C   UNL     1     -36.101  21.521   3.059  0.00  0.00    +0.338 C 
BRANCH  11  12
ATOM     12  O   UNL     1     -37.430  21.727   2.853  0.00  0.00    -0.477 OA
ATOM     13  H   UNL     1     -37.814  21.515   2.025  0.00  0.00    +0.295 HD
ENDBRANCH  11  12
ENDBRANCH   1  11
BRANCH   2  15
ATOM     14  O   UNL     1     -36.231  22.084   6.757  0.00  0.00    -0.245 OA
ATOM     15  C   UNL     1     -35.405  21.936   5.853  0.00  0.00    +0.338 C 
BRANCH  15  16
ATOM     16  O   UNL     1     -34.685  20.791   5.707  0.00  0.00    -0.477 OA
ATOM     17  H   UNL     1     -35.103  19.959   5.807  0.00  0.00    +0.295 HD
ENDBRANCH  15  16
ENDBRANCH   2  15
TORSDOF 5
ENDMDL
MODEL 4
REMARK VINA RESULT:      -5.1      2.343      3.267
REMARK  Name = 191815
REMARK  5 active torsions:
REMARK  status: ('A' for Active; 'I' for Inactive)
REMARK    1  A    between atoms: C_1  and  C_11
REMARK    2  A    between atoms: C_2  and  C_15
REMARK    3  A    between atoms: C_5  and  N_8
REMARK    4  A    between atoms: C_11  and  O_12
REMARK    5  A    between atoms: C_15  and  O_16
REMARK                            x       y       z     vdW  Elec       q    Type
REMARK                         _______ _______ _______ _____ _____    ______ ____
ROOT
ATOM      1  C   UNL     1     -36.112  22.919   2.798  0.00  0.00    +0.083 C 
ATOM      2  C   UNL     1     -35.680  21.751   3.424  0.00  0.00    +0.082 C 
ATOM      3  C   UNL     1     -36.187  24.110   3.520  0.00  0.00    +0.027 C 
ATOM      4  C   UNL     1     -35.321  21.773   4.771  0.00  0.00    +0.008 C 
ATOM      5  C   UNL     1     -35.828  24.133   4.867  0.00  0.00    +0.091 C 
ATOM      6  C   UNL     1     -35.395  22.965   5.494  0.00  0.00    +0.020 C 
ENDROOT
BRANCH   5   8
ATOM      7  S   UNL     1     -33.472  26.636   5.855  0.00  0.00    +0.021 S 
ATOM      8  N   UNL     1     -35.903  25.327   5.592  0.00  0.00    -0.196 NA
ATOM      9  C   UNL     1     -34.864  25.876   5.697  0.00  0.00    +0.041 C 
ENDBRANCH   5   8
BRANCH   1  11
ATOM     10  O   UNL     1     -37.572  22.535   0.942  0.00  0.00    -0.245 OA
ATOM     11  C   UNL     1     -36.493  22.928   1.391  0.00  0.00    +0.338 C 
BRANCH  11  12
ATOM     12  O   UNL     1     -35.513  23.430   0.593  0.00  0.00    -0.477 OA
ATOM     13  H   UNL     1     -34.617  23.202   0.752  0.00  0.00    +0.295 HD
ENDBRANCH  11  12
ENDBRANCH   1  11
BRANCH   2  15
ATOM     14  O   UNL     1     -34.566  20.042   2.174  0.00  0.00    -0.245 OA
ATOM     15  C   UNL     1     -35.589  20.491   2.697  0.00  0.00    +0.338 C 
BRANCH  15  16
ATOM     16  O   UNL     1     -36.779  19.835   2.646  0.00  0.00    -0.477 OA
ATOM     17  H   UNL     1     -37.418  20.075   2.004  0.00  0.00    +0.295 HD
ENDBRANCH  15  16
ENDBRANCH   2  15
TORSDOF 5
ENDMDL
MODEL 5
REMARK VINA RESULT:      -5.0      1.327      2.844
REMARK  Name = 191815
REMARK  5 active torsions:
REMARK  status: ('A' for Active; 'I' for Inactive)
REMARK    1  A    between atoms: C_1  and  C_11
REMARK    2  A    between atoms: C_2  and  C_15
REMARK    3  A    between atoms: C_5  and  N_8
REMARK    4  A    between atoms: C_11  and  O_12
REMARK    5  A    between atoms: C_15  and  O_16
REMARK                            x       y       z     vdW  Elec       q    Type
REMARK                         _______ _______ _______ _____ _____    ______ ____
ROOT
ATOM      1  C   UNL     1     -35.870  23.707   3.851  0.00  0.00    +0.083 C 
ATOM      2  C   UNL     1     -35.350  23.316   5.085  0.00  0.00    +0.082 C 
ATOM      3  C   UNL     1     -35.750  25.033   3.433  0.00  0.00    +0.027 C 
ATOM      4  C   UNL     1     -34.710  24.249   5.900  0.00  0.00    +0.008 C 
ATOM      5  C   UNL     1     -35.110  25.966   4.247  0.00  0.00    +0.091 C 
ATOM      6  C   UNL     1     -34.590  25.575   5.481  0.00  0.00    +0.020 C 
ENDROOT
BRANCH   5   8
ATOM      7  S   UNL     1     -33.223  27.655   1.722  0.00  0.00    +0.021 S 
ATOM      8  N   UNL     1     -34.990  27.296   3.829  0.00  0.00    -0.196 NA
ATOM      9  C   UNL     1     -34.237  27.437   2.932  0.00  0.00    +0.041 C 
ENDBRANCH   5   8
BRANCH   1  11
ATOM     10  O   UNL     1     -36.006  22.119   2.068  0.00  0.00    -0.245 OA
ATOM     11  C   UNL     1     -36.543  22.756   2.977  0.00  0.00    +0.338 C 
BRANCH  11  12
ATOM     12  O   UNL     1     -37.866  22.633   3.268  0.00  0.00    -0.477 OA
ATOM     13  H   UNL     1     -38.138  22.123   4.006  0.00  0.00    +0.295 HD
ENDBRANCH  11  12
ENDBRANCH   1  11
BRANCH   2  15
ATOM     14  O   UNL     1     -34.884  20.970   5.045  0.00  0.00    -0.245 OA
ATOM     15  C   UNL     1     -35.457  21.939   5.549  0.00  0.00    +0.338 C 
BRANCH  15  16
ATOM     16  O   UNL     1     -36.278  21.818   6.627  0.00  0.00    -0.477 OA
ATOM     17  H   UNL     1     -35.960  21.425   7.415  0.00  0.00    +0.295 HD
ENDBRANCH  15  16
ENDBRANCH   2  15
TORSDOF 5
ENDMDL
MODEL 6
REMARK VINA RESULT:      -4.9      1.828      2.261
REMARK  Name = 191815
REMARK  5 active torsions:
REMARK  status: ('A' for Active; 'I' for Inactive)
REMARK    1  A    between atoms: C_1  and  C_11
REMARK    2  A    between atoms: C_2  and  C_15
REMARK    3  A    between atoms: C_5  and  N_8
REMARK    4  A    between atoms: C_11  and  O_12
REMARK    5  A    between atoms: C_15  and  O_16
REMARK                            x       y       z     vdW  Elec       q    Type
REMARK                         _______ _______ _______ _____ _____    ______ ____
ROOT
ATOM      1  C   UNL     1     -35.491  23.933   4.734  0.00  0.00    +0.083 C 
ATOM      2  C   UNL     1     -36.297  24.621   3.828  0.00  0.00    +0.082 C 
ATOM      3  C   UNL     1     -34.513  24.618   5.456  0.00  0.00    +0.027 C 
ATOM      4  C   UNL     1     -36.127  25.993   3.644  0.00  0.00    +0.008 C 
ATOM      5  C   UNL     1     -34.342  25.990   5.272  0.00  0.00    +0.091 C 
ATOM      6  C   UNL     1     -35.149  26.678   4.366  0.00  0.00    +0.020 C 
ENDROOT
BRANCH   5   8
ATOM      7  S   UNL     1     -31.904  28.481   4.473  0.00  0.00    +0.021 S 
ATOM      8  N   UNL     1     -33.361  26.677   5.994  0.00  0.00    -0.196 NA
ATOM      9  C   UNL     1     -32.748  27.442   5.338  0.00  0.00    +0.041 C 
ENDBRANCH   5   8
BRANCH   1  11
ATOM     10  O   UNL     1     -35.301  21.619   4.158  0.00  0.00    -0.245 OA
ATOM     11  C   UNL     1     -35.644  22.500   4.949  0.00  0.00    +0.338 C 
BRANCH  11  12
ATOM     12  O   UNL     1     -36.223  22.217   6.147  0.00  0.00    -0.477 OA
ATOM     13  H   UNL     1     -35.689  22.002   6.887  0.00  0.00    +0.295 HD
ENDBRANCH  11  12
ENDBRANCH   1  11
BRANCH   2  15
ATOM     14  O   UNL     1     -37.135  23.264   2.045  0.00  0.00    -0.245 OA
ATOM     15  C   UNL     1     -37.329  23.935   3.061  0.00  0.00    +0.338 C 
BRANCH  15  16
ATOM     16  O   UNL     1     -38.571  24.112   3.589  0.00  0.00    -0.477 OA
ATOM     17  H   UNL     1     -38.668  24.502   4.435  0.00  0.00    +0.295 HD
ENDBRANCH  15  16
ENDBRANCH   2  15
TORSDOF 5
ENDMDL
MODEL 7
REMARK VINA RESULT:      -4.8      3.205      4.464
REMARK  Name = 191815
REMARK  5 active torsions:
REMARK  status: ('A' for Active; 'I' for Inactive)
REMARK    1  A    between atoms: C_1  and  C_11
REMARK    2  A    between atoms: C_2  and  C_15
REMARK    3  A    between atoms: C_5  and  N_8
REMARK    4  A    between atoms: C_11  and  O_12
REMARK    5  A    between atoms: C_15  and  O_16
REMARK                            x       y       z     vdW  Elec       q    Type
REMARK                         _______ _______ _______ _____ _____    ______ ____
ROOT
ATOM      1  C   UNL     1     -35.683  26.461   3.242  0.00  0.00    +0.083 C 
ATOM      2  C   UNL     1     -36.472  25.749   4.145  0.00  0.00    +0.082 C 
ATOM      3  C   UNL     1     -34.405  26.879   3.612  0.00  0.00    +0.027 C 
ATOM      4  C   UNL     1     -35.984  25.455   5.417  0.00  0.00    +0.008 C 
ATOM      5  C   UNL     1     -33.916  26.585   4.885  0.00  0.00    +0.091 C 
ATOM      6  C   UNL     1     -34.705  25.874   5.788  0.00  0.00    +0.020 C 
ENDROOT
BRANCH   5   8
ATOM      7  S   UNL     1     -32.043  29.607   4.503  0.00  0.00    +0.021 S 
ATOM      8  N   UNL     1     -32.635  27.005   5.258  0.00  0.00    -0.196 NA
ATOM      9  C   UNL     1     -32.394  28.114   4.932  0.00  0.00    +0.041 C 
ENDBRANCH   5   8
BRANCH   1  11
ATOM     10  O   UNL     1     -35.966  26.104   0.893  0.00  0.00    -0.245 OA
ATOM     11  C   UNL     1     -36.164  26.782   1.904  0.00  0.00    +0.338 C 
BRANCH  11  12
ATOM     12  O   UNL     1     -36.877  27.940   1.876  0.00  0.00    -0.477 OA
ATOM     13  H   UNL     1     -37.758  27.940   1.558  0.00  0.00    +0.295 HD
ENDBRANCH  11  12
ENDBRANCH   1  11
BRANCH   2  15
ATOM     14  O   UNL     1     -38.137  24.123   3.594  0.00  0.00    -0.245 OA
ATOM     15  C   UNL     1     -37.810  25.296   3.787  0.00  0.00    +0.338 C 
BRANCH  15  16
ATOM     16  O   UNL     1     -38.694  26.324   3.682  0.00  0.00    -0.477 OA
ATOM     17  H   UNL     1     -39.509  26.197   3.237  0.00  0.00    +0.295 HD
ENDBRANCH  15  16
ENDBRANCH   2  15
TORSDOF 5
ENDMDL
MODEL 8
REMARK VINA RESULT:      -4.8      3.745      4.622
REMARK  Name = 191815
REMARK  5 active torsions:
REMARK  status: ('A' for Active; 'I' for Inactive)
REMARK    1  A    between atoms: C_1  and  C_11
REMARK    2  A    between atoms: C_2  and  C_15
REMARK    3  A    between atoms: C_5  and  N_8
REMARK    4  A    between atoms: C_11  and  O_12
REMARK    5  A    between atoms: C_15  and  O_16
REMARK                            x       y       z     vdW  Elec       q    Type
REMARK                         _______ _______ _______ _____ _____    ______ ____
ROOT
ATOM      1  C   UNL     1     -35.903  22.545   3.941  0.00  0.00    +0.083 C 
ATOM      2  C   UNL     1     -36.666  23.457   3.212  0.00  0.00    +0.082 C 
ATOM      3  C   UNL     1     -35.525  21.334   3.362  0.00  0.00    +0.027 C 
ATOM      4  C   UNL     1     -37.052  23.159   1.907  0.00  0.00    +0.008 C 
ATOM      5  C   UNL     1     -35.911  21.034   2.055  0.00  0.00    +0.091 C 
ATOM      6  C   UNL     1     -36.674  21.946   1.327  0.00  0.00    +0.020 C 
ENDROOT
BRANCH   5   8
ATOM      7  S   UNL     1     -32.894  19.750   0.627  0.00  0.00    +0.021 S 
ATOM      8  N   UNL     1     -35.534  19.819   1.475  0.00  0.00    -0.196 NA
ATOM      9  C   UNL     1     -34.409  19.801   1.119  0.00  0.00    +0.041 C 
ENDBRANCH   5   8
BRANCH   1  11
ATOM     10  O   UNL     1     -36.009  22.370   6.324  0.00  0.00    -0.245 OA
ATOM     11  C   UNL     1     -35.483  22.829   5.307  0.00  0.00    +0.338 C 
BRANCH  11  12
ATOM     12  O   UNL     1     -34.421  23.677   5.357  0.00  0.00    -0.477 OA
ATOM     13  H   UNL     1     -34.260  24.268   4.648  0.00  0.00    +0.295 HD
ENDBRANCH  11  12
ENDBRANCH   1  11
BRANCH   2  15
ATOM     14  O   UNL     1     -36.332  25.700   3.974  0.00  0.00    -0.245 OA
ATOM     15  C   UNL     1     -37.074  24.733   3.788  0.00  0.00    +0.338 C 
BRANCH  15  16
ATOM     16  O   UNL     1     -38.395  24.756   4.112  0.00  0.00    -0.477 OA
ATOM     17  H   UNL     1     -38.995  25.253   3.592  0.00  0.00    +0.295 HD
ENDBRANCH  15  16
ENDBRANCH   2  15
TORSDOF 5
ENDMDL
MODEL 9
REMARK VINA RESULT:      -4.8      3.684      4.702
REMARK  Name = 191815
REMARK  5 active torsions:
REMARK  status: ('A' for Active; 'I' for Inactive)
REMARK    1  A    between atoms: C_1  and  C_11
REMARK    2  A    between atoms: C_2  and  C_15
REMARK    3  A    between atoms: C_5  and  N_8
REMARK    4  A    between atoms: C_11  and  O_12
REMARK    5  A    between atoms: C_15  and  O_16
REMARK                            x       y       z     vdW  Elec       q    Type
REMARK                         _______ _______ _______ _____ _____    ______ ____
ROOT
ATOM      1  C   UNL     1     -35.386  22.096   3.914  0.00  0.00    +0.083 C 
ATOM      2  C   UNL     1     -35.010  23.326   3.374  0.00  0.00    +0.082 C 
ATOM      3  C   UNL     1     -35.650  21.017   3.071  0.00  0.00    +0.027 C 
ATOM      4  C   UNL     1     -34.898  23.476   1.993  0.00  0.00    +0.008 C 
ATOM      5  C   UNL     1     -35.538  21.166   1.689  0.00  0.00    +0.091 C 
ATOM      6  C   UNL     1     -35.162  22.396   1.149  0.00  0.00    +0.020 C 
ENDROOT
BRANCH   5   8
ATOM      7  S   UNL     1     -38.336  20.140  -0.287  0.00  0.00    +0.021 S 
ATOM      8  N   UNL     1     -35.804  20.084   0.843  0.00  0.00    -0.196 NA
ATOM      9  C   UNL     1     -36.883  20.119   0.368  0.00  0.00    +0.041 C 
ENDBRANCH   5   8
BRANCH   1  11
ATOM     10  O   UNL     1     -35.946  22.746   6.147  0.00  0.00    -0.245 OA
ATOM     11  C   UNL     1     -35.512  21.908   5.354  0.00  0.00    +0.338 C 
BRANCH  11  12
ATOM     12  O   UNL     1     -35.090  20.678   5.753  0.00  0.00    -0.477 OA
ATOM     13  H   UNL     1     -34.528  20.594   6.498  0.00  0.00    +0.295 HD
ENDBRANCH  11  12
ENDBRANCH   1  11
BRANCH   2  15
ATOM     14  O   UNL     1     -33.610  24.786   4.651  0.00  0.00    -0.245 OA
ATOM     15  C   UNL     1     -34.725  24.472   4.228  0.00  0.00    +0.338 C 
BRANCH  15  16
ATOM     16  O   UNL     1     -35.843  25.187   4.526  0.00  0.00    -0.477 OA
ATOM     17  H   UNL     1     -36.690  24.808   4.394  0.00  0.00    +0.295 HD
ENDBRANCH  15  16
ENDBRANCH   2  15
TORSDOF 5
ENDMDL
