MODEL 1
REMARK VINA RESULT:      -6.3      0.000      0.000
REMARK  Name = 5959644
REMARK  7 active torsions:
REMARK  status: ('A' for Active; 'I' for Inactive)
REMARK    1  A    between atoms: C_4  and  C_27
REMARK    2  A    between atoms: C_9  and  O_18
REMARK    3  A    between atoms: O_18  and  C_20
REMARK    4  A    between atoms: C_20  and  C_21
REMARK    5  A    between atoms: C_23  and  C_24
REMARK    6  A    between atoms: C_24  and  O_25
REMARK    7  A    between atoms: C_27  and  O_28
REMARK                            x       y       z     vdW  Elec       q    Type
REMARK                         _______ _______ _______ _____ _____    ______ ____
ROOT
ATOM      1  O   UNL     1     -37.370  20.398   0.335  0.00  0.00    -0.350 OA
ATOM      2  O   UNL     1     -39.447  22.457   0.915  0.00  0.00    -0.446 OA
ATOM      3  O   UNL     1     -41.338  23.747   1.093  0.00  0.00    -0.245 OA
ATOM      4  C   UNL     1     -36.131  20.943   0.801  0.00  0.00    +0.148 C 
ATOM      5  C   UNL     1     -37.237  21.828   0.304  0.00  0.00    +0.182 C 
ATOM      6  C   UNL     1     -38.060  22.598   1.283  0.00  0.00    +0.206 C 
ATOM      7  C   UNL     1     -37.762  24.099   1.222  0.00  0.00    +0.112 C 
ATOM      8  C   UNL     1     -34.931  20.734  -0.059  0.00  0.00    +0.037 C 
ATOM      9  C   UNL     1     -36.637  24.610   2.151  0.00  0.00    +0.181 C 
ATOM     10  C   UNL     1     -33.841  21.759   0.269  0.00  0.00    +0.028 C 
ATOM     11  C   UNL     1     -39.131  24.640   1.500  0.00  0.00    +0.060 C 
ATOM     12  C   UNL     1     -35.216  24.069   1.879  0.00  0.00    +0.066 C 
ATOM     13  C   UNL     1     -40.131  23.607   1.164  0.00  0.00    +0.337 C 
ATOM     14  C   UNL     1     -34.144  23.152  -0.224  0.00  0.00    -0.034 C 
ATOM     15  C   UNL     1     -34.699  24.174   0.462  0.00  0.00    -0.045 C 
ATOM     16  C   UNL     1     -39.508  25.825   1.988  0.00  0.00    +0.002 C 
ATOM     17  C   UNL     1     -34.776  25.541  -0.169  0.00  0.00    +0.026 C 
ENDROOT
BRANCH   9  18
ATOM     18  O   UNL     1     -36.971  24.285   3.505  0.00  0.00    -0.449 OA
BRANCH  18  20
ATOM     19  O   UNL     1     -36.641  26.266   4.631  0.00  0.00    -0.245 OA
ATOM     20  C   UNL     1     -36.407  25.079   4.455  0.00  0.00    +0.337 C 
BRANCH  20  21
ATOM     21  C   UNL     1     -35.439  24.274   5.261  0.00  0.00    +0.052 C 
ATOM     22  C   UNL     1     -34.148  24.917   5.673  0.00  0.00    +0.038 C 
ATOM     23  C   UNL     1     -35.808  23.006   5.525  0.00  0.00    +0.007 C 
BRANCH  23  24
ATOM     24  C   UNL     1     -35.043  21.988   6.312  0.00  0.00    +0.163 C 
BRANCH  24  25
ATOM     25  O   UNL     1     -35.370  20.695   5.816  0.00  0.00    -0.377 OA
ATOM     26  H   UNL     1     -36.335  20.591   5.793  0.00  0.00    +0.211 HD
ENDBRANCH  24  25
ENDBRANCH  23  24
ENDBRANCH  20  21
ENDBRANCH  18  20
ENDBRANCH   9  18
BRANCH   4  27
ATOM     27  C   UNL     1     -35.955  20.613   2.249  0.00  0.00    +0.167 C 
BRANCH  27  28
ATOM     28  O   UNL     1     -36.848  19.564   2.616  0.00  0.00    -0.379 OA
ATOM     29  H   UNL     1     -36.340  18.815   2.965  0.00  0.00    +0.211 HD
ENDBRANCH  27  28
ENDBRANCH   4  27
TORSDOF 7
ENDMDL
MODEL 2
REMARK VINA RESULT:      -6.3      2.077      5.158
REMARK  Name = 5959644
REMARK  7 active torsions:
REMARK  status: ('A' for Active; 'I' for Inactive)
REMARK    1  A    between atoms: C_4  and  C_27
REMARK    2  A    between atoms: C_9  and  O_18
REMARK    3  A    between atoms: O_18  and  C_20
REMARK    4  A    between atoms: C_20  and  C_21
REMARK    5  A    between atoms: C_23  and  C_24
REMARK    6  A    between atoms: C_24  and  O_25
REMARK    7  A    between atoms: C_27  and  O_28
REMARK                            x       y       z     vdW  Elec       q    Type
REMARK                         _______ _______ _______ _____ _____    ______ ____
ROOT
ATOM      1  O   UNL     1     -36.782  26.872   2.507  0.00  0.00    -0.350 OA
ATOM      2  O   UNL     1     -38.899  24.875   1.855  0.00  0.00    -0.446 OA
ATOM      3  O   UNL     1     -40.823  23.736   1.331  0.00  0.00    -0.245 OA
ATOM      4  C   UNL     1     -35.629  26.115   2.889  0.00  0.00    +0.148 C 
ATOM      5  C   UNL     1     -37.018  25.594   3.119  0.00  0.00    +0.182 C 
ATOM      6  C   UNL     1     -37.556  24.516   2.235  0.00  0.00    +0.206 C 
ATOM      7  C   UNL     1     -37.673  23.179   2.973  0.00  0.00    +0.112 C 
ATOM      8  C   UNL     1     -34.844  26.616   4.053  0.00  0.00    +0.037 C 
ATOM      9  C   UNL     1     -36.434  22.258   2.916  0.00  0.00    +0.181 C 
ATOM     10  C   UNL     1     -33.991  25.496   4.658  0.00  0.00    +0.028 C 
ATOM     11  C   UNL     1     -38.913  22.643   2.327  0.00  0.00    +0.060 C 
ATOM     12  C   UNL     1     -35.144  22.789   3.579  0.00  0.00    +0.066 C 
ATOM     13  C   UNL     1     -39.687  23.769   1.768  0.00  0.00    +0.337 C 
ATOM     14  C   UNL     1     -34.784  24.475   5.434  0.00  0.00    -0.034 C 
ATOM     15  C   UNL     1     -35.257  23.287   5.003  0.00  0.00    -0.045 C 
ATOM     16  C   UNL     1     -39.343  21.385   2.198  0.00  0.00    +0.002 C 
ATOM     17  C   UNL     1     -35.897  22.338   5.985  0.00  0.00    +0.026 C 
ENDROOT
BRANCH   9  18
ATOM     18  O   UNL     1     -36.129  21.976   1.545  0.00  0.00    -0.449 OA
BRANCH  18  20
ATOM     19  O   UNL     1     -36.589  19.733   1.306  0.00  0.00    -0.245 OA
ATOM     20  C   UNL     1     -35.818  20.680   1.267  0.00  0.00    +0.337 C 
BRANCH  20  21
ATOM     21  C   UNL     1     -34.371  20.586   0.907  0.00  0.00    +0.052 C 
ATOM     22  C   UNL     1     -33.737  21.748   0.200  0.00  0.00    +0.038 C 
ATOM     23  C   UNL     1     -33.760  19.430   1.228  0.00  0.00    +0.007 C 
BRANCH  23  24
ATOM     24  C   UNL     1     -32.326  19.071   0.995  0.00  0.00    +0.163 C 
BRANCH  24  25
ATOM     25  O   UNL     1     -32.079  17.796   1.579  0.00  0.00    -0.377 OA
ATOM     26  H   UNL     1     -32.581  17.715   2.406  0.00  0.00    +0.211 HD
ENDBRANCH  24  25
ENDBRANCH  23  24
ENDBRANCH  20  21
ENDBRANCH  18  20
ENDBRANCH   9  18
BRANCH   4  27
ATOM     27  C   UNL     1     -34.833  25.770   1.671  0.00  0.00    +0.167 C 
BRANCH  27  28
ATOM     28  O   UNL     1     -34.180  26.937   1.176  0.00  0.00    -0.379 OA
ATOM     29  H   UNL     1     -34.840  27.620   0.983  0.00  0.00    +0.211 HD
ENDBRANCH  27  28
ENDBRANCH   4  27
TORSDOF 7
ENDMDL
MODEL 3
REMARK VINA RESULT:      -6.1      1.895      5.289
REMARK  Name = 5959644
REMARK  7 active torsions:
REMARK  status: ('A' for Active; 'I' for Inactive)
REMARK    1  A    between atoms: C_4  and  C_27
REMARK    2  A    between atoms: C_9  and  O_18
REMARK    3  A    between atoms: O_18  and  C_20
REMARK    4  A    between atoms: C_20  and  C_21
REMARK    5  A    between atoms: C_23  and  C_24
REMARK    6  A    between atoms: C_24  and  O_25
REMARK    7  A    between atoms: C_27  and  O_28
REMARK                            x       y       z     vdW  Elec       q    Type
REMARK                         _______ _______ _______ _____ _____    ______ ____
ROOT
ATOM      1  O   UNL     1     -37.594  26.503   3.520  0.00  0.00    -0.350 OA
ATOM      2  O   UNL     1     -39.206  24.344   2.241  0.00  0.00    -0.446 OA
ATOM      3  O   UNL     1     -40.826  22.987   1.342  0.00  0.00    -0.245 OA
ATOM      4  C   UNL     1     -36.282  25.962   3.702  0.00  0.00    +0.148 C 
ATOM      5  C   UNL     1     -37.499  25.084   3.722  0.00  0.00    +0.182 C 
ATOM      6  C   UNL     1     -37.802  24.217   2.544  0.00  0.00    +0.206 C 
ATOM      7  C   UNL     1     -37.573  22.735   2.853  0.00  0.00    +0.112 C 
ATOM      8  C   UNL     1     -35.592  26.271   4.987  0.00  0.00    +0.037 C 
ATOM      9  C   UNL     1     -36.155  22.190   2.569  0.00  0.00    +0.181 C 
ATOM     10  C   UNL     1     -34.478  25.257   5.265  0.00  0.00    +0.028 C 
ATOM     11  C   UNL     1     -38.676  22.134   2.038  0.00  0.00    +0.060 C 
ATOM     12  C   UNL     1     -35.002  22.793   3.402  0.00  0.00    +0.066 C 
ATOM     13  C   UNL     1     -39.714  23.158   1.807  0.00  0.00    +0.337 C 
ATOM     14  C   UNL     1     -34.978  23.897   5.680  0.00  0.00    -0.034 C 
ATOM     15  C   UNL     1     -35.174  22.810   4.905  0.00  0.00    -0.045 C 
ATOM     16  C   UNL     1     -38.803  20.905   1.531  0.00  0.00    +0.002 C 
ATOM     17  C   UNL     1     -35.535  21.493   5.543  0.00  0.00    +0.026 C 
ENDROOT
BRANCH   9  18
ATOM     18  O   UNL     1     -35.845  22.402   1.187  0.00  0.00    -0.449 OA
BRANCH  18  20
ATOM     19  O   UNL     1     -33.678  22.403   0.407  0.00  0.00    -0.245 OA
ATOM     20  C   UNL     1     -34.697  21.819   0.747  0.00  0.00    +0.337 C 
BRANCH  20  21
ATOM     21  C   UNL     1     -34.871  20.334   0.735  0.00  0.00    +0.052 C 
ATOM     22  C   UNL     1     -34.020  19.511   1.656  0.00  0.00    +0.038 C 
ATOM     23  C   UNL     1     -35.773  19.856  -0.144  0.00  0.00    +0.007 C 
BRANCH  23  24
ATOM     24  C   UNL     1     -36.153  18.425  -0.360  0.00  0.00    +0.163 C 
BRANCH  24  25
ATOM     25  O   UNL     1     -37.079  18.046   0.652  0.00  0.00    -0.377 OA
ATOM     26  H   UNL     1     -37.910  17.760   0.240  0.00  0.00    +0.211 HD
ENDBRANCH  24  25
ENDBRANCH  23  24
ENDBRANCH  20  21
ENDBRANCH  18  20
ENDBRANCH   9  18
BRANCH   4  27
ATOM     27  C   UNL     1     -35.474  26.187   2.463  0.00  0.00    +0.167 C 
BRANCH  27  28
ATOM     28  O   UNL     1     -35.870  27.409   1.845  0.00  0.00    -0.379 OA
ATOM     29  H   UNL     1     -35.579  27.412   0.920  0.00  0.00    +0.211 HD
ENDBRANCH  27  28
ENDBRANCH   4  27
TORSDOF 7
ENDMDL
MODEL 4
REMARK VINA RESULT:      -6.1      2.074      5.182
REMARK  Name = 5959644
REMARK  7 active torsions:
REMARK  status: ('A' for Active; 'I' for Inactive)
REMARK    1  A    between atoms: C_4  and  C_27
REMARK    2  A    between atoms: C_9  and  O_18
REMARK    3  A    between atoms: O_18  and  C_20
REMARK    4  A    between atoms: C_20  and  C_21
REMARK    5  A    between atoms: C_23  and  C_24
REMARK    6  A    between atoms: C_24  and  O_25
REMARK    7  A    between atoms: C_27  and  O_28
REMARK                            x       y       z     vdW  Elec       q    Type
REMARK                         _______ _______ _______ _____ _____    ______ ____
ROOT
ATOM      1  O   UNL     1     -37.468  26.429  -0.274  0.00  0.00    -0.350 OA
ATOM      2  O   UNL     1     -35.489  24.303  -0.947  0.00  0.00    -0.446 OA
ATOM      3  O   UNL     1     -33.913  22.921  -1.886  0.00  0.00    -0.245 OA
ATOM      4  C   UNL     1     -38.122  25.996   0.924  0.00  0.00    +0.148 C 
ATOM      5  C   UNL     1     -37.583  25.011  -0.073  0.00  0.00    +0.182 C 
ATOM      6  C   UNL     1     -36.321  24.273   0.230  0.00  0.00    +0.206 C 
ATOM      7  C   UNL     1     -36.582  22.792   0.519  0.00  0.00    +0.112 C 
ATOM      8  C   UNL     1     -39.596  26.207   1.007  0.00  0.00    +0.037 C 
ATOM      9  C   UNL     1     -36.854  22.422   1.995  0.00  0.00    +0.181 C 
ATOM     10  C   UNL     1     -40.221  25.277   2.051  0.00  0.00    +0.028 C 
ATOM     11  C   UNL     1     -35.349  22.195  -0.084  0.00  0.00    +0.060 C 
ATOM     12  C   UNL     1     -38.124  23.024   2.637  0.00  0.00    +0.066 C 
ATOM     13  C   UNL     1     -34.798  23.137  -1.079  0.00  0.00    +0.337 C 
ATOM     14  C   UNL     1     -40.295  23.834   1.618  0.00  0.00    -0.034 C 
ATOM     15  C   UNL     1     -39.426  22.839   1.890  0.00  0.00    -0.045 C 
ATOM     16  C   UNL     1     -34.742  21.032   0.166  0.00  0.00    +0.002 C 
ATOM     17  C   UNL     1     -39.763  21.424   1.492  0.00  0.00    +0.026 C 
ENDROOT
BRANCH   9  18
ATOM     18  O   UNL     1     -35.734  22.833   2.788  0.00  0.00    -0.449 OA
BRANCH  18  20
ATOM     19  O   UNL     1     -35.386  20.877   3.953  0.00  0.00    -0.245 OA
ATOM     20  C   UNL     1     -35.505  22.092   3.908  0.00  0.00    +0.337 C 
BRANCH  20  21
ATOM     21  C   UNL     1     -35.426  23.000   5.092  0.00  0.00    +0.052 C 
ATOM     22  C   UNL     1     -35.313  22.383   6.455  0.00  0.00    +0.038 C 
ATOM     23  C   UNL     1     -35.494  24.319   4.827  0.00  0.00    +0.007 C 
BRANCH  23  24
ATOM     24  C   UNL     1     -35.430  25.442   5.813  0.00  0.00    +0.163 C 
BRANCH  24  25
ATOM     25  O   UNL     1     -36.403  26.416   5.452  0.00  0.00    -0.377 OA
ATOM     26  H   UNL     1     -35.966  27.267   5.289  0.00  0.00    +0.211 HD
ENDBRANCH  24  25
ENDBRANCH  23  24
ENDBRANCH  20  21
ENDBRANCH  18  20
ENDBRANCH   9  18
BRANCH   4  27
ATOM     27  C   UNL     1     -37.335  26.448   2.112  0.00  0.00    +0.167 C 
BRANCH  27  28
ATOM     28  O   UNL     1     -37.028  27.835   1.989  0.00  0.00    -0.379 OA
ATOM     29  H   UNL     1     -36.125  27.995   2.303  0.00  0.00    +0.211 HD
ENDBRANCH  27  28
ENDBRANCH   4  27
TORSDOF 7
ENDMDL
MODEL 5
REMARK VINA RESULT:      -5.9      2.020      5.492
REMARK  Name = 5959644
REMARK  7 active torsions:
REMARK  status: ('A' for Active; 'I' for Inactive)
REMARK    1  A    between atoms: C_4  and  C_27
REMARK    2  A    between atoms: C_9  and  O_18
REMARK    3  A    between atoms: O_18  and  C_20
REMARK    4  A    between atoms: C_20  and  C_21
REMARK    5  A    between atoms: C_23  and  C_24
REMARK    6  A    between atoms: C_24  and  O_25
REMARK    7  A    between atoms: C_27  and  O_28
REMARK                            x       y       z     vdW  Elec       q    Type
REMARK                         _______ _______ _______ _____ _____    ______ ____
ROOT
ATOM      1  O   UNL     1     -38.063  26.150   3.606  0.00  0.00    -0.350 OA
ATOM      2  O   UNL     1     -39.135  23.828   2.074  0.00  0.00    -0.446 OA
ATOM      3  O   UNL     1     -40.396  22.266   0.958  0.00  0.00    -0.245 OA
ATOM      4  C   UNL     1     -36.693  25.842   3.886  0.00  0.00    +0.148 C 
ATOM      5  C   UNL     1     -37.726  24.761   3.746  0.00  0.00    +0.182 C 
ATOM      6  C   UNL     1     -37.763  23.934   2.503  0.00  0.00    +0.206 C 
ATOM      7  C   UNL     1     -37.292  22.499   2.759  0.00  0.00    +0.112 C 
ATOM      8  C   UNL     1     -36.185  26.183   5.245  0.00  0.00    +0.037 C 
ATOM      9  C   UNL     1     -35.780  22.236   2.586  0.00  0.00    +0.181 C 
ATOM     10  C   UNL     1     -34.931  25.369   5.578  0.00  0.00    +0.028 C 
ATOM     11  C   UNL     1     -38.193  21.766   1.813  0.00  0.00    +0.060 C 
ATOM     12  C   UNL     1     -34.832  22.979   3.554  0.00  0.00    +0.066 C 
ATOM     13  C   UNL     1     -39.378  22.601   1.535  0.00  0.00    +0.337 C 
ATOM     14  C   UNL     1     -35.206  23.916   5.876  0.00  0.00    -0.034 C 
ATOM     15  C   UNL     1     -35.133  22.866   5.033  0.00  0.00    -0.045 C 
ATOM     16  C   UNL     1     -38.048  20.570   1.236  0.00  0.00    +0.002 C 
ATOM     17  C   UNL     1     -35.298  21.466   5.567  0.00  0.00    +0.026 C 
ENDROOT
BRANCH   9  18
ATOM     18  O   UNL     1     -35.397  22.591   1.252  0.00  0.00    -0.449 OA
BRANCH  18  20
ATOM     19  O   UNL     1     -34.594  20.529   0.613  0.00  0.00    -0.245 OA
ATOM     20  C   UNL     1     -34.513  21.748   0.651  0.00  0.00    +0.337 C 
BRANCH  20  21
ATOM     21  C   UNL     1     -33.407  22.547   0.040  0.00  0.00    +0.052 C 
ATOM     22  C   UNL     1     -32.258  21.810  -0.582  0.00  0.00    +0.038 C 
ATOM     23  C   UNL     1     -33.529  23.885   0.133  0.00  0.00    +0.007 C 
BRANCH  23  24
ATOM     24  C   UNL     1     -32.583  24.916  -0.396  0.00  0.00    +0.163 C 
BRANCH  24  25
ATOM     25  O   UNL     1     -31.560  25.128   0.571  0.00  0.00    -0.377 OA
ATOM     26  H   UNL     1     -31.568  24.403   1.216  0.00  0.00    +0.211 HD
ENDBRANCH  24  25
ENDBRANCH  23  24
ENDBRANCH  20  21
ENDBRANCH  18  20
ENDBRANCH   9  18
BRANCH   4  27
ATOM     27  C   UNL     1     -35.838  26.288   2.743  0.00  0.00    +0.167 C 
BRANCH  27  28
ATOM     28  O   UNL     1     -35.926  27.704   2.600  0.00  0.00    -0.379 OA
ATOM     29  H   UNL     1     -35.395  28.132   3.289  0.00  0.00    +0.211 HD
ENDBRANCH  27  28
ENDBRANCH   4  27
TORSDOF 7
ENDMDL
MODEL 6
REMARK VINA RESULT:      -5.9      1.547      2.240
REMARK  Name = 5959644
REMARK  7 active torsions:
REMARK  status: ('A' for Active; 'I' for Inactive)
REMARK    1  A    between atoms: C_4  and  C_27
REMARK    2  A    between atoms: C_9  and  O_18
REMARK    3  A    between atoms: O_18  and  C_20
REMARK    4  A    between atoms: C_20  and  C_21
REMARK    5  A    between atoms: C_23  and  C_24
REMARK    6  A    between atoms: C_24  and  O_25
REMARK    7  A    between atoms: C_27  and  O_28
REMARK                            x       y       z     vdW  Elec       q    Type
REMARK                         _______ _______ _______ _____ _____    ______ ____
ROOT
ATOM      1  O   UNL     1     -35.780  19.329  -0.059  0.00  0.00    -0.350 OA
ATOM      2  O   UNL     1     -38.457  20.471   0.592  0.00  0.00    -0.446 OA
ATOM      3  O   UNL     1     -40.686  20.969   0.828  0.00  0.00    -0.245 OA
ATOM      4  C   UNL     1     -34.820  20.292   0.386  0.00  0.00    +0.148 C 
ATOM      5  C   UNL     1     -36.187  20.707  -0.076  0.00  0.00    +0.182 C 
ATOM      6  C   UNL     1     -37.212  21.114   0.931  0.00  0.00    +0.206 C 
ATOM      7  C   UNL     1     -37.492  22.619   0.882  0.00  0.00    +0.112 C 
ATOM      8  C   UNL     1     -33.650  20.545  -0.503  0.00  0.00    +0.037 C 
ATOM      9  C   UNL     1     -36.614  23.507   1.791  0.00  0.00    +0.181 C 
ATOM     10  C   UNL     1     -33.009  21.901  -0.187  0.00  0.00    +0.028 C 
ATOM     11  C   UNL     1     -38.957  22.614   1.196  0.00  0.00    +0.060 C 
ATOM     12  C   UNL     1     -35.100  23.532   1.482  0.00  0.00    +0.066 C 
ATOM     13  C   UNL     1     -39.512  21.286   0.870  0.00  0.00    +0.337 C 
ATOM     14  C   UNL     1     -33.818  23.084  -0.655  0.00  0.00    -0.034 C 
ATOM     15  C   UNL     1     -34.694  23.825   0.055  0.00  0.00    -0.045 C 
ATOM     16  C   UNL     1     -39.733  23.574   1.707  0.00  0.00    +0.002 C 
ATOM     17  C   UNL     1     -35.288  25.069  -0.558  0.00  0.00    +0.026 C 
ENDROOT
BRANCH   9  18
ATOM     18  O   UNL     1     -36.769  23.077   3.148  0.00  0.00    -0.449 OA
BRANCH  18  20
ATOM     19  O   UNL     1     -38.025  24.728   4.149  0.00  0.00    -0.245 OA
ATOM     20  C   UNL     1     -37.002  24.066   4.055  0.00  0.00    +0.337 C 
BRANCH  20  21
ATOM     21  C   UNL     1     -35.799  24.229   4.927  0.00  0.00    +0.052 C 
ATOM     22  C   UNL     1     -35.212  23.005   5.565  0.00  0.00    +0.038 C 
ATOM     23  C   UNL     1     -35.360  25.492   5.091  0.00  0.00    +0.007 C 
BRANCH  23  24
ATOM     24  C   UNL     1     -34.181  25.940   5.896  0.00  0.00    +0.163 C 
BRANCH  24  25
ATOM     25  O   UNL     1     -33.160  26.369   5.002  0.00  0.00    -0.377 OA
ATOM     26  H   UNL     1     -32.931  25.643   4.399  0.00  0.00    +0.211 HD
ENDBRANCH  24  25
ENDBRANCH  23  24
ENDBRANCH  20  21
ENDBRANCH  18  20
ENDBRANCH   9  18
BRANCH   4  27
ATOM     27  C   UNL     1     -34.498  20.047   1.826  0.00  0.00    +0.167 C 
BRANCH  27  28
ATOM     28  O   UNL     1     -33.685  18.882   1.946  0.00  0.00    -0.379 OA
ATOM     29  H   UNL     1     -34.207  18.161   2.330  0.00  0.00    +0.211 HD
ENDBRANCH  27  28
ENDBRANCH   4  27
TORSDOF 7
ENDMDL
MODEL 7
REMARK VINA RESULT:      -5.8      2.146      4.929
REMARK  Name = 5959644
REMARK  7 active torsions:
REMARK  status: ('A' for Active; 'I' for Inactive)
REMARK    1  A    between atoms: C_4  and  C_27
REMARK    2  A    between atoms: C_9  and  O_18
REMARK    3  A    between atoms: O_18  and  C_20
REMARK    4  A    between atoms: C_20  and  C_21
REMARK    5  A    between atoms: C_23  and  C_24
REMARK    6  A    between atoms: C_24  and  O_25
REMARK    7  A    between atoms: C_27  and  O_28
REMARK                            x       y       z     vdW  Elec       q    Type
REMARK                         _______ _______ _______ _____ _____    ______ ____
ROOT
ATOM      1  O   UNL     1     -39.925  23.766   3.271  0.00  0.00    -0.350 OA
ATOM      2  O   UNL     1     -37.348  24.700   4.445  0.00  0.00    -0.446 OA
ATOM      3  O   UNL     1     -35.655  25.609   5.702  0.00  0.00    -0.245 OA
ATOM      4  C   UNL     1     -39.605  23.247   1.976  0.00  0.00    +0.148 C 
ATOM      5  C   UNL     1     -38.802  24.354   2.596  0.00  0.00    +0.182 C 
ATOM      6  C   UNL     1     -37.451  24.056   3.160  0.00  0.00    +0.206 C 
ATOM      7  C   UNL     1     -36.332  24.654   2.302  0.00  0.00    +0.112 C 
ATOM      8  C   UNL     1     -40.544  23.571   0.864  0.00  0.00    +0.037 C 
ATOM      9  C   UNL     1     -35.780  23.752   1.175  0.00  0.00    +0.181 C 
ATOM     10  C   UNL     1     -39.854  23.414  -0.494  0.00  0.00    +0.028 C 
ATOM     11  C   UNL     1     -35.356  25.019   3.379  0.00  0.00    +0.060 C 
ATOM     12  C   UNL     1     -36.768  23.367   0.051  0.00  0.00    +0.066 C 
ATOM     13  C   UNL     1     -36.083  25.155   4.657  0.00  0.00    +0.337 C 
ATOM     14  C   UNL     1     -38.861  24.506  -0.806  0.00  0.00    -0.034 C 
ATOM     15  C   UNL     1     -37.525  24.494  -0.617  0.00  0.00    -0.045 C 
ATOM     16  C   UNL     1     -34.034  25.196   3.321  0.00  0.00    +0.002 C 
ATOM     17  C   UNL     1     -36.687  25.633  -1.140  0.00  0.00    +0.026 C 
ENDROOT
BRANCH   9  18
ATOM     18  O   UNL     1     -35.289  22.537   1.751  0.00  0.00    -0.449 OA
BRANCH  18  20
ATOM     19  O   UNL     1     -33.498  22.405   0.310  0.00  0.00    -0.245 OA
ATOM     20  C   UNL     1     -34.342  21.883   1.024  0.00  0.00    +0.337 C 
BRANCH  20  21
ATOM     21  C   UNL     1     -34.493  20.410   1.227  0.00  0.00    +0.052 C 
ATOM     22  C   UNL     1     -35.828  19.887   1.671  0.00  0.00    +0.038 C 
ATOM     23  C   UNL     1     -33.386  19.672   1.019  0.00  0.00    +0.007 C 
BRANCH  23  24
ATOM     24  C   UNL     1     -33.256  18.186   1.140  0.00  0.00    +0.163 C 
BRANCH  24  25
ATOM     25  O   UNL     1     -31.965  17.887   1.658  0.00  0.00    -0.377 OA
ATOM     26  H   UNL     1     -31.917  18.161   2.588  0.00  0.00    +0.211 HD
ENDBRANCH  24  25
ENDBRANCH  23  24
ENDBRANCH  20  21
ENDBRANCH  18  20
ENDBRANCH   9  18
BRANCH   4  27
ATOM     27  C   UNL     1     -39.218  21.808   2.098  0.00  0.00    +0.167 C 
BRANCH  27  28
ATOM     28  O   UNL     1     -40.389  20.998   2.180  0.00  0.00    -0.379 OA
ATOM     29  H   UNL     1     -40.724  20.823   1.287  0.00  0.00    +0.211 HD
ENDBRANCH  27  28
ENDBRANCH   4  27
TORSDOF 7
ENDMDL
MODEL 8
REMARK VINA RESULT:      -5.8      2.405      5.060
REMARK  Name = 5959644
REMARK  7 active torsions:
REMARK  status: ('A' for Active; 'I' for Inactive)
REMARK    1  A    between atoms: C_4  and  C_27
REMARK    2  A    between atoms: C_9  and  O_18
REMARK    3  A    between atoms: O_18  and  C_20
REMARK    4  A    between atoms: C_20  and  C_21
REMARK    5  A    between atoms: C_23  and  C_24
REMARK    6  A    between atoms: C_24  and  O_25
REMARK    7  A    between atoms: C_27  and  O_28
REMARK                            x       y       z     vdW  Elec       q    Type
REMARK                         _______ _______ _______ _____ _____    ______ ____
ROOT
ATOM      1  O   UNL     1     -37.813  21.333   1.915  0.00  0.00    -0.350 OA
ATOM      2  O   UNL     1     -36.330  22.691   4.117  0.00  0.00    -0.446 OA
ATOM      3  O   UNL     1     -35.139  23.278   5.991  0.00  0.00    -0.245 OA
ATOM      4  C   UNL     1     -38.398  22.377   1.129  0.00  0.00    +0.148 C 
ATOM      5  C   UNL     1     -38.156  22.548   2.601  0.00  0.00    +0.182 C 
ATOM      6  C   UNL     1     -37.019  23.398   3.067  0.00  0.00    +0.206 C 
ATOM      7  C   UNL     1     -37.507  24.707   3.694  0.00  0.00    +0.112 C 
ATOM      8  C   UNL     1     -39.792  22.163   0.646  0.00  0.00    +0.037 C 
ATOM      9  C   UNL     1     -37.675  25.904   2.730  0.00  0.00    +0.181 C 
ATOM     10  C   UNL     1     -40.454  23.497   0.286  0.00  0.00    +0.028 C 
ATOM     11  C   UNL     1     -36.473  24.875   4.764  0.00  0.00    +0.060 C 
ATOM     12  C   UNL     1     -38.739  25.755   1.620  0.00  0.00    +0.066 C 
ATOM     13  C   UNL     1     -35.877  23.558   5.064  0.00  0.00    +0.337 C 
ATOM     14  C   UNL     1     -40.831  24.335   1.482  0.00  0.00    -0.034 C 
ATOM     15  C   UNL     1     -40.128  25.337   2.050  0.00  0.00    -0.045 C 
ATOM     16  C   UNL     1     -36.059  25.974   5.400  0.00  0.00    +0.002 C 
ATOM     17  C   UNL     1     -40.753  26.157   3.150  0.00  0.00    +0.026 C 
ENDROOT
BRANCH   9  18
ATOM     18  O   UNL     1     -36.419  26.164   2.092  0.00  0.00    -0.449 OA
BRANCH  18  20
ATOM     19  O   UNL     1     -36.793  28.377   1.572  0.00  0.00    -0.245 OA
ATOM     20  C   UNL     1     -36.076  27.477   1.986  0.00  0.00    +0.337 C 
BRANCH  20  21
ATOM     21  C   UNL     1     -34.668  27.658   2.455  0.00  0.00    +0.052 C 
ATOM     22  C   UNL     1     -33.768  26.458   2.482  0.00  0.00    +0.038 C 
ATOM     23  C   UNL     1     -34.335  28.903   2.847  0.00  0.00    +0.007 C 
BRANCH  23  24
ATOM     24  C   UNL     1     -33.003  29.366   3.348  0.00  0.00    +0.163 C 
BRANCH  24  25
ATOM     25  O   UNL     1     -32.954  29.161   4.756  0.00  0.00    -0.377 OA
ATOM     26  H   UNL     1     -32.181  29.618   5.123  0.00  0.00    +0.211 HD
ENDBRANCH  24  25
ENDBRANCH  23  24
ENDBRANCH  20  21
ENDBRANCH  18  20
ENDBRANCH   9  18
BRANCH   4  27
ATOM     27  C   UNL     1     -37.416  22.831   0.096  0.00  0.00    +0.167 C 
BRANCH  27  28
ATOM     28  O   UNL     1     -37.331  21.862  -0.947  0.00  0.00    -0.379 OA
ATOM     29  H   UNL     1     -36.610  21.243  -0.755  0.00  0.00    +0.211 HD
ENDBRANCH  27  28
ENDBRANCH   4  27
TORSDOF 7
ENDMDL
MODEL 9
REMARK VINA RESULT:      -5.6      2.087      3.953
REMARK  Name = 5959644
REMARK  7 active torsions:
REMARK  status: ('A' for Active; 'I' for Inactive)
REMARK    1  A    between atoms: C_4  and  C_27
REMARK    2  A    between atoms: C_9  and  O_18
REMARK    3  A    between atoms: O_18  and  C_20
REMARK    4  A    between atoms: C_20  and  C_21
REMARK    5  A    between atoms: C_23  and  C_24
REMARK    6  A    between atoms: C_24  and  O_25
REMARK    7  A    between atoms: C_27  and  O_28
REMARK                            x       y       z     vdW  Elec       q    Type
REMARK                         _______ _______ _______ _____ _____    ______ ____
ROOT
ATOM      1  O   UNL     1     -38.129  21.685  -1.497  0.00  0.00    -0.350 OA
ATOM      2  O   UNL     1     -36.515  24.027  -0.602  0.00  0.00    -0.446 OA
ATOM      3  O   UNL     1     -35.397  26.018  -0.353  0.00  0.00    -0.245 OA
ATOM      4  C   UNL     1     -37.907  20.657  -0.526  0.00  0.00    +0.148 C 
ATOM      5  C   UNL     1     -36.856  21.686  -0.830  0.00  0.00    +0.182 C 
ATOM      6  C   UNL     1     -36.609  22.795   0.139  0.00  0.00    +0.206 C 
ATOM      7  C   UNL     1     -35.265  22.635   0.857  0.00  0.00    +0.112 C 
ATOM      8  C   UNL     1     -37.728  19.268  -1.036  0.00  0.00    +0.037 C 
ATOM      9  C   UNL     1     -35.287  21.828   2.175  0.00  0.00    +0.181 C 
ATOM     10  C   UNL     1     -37.012  18.395   0.000  0.00  0.00    +0.028 C 
ATOM     11  C   UNL     1     -34.873  24.075   0.982  0.00  0.00    +0.060 C 
ATOM     12  C   UNL     1     -35.684  20.339   2.068  0.00  0.00    +0.066 C 
ATOM     13  C   UNL     1     -35.594  24.858  -0.041  0.00  0.00    +0.337 C 
ATOM     14  C   UNL     1     -35.542  18.699   0.145  0.00  0.00    -0.034 C 
ATOM     15  C   UNL     1     -34.944  19.500   1.050  0.00  0.00    -0.045 C 
ATOM     16  C   UNL     1     -34.044  24.672   1.842  0.00  0.00    +0.002 C 
ATOM     17  C   UNL     1     -33.438  19.549   1.125  0.00  0.00    +0.026 C 
ENDROOT
BRANCH   9  18
ATOM     18  O   UNL     1     -36.198  22.453   3.085  0.00  0.00    -0.449 OA
BRANCH  18  20
ATOM     19  O   UNL     1     -35.365  21.695   5.094  0.00  0.00    -0.245 OA
ATOM     20  C   UNL     1     -35.747  22.597   4.362  0.00  0.00    +0.337 C 
BRANCH  20  21
ATOM     21  C   UNL     1     -35.793  24.041   4.742  0.00  0.00    +0.052 C 
ATOM     22  C   UNL     1     -36.947  24.868   4.257  0.00  0.00    +0.038 C 
ATOM     23  C   UNL     1     -34.756  24.488   5.477  0.00  0.00    +0.007 C 
BRANCH  23  24
ATOM     24  C   UNL     1     -34.552  25.875   6.000  0.00  0.00    +0.163 C 
BRANCH  24  25
ATOM     25  O   UNL     1     -33.263  26.325   5.597  0.00  0.00    -0.377 OA
ATOM     26  H   UNL     1     -33.356  27.092   5.011  0.00  0.00    +0.211 HD
ENDBRANCH  24  25
ENDBRANCH  23  24
ENDBRANCH  20  21
ENDBRANCH  18  20
ENDBRANCH   9  18
BRANCH   4  27
ATOM     27  C   UNL     1     -38.883  20.814   0.597  0.00  0.00    +0.167 C 
BRANCH  27  28
ATOM     28  O   UNL     1     -40.210  20.625   0.112  0.00  0.00    -0.379 OA
ATOM     29  H   UNL     1     -40.546  21.461  -0.245  0.00  0.00    +0.211 HD
ENDBRANCH  27  28
ENDBRANCH   4  27
TORSDOF 7
ENDMDL
