MODEL 1
REMARK VINA RESULT:      -5.8      0.000      0.000
REMARK  Name = 194260
REMARK  8 active torsions:
REMARK  status: ('A' for Active; 'I' for Inactive)
REMARK    1  A    between atoms: N_2  and  CA_12
REMARK    2  A    between atoms: C_3  and  CA_6
REMARK    3  A    between atoms: CA_12  and  C_14
REMARK    4  A    between atoms: CA_12  and  CB_17
REMARK    5  A    between atoms: C_14  and  O_15
REMARK    6  A    between atoms: CB_17  and  CG_18
REMARK    7  A    between atoms: CG_18  and  CD_20
REMARK    8  A    between atoms: CD_20  and  OE1_21
REMARK                            x       y       z     vdW  Elec       q    Type
REMARK                         _______ _______ _______ _____ _____    ______ ____
ROOT
ATOM      1  O   PRO A   1     -36.593  23.259   1.857  0.00  0.00    -0.277 OA
ATOM      2  N   GLU A   2     -36.822  23.112   4.169  0.00  0.00    -0.298 N 
ATOM      3  C   PRO A   1     -37.270  23.349   2.878  0.00  0.00    +0.203 C 
ATOM      4  H   GLU A   2     -37.461  23.216   4.911  0.00  0.00    +0.150 HD
ENDROOT
BRANCH   3   6
ATOM      5  N   PRO A   1     -38.925  24.887   3.686  0.00  0.00    +0.391 N 
ATOM      6  CA  PRO A   1     -38.722  23.715   2.836  0.00  0.00    +0.017 C 
ATOM      7  CB  PRO A   1     -39.157  24.140   1.437  0.00  0.00    -0.015 C 
ATOM      8  CG  PRO A   1     -39.450  25.632   1.546  0.00  0.00    -0.025 C 
ATOM      9  CD  PRO A   1     -38.764  26.057   2.828  0.00  0.00    -0.081 C 
ATOM     10  H1  PRO A   1     -38.233  24.903   4.435  0.00  0.00    -0.084 HD
ATOM     11  H2  PRO A   1     -39.849  24.873   4.118  0.00  0.00    -0.084 HD
ENDBRANCH   3   6
BRANCH   2  12
ATOM     12  CA  GLU A   2     -35.470  22.723   4.479  0.00  0.00    +0.172 C 
BRANCH  12  14
ATOM     13  OXT GLU A   2     -36.000  22.121   6.779  0.00  0.00    -0.248 OA
ATOM     14  C   GLU A   2     -35.520  21.819   5.693  0.00  0.00    +0.332 C 
BRANCH  14  15
ATOM     15  O   GLU A   2     -34.999  20.591   5.434  0.00  0.00    -0.479 OA
ATOM     16  H   GLU A   2     -35.226  19.861   5.976  0.00  0.00    +0.295 HD
ENDBRANCH  14  15
ENDBRANCH  12  14
BRANCH  12  17
ATOM     17  CB  GLU A   2     -34.530  23.923   4.641  0.00  0.00    +0.043 C 
BRANCH  17  18
ATOM     18  CG  GLU A   2     -34.954  24.969   5.678  0.00  0.00    +0.112 C 
BRANCH  18  20
ATOM     19  OE2 GLU A   2     -34.761  27.022   4.380  0.00  0.00    -0.250 OA
ATOM     20  CD  GLU A   2     -35.434  26.271   5.073  0.00  0.00    +0.314 C 
BRANCH  20  21
ATOM     21  OE1 GLU A   2     -36.717  26.543   5.424  0.00  0.00    -0.480 OA
ATOM     22  HE1 GLU A   2     -37.262  27.051   4.855  0.00  0.00    +0.295 HD
ENDBRANCH  20  21
ENDBRANCH  18  20
ENDBRANCH  17  18
ENDBRANCH  12  17
ENDBRANCH   2  12
TORSDOF 8
ENDMDL
MODEL 2
REMARK VINA RESULT:      -5.5      2.369      5.158
REMARK  Name = 194260
REMARK  8 active torsions:
REMARK  status: ('A' for Active; 'I' for Inactive)
REMARK    1  A    between atoms: N_2  and  CA_12
REMARK    2  A    between atoms: C_3  and  CA_6
REMARK    3  A    between atoms: CA_12  and  C_14
REMARK    4  A    between atoms: CA_12  and  CB_17
REMARK    5  A    between atoms: C_14  and  O_15
REMARK    6  A    between atoms: CB_17  and  CG_18
REMARK    7  A    between atoms: CG_18  and  CD_20
REMARK    8  A    between atoms: CD_20  and  OE1_21
REMARK                            x       y       z     vdW  Elec       q    Type
REMARK                         _______ _______ _______ _____ _____    ______ ____
ROOT
ATOM      1  O   PRO A   1     -36.508  24.623   2.342  0.00  0.00    -0.277 OA
ATOM      2  N   GLU A   2     -37.823  22.896   3.184  0.00  0.00    -0.298 N 
ATOM      3  C   PRO A   1     -36.992  24.002   3.285  0.00  0.00    +0.203 C 
ATOM      4  H   GLU A   2     -38.150  22.481   4.014  0.00  0.00    +0.150 HD
ENDROOT
BRANCH   3   6
ATOM      5  N   PRO A   1     -35.984  23.339   5.359  0.00  0.00    +0.391 N 
ATOM      6  CA  PRO A   1     -36.746  24.403   4.707  0.00  0.00    +0.017 C 
ATOM      7  CB  PRO A   1     -35.872  25.650   4.799  0.00  0.00    -0.015 C 
ATOM      8  CG  PRO A   1     -34.550  25.169   5.386  0.00  0.00    -0.025 C 
ATOM      9  CD  PRO A   1     -34.573  23.668   5.185  0.00  0.00    -0.081 C 
ATOM     10  H1  PRO A   1     -36.193  22.440   4.924  0.00  0.00    -0.084 HD
ATOM     11  H2  PRO A   1     -36.226  23.267   6.348  0.00  0.00    -0.084 HD
ENDBRANCH   3   6
BRANCH   2  12
ATOM     12  CA  GLU A   2     -38.231  22.325   1.926  0.00  0.00    +0.172 C 
BRANCH  12  14
ATOM     13  OXT GLU A   2     -40.500  23.174   1.674  0.00  0.00    -0.248 OA
ATOM     14  C   GLU A   2     -39.744  22.245   1.928  0.00  0.00    +0.332 C 
BRANCH  14  15
ATOM     15  O   GLU A   2     -40.185  20.990   2.208  0.00  0.00    -0.479 OA
ATOM     16  H   GLU A   2     -39.632  20.391   2.669  0.00  0.00    +0.295 HD
ENDBRANCH  14  15
ENDBRANCH  12  14
BRANCH  12  17
ATOM     17  CB  GLU A   2     -37.542  20.987   1.631  0.00  0.00    +0.043 C 
BRANCH  17  18
ATOM     18  CG  GLU A   2     -36.042  21.063   1.321  0.00  0.00    +0.112 C 
BRANCH  18  20
ATOM     19  OE2 GLU A   2     -34.209  19.681   2.136  0.00  0.00    -0.250 OA
ATOM     20  CD  GLU A   2     -35.168  20.404   2.367  0.00  0.00    +0.314 C 
BRANCH  20  21
ATOM     21  OE1 GLU A   2     -35.601  20.677   3.625  0.00  0.00    -0.480 OA
ATOM     22  HE1 GLU A   2     -36.115  21.443   3.788  0.00  0.00    +0.295 HD
ENDBRANCH  20  21
ENDBRANCH  18  20
ENDBRANCH  17  18
ENDBRANCH  12  17
ENDBRANCH   2  12
TORSDOF 8
ENDMDL
MODEL 3
REMARK VINA RESULT:      -5.4      1.423      2.036
REMARK  Name = 194260
REMARK  8 active torsions:
REMARK  status: ('A' for Active; 'I' for Inactive)
REMARK    1  A    between atoms: N_2  and  CA_12
REMARK    2  A    between atoms: C_3  and  CA_6
REMARK    3  A    between atoms: CA_12  and  C_14
REMARK    4  A    between atoms: CA_12  and  CB_17
REMARK    5  A    between atoms: C_14  and  O_15
REMARK    6  A    between atoms: CB_17  and  CG_18
REMARK    7  A    between atoms: CG_18  and  CD_20
REMARK    8  A    between atoms: CD_20  and  OE1_21
REMARK                            x       y       z     vdW  Elec       q    Type
REMARK                         _______ _______ _______ _____ _____    ______ ____
ROOT
ATOM      1  O   PRO A   1     -36.980  24.606   2.335  0.00  0.00    -0.277 OA
ATOM      2  N   GLU A   2     -37.152  22.706   3.670  0.00  0.00    -0.298 N 
ATOM      3  C   PRO A   1     -37.620  23.651   2.769  0.00  0.00    +0.203 C 
ATOM      4  H   GLU A   2     -37.760  21.983   3.945  0.00  0.00    +0.150 HD
ENDROOT
BRANCH   3   6
ATOM      5  N   PRO A   1     -39.219  23.962   1.007  0.00  0.00    +0.391 N 
ATOM      6  CA  PRO A   1     -39.027  23.378   2.334  0.00  0.00    +0.017 C 
ATOM      7  CB  PRO A   1     -39.287  21.884   2.168  0.00  0.00    -0.015 C 
ATOM      8  CG  PRO A   1     -39.471  21.675   0.670  0.00  0.00    -0.025 C 
ATOM      9  CD  PRO A   1     -38.882  22.921   0.041  0.00  0.00    -0.081 C 
ATOM     10  H1  PRO A   1     -38.605  24.767   0.886  0.00  0.00    -0.084 HD
ATOM     11  H2  PRO A   1     -40.179  24.283   0.882  0.00  0.00    -0.084 HD
ENDBRANCH   3   6
BRANCH   2  12
ATOM     12  CA  GLU A   2     -35.822  22.730   4.222  0.00  0.00    +0.172 C 
BRANCH  12  14
ATOM     13  OXT GLU A   2     -35.143  20.502   3.512  0.00  0.00    -0.248 OA
ATOM     14  C   GLU A   2     -35.379  21.295   4.415  0.00  0.00    +0.332 C 
BRANCH  14  15
ATOM     15  O   GLU A   2     -35.228  20.982   5.729  0.00  0.00    -0.479 OA
ATOM     16  H   GLU A   2     -35.114  21.662   6.363  0.00  0.00    +0.295 HD
ENDBRANCH  14  15
ENDBRANCH  12  14
BRANCH  12  17
ATOM     17  CB  GLU A   2     -35.723  23.583   5.494  0.00  0.00    +0.043 C 
BRANCH  17  18
ATOM     18  CG  GLU A   2     -34.765  24.778   5.424  0.00  0.00    +0.112 C 
BRANCH  18  20
ATOM     19  OE2 GLU A   2     -34.857  27.068   4.599  0.00  0.00    -0.250 OA
ATOM     20  CD  GLU A   2     -35.433  26.074   5.017  0.00  0.00    +0.314 C 
BRANCH  20  21
ATOM     21  OE1 GLU A   2     -36.777  26.026   5.211  0.00  0.00    -0.480 OA
ATOM     22  HE1 GLU A   2     -37.136  26.211   6.056  0.00  0.00    +0.295 HD
ENDBRANCH  20  21
ENDBRANCH  18  20
ENDBRANCH  17  18
ENDBRANCH  12  17
ENDBRANCH   2  12
TORSDOF 8
ENDMDL
MODEL 4
REMARK VINA RESULT:      -5.3      1.931      2.265
REMARK  Name = 194260
REMARK  8 active torsions:
REMARK  status: ('A' for Active; 'I' for Inactive)
REMARK    1  A    between atoms: N_2  and  CA_12
REMARK    2  A    between atoms: C_3  and  CA_6
REMARK    3  A    between atoms: CA_12  and  C_14
REMARK    4  A    between atoms: CA_12  and  CB_17
REMARK    5  A    between atoms: C_14  and  O_15
REMARK    6  A    between atoms: CB_17  and  CG_18
REMARK    7  A    between atoms: CG_18  and  CD_20
REMARK    8  A    between atoms: CD_20  and  OE1_21
REMARK                            x       y       z     vdW  Elec       q    Type
REMARK                         _______ _______ _______ _____ _____    ______ ____
ROOT
ATOM      1  O   PRO A   1     -35.488  22.328   1.449  0.00  0.00    -0.277 OA
ATOM      2  N   GLU A   2     -36.462  21.780   3.492  0.00  0.00    -0.298 N 
ATOM      3  C   PRO A   1     -36.343  21.744   2.111  0.00  0.00    +0.203 C 
ATOM      4  H   GLU A   2     -37.191  21.269   3.911  0.00  0.00    +0.150 HD
ENDROOT
BRANCH   3   6
ATOM      5  N   PRO A   1     -38.620  20.998   2.234  0.00  0.00    +0.391 N 
ATOM      6  CA  PRO A   1     -37.378  20.871   1.472  0.00  0.00    +0.017 C 
ATOM      7  CB  PRO A   1     -37.714  21.335   0.058  0.00  0.00    -0.015 C 
ATOM      8  CG  PRO A   1     -39.142  21.862   0.139  0.00  0.00    -0.025 C 
ATOM      9  CD  PRO A   1     -39.378  22.083   1.619  0.00  0.00    -0.081 C 
ATOM     10  H1  PRO A   1     -38.413  21.220   3.207  0.00  0.00    -0.084 HD
ATOM     11  H2  PRO A   1     -39.150  20.126   2.221  0.00  0.00    -0.084 HD
ENDBRANCH   3   6
BRANCH   2  12
ATOM     12  CA  GLU A   2     -35.574  22.530   4.344  0.00  0.00    +0.172 C 
BRANCH  12  14
ATOM     13  OXT GLU A   2     -35.901  22.302   6.746  0.00  0.00    -0.248 OA
ATOM     14  C   GLU A   2     -35.521  21.826   5.684  0.00  0.00    +0.332 C 
BRANCH  14  15
ATOM     15  O   GLU A   2     -35.032  20.563   5.575  0.00  0.00    -0.479 OA
ATOM     16  H   GLU A   2     -35.395  19.873   6.095  0.00  0.00    +0.295 HD
ENDBRANCH  14  15
ENDBRANCH  12  14
BRANCH  12  17
ATOM     17  CB  GLU A   2     -35.955  24.012   4.439  0.00  0.00    +0.043 C 
BRANCH  17  18
ATOM     18  CG  GLU A   2     -34.793  24.988   4.659  0.00  0.00    +0.112 C 
BRANCH  18  20
ATOM     19  OE2 GLU A   2     -34.557  27.402   4.431  0.00  0.00    -0.250 OA
ATOM     20  CD  GLU A   2     -35.223  26.435   4.773  0.00  0.00    +0.314 C 
BRANCH  20  21
ATOM     21  OE1 GLU A   2     -36.447  26.549   5.351  0.00  0.00    -0.480 OA
ATOM     22  HE1 GLU A   2     -36.922  25.780   5.599  0.00  0.00    +0.295 HD
ENDBRANCH  20  21
ENDBRANCH  18  20
ENDBRANCH  17  18
ENDBRANCH  12  17
ENDBRANCH   2  12
TORSDOF 8
ENDMDL
MODEL 5
REMARK VINA RESULT:      -5.3      3.381      5.328
REMARK  Name = 194260
REMARK  8 active torsions:
REMARK  status: ('A' for Active; 'I' for Inactive)
REMARK    1  A    between atoms: N_2  and  CA_12
REMARK    2  A    between atoms: C_3  and  CA_6
REMARK    3  A    between atoms: CA_12  and  C_14
REMARK    4  A    between atoms: CA_12  and  CB_17
REMARK    5  A    between atoms: C_14  and  O_15
REMARK    6  A    between atoms: CB_17  and  CG_18
REMARK    7  A    between atoms: CG_18  and  CD_20
REMARK    8  A    between atoms: CD_20  and  OE1_21
REMARK                            x       y       z     vdW  Elec       q    Type
REMARK                         _______ _______ _______ _____ _____    ______ ____
ROOT
ATOM      1  O   PRO A   1     -33.263  25.217   4.472  0.00  0.00    -0.277 OA
ATOM      2  N   GLU A   2     -33.615  27.315   5.419  0.00  0.00    -0.298 N 
ATOM      3  C   PRO A   1     -33.954  26.006   5.113  0.00  0.00    +0.203 C 
ATOM      4  H   GLU A   2     -34.253  27.852   5.942  0.00  0.00    +0.150 HD
ENDROOT
BRANCH   3   6
ATOM      5  N   PRO A   1     -36.303  26.493   5.109  0.00  0.00    +0.391 N 
ATOM      6  CA  PRO A   1     -35.284  25.613   5.679  0.00  0.00    +0.017 C 
ATOM      7  CB  PRO A   1     -35.681  24.200   5.262  0.00  0.00    -0.015 C 
ATOM      8  CG  PRO A   1     -36.863  24.380   4.317  0.00  0.00    -0.025 C 
ATOM      9  CD  PRO A   1     -36.796  25.835   3.903  0.00  0.00    -0.081 C 
ATOM     10  H1  PRO A   1     -35.895  27.398   4.874  0.00  0.00    -0.084 HD
ATOM     11  H2  PRO A   1     -37.060  26.658   5.773  0.00  0.00    -0.084 HD
ENDBRANCH   3   6
BRANCH   2  12
ATOM     12  CA  GLU A   2     -32.377  27.929   5.011  0.00  0.00    +0.172 C 
BRANCH  12  14
ATOM     13  OXT GLU A   2     -31.797  29.476   6.800  0.00  0.00    -0.248 OA
ATOM     14  C   GLU A   2     -31.657  28.384   6.263  0.00  0.00    +0.332 C 
BRANCH  14  15
ATOM     15  O   GLU A   2     -30.847  27.415   6.764  0.00  0.00    -0.479 OA
ATOM     16  H   GLU A   2     -30.920  26.535   6.451  0.00  0.00    +0.295 HD
ENDBRANCH  14  15
ENDBRANCH  12  14
BRANCH  12  17
ATOM     17  CB  GLU A   2     -32.580  29.041   3.975  0.00  0.00    +0.043 C 
BRANCH  17  18
ATOM     18  CG  GLU A   2     -32.965  28.579   2.565  0.00  0.00    +0.112 C 
BRANCH  18  20
ATOM     19  OE2 GLU A   2     -34.995  27.983   1.355  0.00  0.00    -0.250 OA
ATOM     20  CD  GLU A   2     -34.458  28.454   2.349  0.00  0.00    +0.314 C 
BRANCH  20  21
ATOM     21  OE1 GLU A   2     -35.160  28.974   3.390  0.00  0.00    -0.480 OA
ATOM     22  HE1 GLU A   2     -35.087  28.590   4.242  0.00  0.00    +0.295 HD
ENDBRANCH  20  21
ENDBRANCH  18  20
ENDBRANCH  17  18
ENDBRANCH  12  17
ENDBRANCH   2  12
TORSDOF 8
ENDMDL
MODEL 6
REMARK VINA RESULT:      -5.2      2.884      4.569
REMARK  Name = 194260
REMARK  8 active torsions:
REMARK  status: ('A' for Active; 'I' for Inactive)
REMARK    1  A    between atoms: N_2  and  CA_12
REMARK    2  A    between atoms: C_3  and  CA_6
REMARK    3  A    between atoms: CA_12  and  C_14
REMARK    4  A    between atoms: CA_12  and  CB_17
REMARK    5  A    between atoms: C_14  and  O_15
REMARK    6  A    between atoms: CB_17  and  CG_18
REMARK    7  A    between atoms: CG_18  and  CD_20
REMARK    8  A    between atoms: CD_20  and  OE1_21
REMARK                            x       y       z     vdW  Elec       q    Type
REMARK                         _______ _______ _______ _____ _____    ______ ____
ROOT
ATOM      1  O   PRO A   1     -35.171  20.565   3.838  0.00  0.00    -0.277 OA
ATOM      2  N   GLU A   2     -36.174  22.162   2.472  0.00  0.00    -0.298 N 
ATOM      3  C   PRO A   1     -35.516  20.969   2.730  0.00  0.00    +0.203 C 
ATOM      4  H   GLU A   2     -36.400  22.377   1.539  0.00  0.00    +0.150 HD
ENDROOT
BRANCH   3   6
ATOM      5  N   PRO A   1     -35.083  21.097   0.374  0.00  0.00    +0.391 N 
ATOM      6  CA  PRO A   1     -35.275  20.169   1.487  0.00  0.00    +0.017 C 
ATOM      7  CB  PRO A   1     -33.985  19.359   1.576  0.00  0.00    -0.015 C 
ATOM      8  CG  PRO A   1     -33.041  20.003   0.567  0.00  0.00    -0.025 C 
ATOM      9  CD  PRO A   1     -33.650  21.362   0.295  0.00  0.00    -0.081 C 
ATOM     10  H1  PRO A   1     -35.592  21.964   0.547  0.00  0.00    -0.084 HD
ATOM     11  H2  PRO A   1     -35.433  20.702  -0.499  0.00  0.00    -0.084 HD
ENDBRANCH   3   6
BRANCH   2  12
ATOM     12  CA  GLU A   2     -36.543  23.101   3.500  0.00  0.00    +0.172 C 
BRANCH  12  14
ATOM     13  OXT GLU A   2     -38.325  23.677   1.945  0.00  0.00    -0.248 OA
ATOM     14  C   GLU A   2     -37.792  23.821   3.037  0.00  0.00    +0.332 C 
BRANCH  14  15
ATOM     15  O   GLU A   2     -38.296  24.635   4.002  0.00  0.00    -0.479 OA
ATOM     16  H   GLU A   2     -38.992  25.228   3.799  0.00  0.00    +0.295 HD
ENDBRANCH  14  15
ENDBRANCH  12  14
BRANCH  12  17
ATOM     17  CB  GLU A   2     -35.393  24.042   3.883  0.00  0.00    +0.043 C 
BRANCH  17  18
ATOM     18  CG  GLU A   2     -35.306  24.420   5.366  0.00  0.00    +0.112 C 
BRANCH  18  20
ATOM     19  OE2 GLU A   2     -34.221  26.524   5.946  0.00  0.00    -0.250 OA
ATOM     20  CD  GLU A   2     -35.227  25.912   5.613  0.00  0.00    +0.314 C 
BRANCH  20  21
ATOM     21  OE1 GLU A   2     -36.437  26.510   5.459  0.00  0.00    -0.480 OA
ATOM     22  HE1 GLU A   2     -37.195  26.148   5.875  0.00  0.00    +0.295 HD
ENDBRANCH  20  21
ENDBRANCH  18  20
ENDBRANCH  17  18
ENDBRANCH  12  17
ENDBRANCH   2  12
TORSDOF 8
ENDMDL
MODEL 7
REMARK VINA RESULT:      -5.2      2.340      4.983
REMARK  Name = 194260
REMARK  8 active torsions:
REMARK  status: ('A' for Active; 'I' for Inactive)
REMARK    1  A    between atoms: N_2  and  CA_12
REMARK    2  A    between atoms: C_3  and  CA_6
REMARK    3  A    between atoms: CA_12  and  C_14
REMARK    4  A    between atoms: CA_12  and  CB_17
REMARK    5  A    between atoms: C_14  and  O_15
REMARK    6  A    between atoms: CB_17  and  CG_18
REMARK    7  A    between atoms: CG_18  and  CD_20
REMARK    8  A    between atoms: CD_20  and  OE1_21
REMARK                            x       y       z     vdW  Elec       q    Type
REMARK                         _______ _______ _______ _____ _____    ______ ____
ROOT
ATOM      1  O   PRO A   1     -37.387  24.599   4.438  0.00  0.00    -0.277 OA
ATOM      2  N   GLU A   2     -37.339  22.938   2.806  0.00  0.00    -0.298 N 
ATOM      3  C   PRO A   1     -36.808  23.695   3.840  0.00  0.00    +0.203 C 
ATOM      4  H   GLU A   2     -36.776  22.238   2.404  0.00  0.00    +0.150 HD
ENDROOT
BRANCH   3   6
ATOM      5  N   PRO A   1     -35.183  23.602   5.603  0.00  0.00    +0.391 N 
ATOM      6  CA  PRO A   1     -35.414  23.278   4.196  0.00  0.00    +0.017 C 
ATOM      7  CB  PRO A   1     -35.231  21.767   4.086  0.00  0.00    -0.015 C 
ATOM      8  CG  PRO A   1     -35.049  21.283   5.520  0.00  0.00    -0.025 C 
ATOM      9  CD  PRO A   1     -35.568  22.423   6.372  0.00  0.00    -0.081 C 
ATOM     10  H1  PRO A   1     -35.754  24.402   5.878  0.00  0.00    -0.084 HD
ATOM     11  H2  PRO A   1     -34.207  23.847   5.769  0.00  0.00    -0.084 HD
ENDBRANCH   3   6
BRANCH   2  12
ATOM     12  CA  GLU A   2     -38.671  23.126   2.291  0.00  0.00    +0.172 C 
BRANCH  12  14
ATOM     13  OXT GLU A   2     -40.441  21.538   1.765  0.00  0.00    -0.248 OA
ATOM     14  C   GLU A   2     -39.275  21.754   2.071  0.00  0.00    +0.332 C 
BRANCH  14  15
ATOM     15  O   GLU A   2     -38.354  20.765   2.213  0.00  0.00    -0.479 OA
ATOM     16  H   GLU A   2     -37.642  20.697   1.608  0.00  0.00    +0.295 HD
ENDBRANCH  14  15
ENDBRANCH  12  14
BRANCH  12  17
ATOM     17  CB  GLU A   2     -38.705  24.023   1.047  0.00  0.00    +0.043 C 
BRANCH  17  18
ATOM     18  CG  GLU A   2     -38.862  25.525   1.311  0.00  0.00    +0.112 C 
BRANCH  18  20
ATOM     19  OE2 GLU A   2     -41.105  25.662   2.253  0.00  0.00    -0.250 OA
ATOM     20  CD  GLU A   2     -39.902  25.855   2.360  0.00  0.00    +0.314 C 
BRANCH  20  21
ATOM     21  OE1 GLU A   2     -39.344  26.444   3.450  0.00  0.00    -0.480 OA
ATOM     22  HE1 GLU A   2     -39.605  26.180   4.311  0.00  0.00    +0.295 HD
ENDBRANCH  20  21
ENDBRANCH  18  20
ENDBRANCH  17  18
ENDBRANCH  12  17
ENDBRANCH   2  12
TORSDOF 8
ENDMDL
MODEL 8
REMARK VINA RESULT:      -5.2      1.672      3.851
REMARK  Name = 194260
REMARK  8 active torsions:
REMARK  status: ('A' for Active; 'I' for Inactive)
REMARK    1  A    between atoms: N_2  and  CA_12
REMARK    2  A    between atoms: C_3  and  CA_6
REMARK    3  A    between atoms: CA_12  and  C_14
REMARK    4  A    between atoms: CA_12  and  CB_17
REMARK    5  A    between atoms: C_14  and  O_15
REMARK    6  A    between atoms: CB_17  and  CG_18
REMARK    7  A    between atoms: CG_18  and  CD_20
REMARK    8  A    between atoms: CD_20  and  OE1_21
REMARK                            x       y       z     vdW  Elec       q    Type
REMARK                         _______ _______ _______ _____ _____    ______ ____
ROOT
ATOM      1  O   PRO A   1     -38.089  24.741   4.107  0.00  0.00    -0.277 OA
ATOM      2  N   GLU A   2     -35.903  24.744   3.306  0.00  0.00    -0.298 N 
ATOM      3  C   PRO A   1     -37.274  24.562   3.206  0.00  0.00    +0.203 C 
ATOM      4  H   GLU A   2     -35.350  24.568   2.511  0.00  0.00    +0.150 HD
ENDROOT
BRANCH   3   6
ATOM      5  N   PRO A   1     -37.376  22.712   1.681  0.00  0.00    +0.391 N 
ATOM      6  CA  PRO A   1     -37.694  24.131   1.834  0.00  0.00    +0.017 C 
ATOM      7  CB  PRO A   1     -39.205  24.237   1.646  0.00  0.00    -0.015 C 
ATOM      8  CG  PRO A   1     -39.695  22.797   1.543  0.00  0.00    -0.025 C 
ATOM      9  CD  PRO A   1     -38.558  21.971   2.107  0.00  0.00    -0.081 C 
ATOM     10  H1  PRO A   1     -36.577  22.466   2.265  0.00  0.00    -0.084 HD
ATOM     11  H2  PRO A   1     -37.132  22.492   0.715  0.00  0.00    -0.084 HD
ENDBRANCH   3   6
BRANCH   2  12
ATOM     12  CA  GLU A   2     -35.249  25.179   4.514  0.00  0.00    +0.172 C 
BRANCH  12  14
ATOM     13  OXT GLU A   2     -34.814  27.530   4.052  0.00  0.00    -0.248 OA
ATOM     14  C   GLU A   2     -34.399  26.383   4.167  0.00  0.00    +0.332 C 
BRANCH  14  15
ATOM     15  O   GLU A   2     -33.086  26.057   4.034  0.00  0.00    -0.479 OA
ATOM     16  H   GLU A   2     -32.556  25.925   4.795  0.00  0.00    +0.295 HD
ENDBRANCH  14  15
ENDBRANCH  12  14
BRANCH  12  17
ATOM     17  CB  GLU A   2     -34.470  24.052   5.204  0.00  0.00    +0.043 C 
BRANCH  17  18
ATOM     18  CG  GLU A   2     -35.320  22.943   5.835  0.00  0.00    +0.112 C 
BRANCH  18  20
ATOM     19  OE2 GLU A   2     -35.481  21.605   3.805  0.00  0.00    -0.250 OA
ATOM     20  CD  GLU A   2     -35.363  21.667   5.021  0.00  0.00    +0.314 C 
BRANCH  20  21
ATOM     21  OE1 GLU A   2     -35.294  20.565   5.813  0.00  0.00    -0.480 OA
ATOM     22  HE1 GLU A   2     -34.591  19.955   5.707  0.00  0.00    +0.295 HD
ENDBRANCH  20  21
ENDBRANCH  18  20
ENDBRANCH  17  18
ENDBRANCH  12  17
ENDBRANCH   2  12
TORSDOF 8
ENDMDL
MODEL 9
REMARK VINA RESULT:      -5.2      2.063      2.580
REMARK  Name = 194260
REMARK  8 active torsions:
REMARK  status: ('A' for Active; 'I' for Inactive)
REMARK    1  A    between atoms: N_2  and  CA_12
REMARK    2  A    between atoms: C_3  and  CA_6
REMARK    3  A    between atoms: CA_12  and  C_14
REMARK    4  A    between atoms: CA_12  and  CB_17
REMARK    5  A    between atoms: C_14  and  O_15
REMARK    6  A    between atoms: CB_17  and  CG_18
REMARK    7  A    between atoms: CG_18  and  CD_20
REMARK    8  A    between atoms: CD_20  and  OE1_21
REMARK                            x       y       z     vdW  Elec       q    Type
REMARK                         _______ _______ _______ _____ _____    ______ ____
ROOT
ATOM      1  O   PRO A   1     -36.785  22.470   1.273  0.00  0.00    -0.277 OA
ATOM      2  N   GLU A   2     -37.336  22.486   3.535  0.00  0.00    -0.298 N 
ATOM      3  C   PRO A   1     -37.560  22.220   2.193  0.00  0.00    +0.203 C 
ATOM      4  H   GLU A   2     -38.034  22.239   4.183  0.00  0.00    +0.150 HD
ENDROOT
BRANCH   3   6
ATOM      5  N   PRO A   1     -39.941  22.522   2.216  0.00  0.00    +0.391 N 
ATOM      6  CA  PRO A   1     -38.879  21.551   1.957  0.00  0.00    +0.017 C 
ATOM      7  CB  PRO A   1     -39.049  21.135   0.499  0.00  0.00    -0.015 C 
ATOM      8  CG  PRO A   1     -40.144  22.042  -0.050  0.00  0.00    -0.025 C 
ATOM      9  CD  PRO A   1     -40.223  23.181   0.945  0.00  0.00    -0.081 C 
ATOM     10  H1  PRO A   1     -39.630  23.206   2.906  0.00  0.00    -0.084 HD
ATOM     11  H2  PRO A   1     -40.774  22.066   2.587  0.00  0.00    -0.084 HD
ENDBRANCH   3   6
BRANCH   2  12
ATOM     12  CA  GLU A   2     -36.132  23.105   4.029  0.00  0.00    +0.172 C 
BRANCH  12  14
ATOM     13  OXT GLU A   2     -35.311  22.542   6.252  0.00  0.00    -0.248 OA
ATOM     14  C   GLU A   2     -35.558  22.203   5.101  0.00  0.00    +0.332 C 
BRANCH  14  15
ATOM     15  O   GLU A   2     -35.379  20.932   4.653  0.00  0.00    -0.479 OA
ATOM     16  H   GLU A   2     -35.357  20.219   5.261  0.00  0.00    +0.295 HD
ENDBRANCH  14  15
ENDBRANCH  12  14
BRANCH  12  17
ATOM     17  CB  GLU A   2     -36.356  24.550   4.492  0.00  0.00    +0.043 C 
BRANCH  17  18
ATOM     18  CG  GLU A   2     -36.664  25.566   3.387  0.00  0.00    +0.112 C 
BRANCH  18  20
ATOM     19  OE2 GLU A   2     -38.628  26.587   2.366  0.00  0.00    -0.250 OA
ATOM     20  CD  GLU A   2     -38.144  25.781   3.150  0.00  0.00    +0.314 C 
BRANCH  20  21
ATOM     21  OE1 GLU A   2     -38.900  24.988   3.953  0.00  0.00    -0.480 OA
ATOM     22  HE1 GLU A   2     -38.570  24.715   4.787  0.00  0.00    +0.295 HD
ENDBRANCH  20  21
ENDBRANCH  18  20
ENDBRANCH  17  18
ENDBRANCH  12  17
ENDBRANCH   2  12
TORSDOF 8
ENDMDL
