MODEL 1
REMARK VINA RESULT:      -5.5      0.000      0.000
REMARK  Name = 53470601
REMARK  16 active torsions:
REMARK  status: ('A' for Active; 'I' for Inactive)
REMARK    1  A    between atoms: C_1  and  C_20
REMARK    2  A    between atoms: C_2  and  C_10
REMARK    3  A    between atoms: C_3  and  O_6
REMARK    4  A    between atoms: C_4  and  O_8
REMARK    5  A    between atoms: C_11  and  C_12
REMARK    6  A    between atoms: C_12  and  O_13
REMARK    7  A    between atoms: C_12  and  C_15
REMARK    8  A    between atoms: C_15  and  C_16
REMARK    9  A    between atoms: C_17  and  C_18
REMARK   10  A    between atoms: C_20  and  C_22
REMARK   11  A    between atoms: C_22  and  C_23
REMARK   12  A    between atoms: C_23  and  C_24
REMARK   13  A    between atoms: C_24  and  C_25
REMARK   14  A    between atoms: C_25  and  C_26
REMARK   15  A    between atoms: C_26  and  C_28
REMARK   16  A    between atoms: C_28  and  O_29
REMARK                            x       y       z     vdW  Elec       q    Type
REMARK                         _______ _______ _______ _____ _____    ______ ____
ROOT
ATOM      1  C   UNL     1     -38.784  24.226   2.015  0.00  0.00    +0.041 C 
ATOM      2  C   UNL     1     -38.014  25.454   1.475  0.00  0.00    +0.051 C 
ATOM      3  C   UNL     1     -39.998  24.825   2.761  0.00  0.00    +0.114 C 
ATOM      4  C   UNL     1     -39.193  26.337   1.035  0.00  0.00    +0.117 C 
ATOM      5  C   UNL     1     -40.198  26.232   2.181  0.00  0.00    +0.059 C 
ENDROOT
BRANCH   3   6
ATOM      6  O   UNL     1     -39.798  24.905   4.165  0.00  0.00    -0.384 OA
ATOM      7  H   UNL     1     -40.178  25.733   4.500  0.00  0.00    +0.210 HD
ENDBRANCH   3   6
BRANCH   4   8
ATOM      8  O   UNL     1     -38.823  27.673   0.760  0.00  0.00    -0.384 OA
ATOM      9  H   UNL     1     -38.635  28.134   1.593  0.00  0.00    +0.210 HD
ENDBRANCH   4   8
BRANCH   2  10
ATOM     10  C   UNL     1     -37.109  26.114   2.477  0.00  0.00    -0.026 C 
ATOM     11  C   UNL     1     -35.823  26.410   2.240  0.00  0.00    -0.002 C 
BRANCH  11  12
ATOM     12  C   UNL     1     -34.917  27.062   3.247  0.00  0.00    +0.136 C 
BRANCH  12  13
ATOM     13  O   UNL     1     -35.460  28.349   3.540  0.00  0.00    -0.380 OA
ATOM     14  H   UNL     1     -35.592  28.841   2.713  0.00  0.00    +0.211 HD
ENDBRANCH  12  13
BRANCH  12  15
ATOM     15  C   UNL     1     -34.823  26.259   4.551  0.00  0.00    +0.059 C 
BRANCH  15  16
ATOM     16  C   UNL     1     -33.959  25.039   4.417  0.00  0.00    -0.028 C 
ATOM     17  C   UNL     1     -34.289  23.835   4.910  0.00  0.00    -0.031 C 
BRANCH  17  18
ATOM     18  C   UNL     1     -35.562  23.560   5.653  0.00  0.00    +0.026 C 
ATOM     19  C   UNL     1     -35.578  22.148   6.218  0.00  0.00    +0.005 C 
ENDBRANCH  17  18
ENDBRANCH  15  16
ENDBRANCH  12  15
ENDBRANCH  11  12
ENDBRANCH   2  10
BRANCH   1  20
ATOM     20  C   UNL     1     -37.969  23.212   2.806  0.00  0.00    +0.067 C 
BRANCH  20  22
ATOM     21  O   UNL     1     -38.077  21.343   1.276  0.00  0.00    -0.296 OA
ATOM     22  C   UNL     1     -37.385  22.134   1.918  0.00  0.00    +0.151 C 
BRANCH  22  23
ATOM     23  C   UNL     1     -35.872  22.093   1.824  0.00  0.00    +0.065 C 
BRANCH  23  24
ATOM     24  C   UNL     1     -35.329  20.836   2.495  0.00  0.00    +0.008 C 
BRANCH  24  25
ATOM     25  C   UNL     1     -34.929  19.738   1.505  0.00  0.00    +0.012 C 
BRANCH  25  26
ATOM     26  C   UNL     1     -33.422  19.527   1.347  0.00  0.00    +0.109 C 
BRANCH  26  28
ATOM     27  O   UNL     1     -33.707  17.246   0.545  0.00  0.00    -0.250 OA
ATOM     28  C   UNL     1     -33.038  18.080   1.138  0.00  0.00    +0.314 C 
BRANCH  28  29
ATOM     29  O   UNL     1     -31.818  17.806   1.672  0.00  0.00    -0.480 OA
ATOM     30  H   UNL     1     -31.161  17.389   1.151  0.00  0.00    +0.295 HD
ENDBRANCH  28  29
ENDBRANCH  26  28
ENDBRANCH  25  26
ENDBRANCH  24  25
ENDBRANCH  23  24
ENDBRANCH  22  23
ENDBRANCH  20  22
ENDBRANCH   1  20
TORSDOF 16
ENDMDL
MODEL 2
REMARK VINA RESULT:      -5.5      2.985      6.384
REMARK  Name = 53470601
REMARK  16 active torsions:
REMARK  status: ('A' for Active; 'I' for Inactive)
REMARK    1  A    between atoms: C_1  and  C_20
REMARK    2  A    between atoms: C_2  and  C_10
REMARK    3  A    between atoms: C_3  and  O_6
REMARK    4  A    between atoms: C_4  and  O_8
REMARK    5  A    between atoms: C_11  and  C_12
REMARK    6  A    between atoms: C_12  and  O_13
REMARK    7  A    between atoms: C_12  and  C_15
REMARK    8  A    between atoms: C_15  and  C_16
REMARK    9  A    between atoms: C_17  and  C_18
REMARK   10  A    between atoms: C_20  and  C_22
REMARK   11  A    between atoms: C_22  and  C_23
REMARK   12  A    between atoms: C_23  and  C_24
REMARK   13  A    between atoms: C_24  and  C_25
REMARK   14  A    between atoms: C_25  and  C_26
REMARK   15  A    between atoms: C_26  and  C_28
REMARK   16  A    between atoms: C_28  and  O_29
REMARK                            x       y       z     vdW  Elec       q    Type
REMARK                         _______ _______ _______ _____ _____    ______ ____
ROOT
ATOM      1  C   UNL     1     -34.006  25.778   1.903  0.00  0.00    +0.041 C 
ATOM      2  C   UNL     1     -35.075  24.712   1.564  0.00  0.00    +0.051 C 
ATOM      3  C   UNL     1     -33.110  25.845   0.646  0.00  0.00    +0.114 C 
ATOM      4  C   UNL     1     -35.345  25.064   0.092  0.00  0.00    +0.117 C 
ATOM      5  C   UNL     1     -33.958  25.293  -0.507  0.00  0.00    +0.059 C 
ENDROOT
BRANCH   3   6
ATOM      6  O   UNL     1     -31.918  25.083   0.778  0.00  0.00    -0.384 OA
ATOM      7  H   UNL     1     -31.646  24.753  -0.093  0.00  0.00    +0.210 HD
ENDBRANCH   3   6
BRANCH   4   8
ATOM      8  O   UNL     1     -36.075  24.070  -0.599  0.00  0.00    -0.384 OA
ATOM      9  H   UNL     1     -37.025  24.250  -0.514  0.00  0.00    +0.210 HD
ENDBRANCH   4   8
BRANCH   2  10
ATOM     10  C   UNL     1     -34.629  23.292   1.771  0.00  0.00    -0.026 C 
ATOM     11  C   UNL     1     -35.471  22.266   1.962  0.00  0.00    -0.002 C 
BRANCH  11  12
ATOM     12  C   UNL     1     -35.022  20.847   2.179  0.00  0.00    +0.136 C 
BRANCH  12  13
ATOM     13  O   UNL     1     -36.096  20.151   2.810  0.00  0.00    -0.380 OA
ATOM     14  H   UNL     1     -36.911  20.672   2.731  0.00  0.00    +0.211 HD
ENDBRANCH  12  13
BRANCH  12  15
ATOM     15  C   UNL     1     -34.680  20.137   0.863  0.00  0.00    +0.059 C 
BRANCH  15  16
ATOM     16  C   UNL     1     -33.286  19.579   0.852  0.00  0.00    -0.028 C 
ATOM     17  C   UNL     1     -32.239  20.201   0.291  0.00  0.00    -0.031 C 
BRANCH  17  18
ATOM     18  C   UNL     1     -32.331  21.531  -0.395  0.00  0.00    +0.026 C 
ATOM     19  C   UNL     1     -32.651  21.370  -1.873  0.00  0.00    +0.005 C 
ENDBRANCH  17  18
ENDBRANCH  15  16
ENDBRANCH  12  15
ENDBRANCH  11  12
ENDBRANCH   2  10
BRANCH   1  20
ATOM     20  C   UNL     1     -33.268  25.597   3.222  0.00  0.00    +0.067 C 
BRANCH  20  22
ATOM     21  O   UNL     1     -33.679  27.823   4.072  0.00  0.00    -0.296 OA
ATOM     22  C   UNL     1     -33.704  26.607   4.263  0.00  0.00    +0.151 C 
BRANCH  22  23
ATOM     23  C   UNL     1     -34.218  26.039   5.570  0.00  0.00    +0.065 C 
BRANCH  23  24
ATOM     24  C   UNL     1     -35.709  25.732   5.471  0.00  0.00    +0.008 C 
BRANCH  24  25
ATOM     25  C   UNL     1     -36.012  24.255   5.197  0.00  0.00    +0.012 C 
BRANCH  25  26
ATOM     26  C   UNL     1     -34.872  23.290   5.524  0.00  0.00    +0.109 C 
BRANCH  26  28
ATOM     27  O   UNL     1     -34.874  20.859   5.384  0.00  0.00    -0.250 OA
ATOM     28  C   UNL     1     -35.345  21.890   5.843  0.00  0.00    +0.314 C 
BRANCH  28  29
ATOM     29  O   UNL     1     -36.362  21.901   6.745  0.00  0.00    -0.480 OA
ATOM     30  H   UNL     1     -36.219  21.586   7.616  0.00  0.00    +0.295 HD
ENDBRANCH  28  29
ENDBRANCH  26  28
ENDBRANCH  25  26
ENDBRANCH  24  25
ENDBRANCH  23  24
ENDBRANCH  22  23
ENDBRANCH  20  22
ENDBRANCH   1  20
TORSDOF 16
ENDMDL
MODEL 3
REMARK VINA RESULT:      -5.4      2.551      6.898
REMARK  Name = 53470601
REMARK  16 active torsions:
REMARK  status: ('A' for Active; 'I' for Inactive)
REMARK    1  A    between atoms: C_1  and  C_20
REMARK    2  A    between atoms: C_2  and  C_10
REMARK    3  A    between atoms: C_3  and  O_6
REMARK    4  A    between atoms: C_4  and  O_8
REMARK    5  A    between atoms: C_11  and  C_12
REMARK    6  A    between atoms: C_12  and  O_13
REMARK    7  A    between atoms: C_12  and  C_15
REMARK    8  A    between atoms: C_15  and  C_16
REMARK    9  A    between atoms: C_17  and  C_18
REMARK   10  A    between atoms: C_20  and  C_22
REMARK   11  A    between atoms: C_22  and  C_23
REMARK   12  A    between atoms: C_23  and  C_24
REMARK   13  A    between atoms: C_24  and  C_25
REMARK   14  A    between atoms: C_25  and  C_26
REMARK   15  A    between atoms: C_26  and  C_28
REMARK   16  A    between atoms: C_28  and  O_29
REMARK                            x       y       z     vdW  Elec       q    Type
REMARK                         _______ _______ _______ _____ _____    ______ ____
ROOT
ATOM      1  C   UNL     1     -35.364  22.071   2.679  0.00  0.00    +0.041 C 
ATOM      2  C   UNL     1     -35.534  22.583   1.229  0.00  0.00    +0.051 C 
ATOM      3  C   UNL     1     -35.289  20.533   2.543  0.00  0.00    +0.114 C 
ATOM      4  C   UNL     1     -34.572  21.633   0.496  0.00  0.00    +0.117 C 
ATOM      5  C   UNL     1     -34.863  20.258   1.094  0.00  0.00    +0.059 C 
ENDROOT
BRANCH   3   6
ATOM      6  O   UNL     1     -36.530  19.895   2.812  0.00  0.00    -0.384 OA
ATOM      7  H   UNL     1     -36.865  20.188   3.674  0.00  0.00    +0.210 HD
ENDBRANCH   3   6
BRANCH   4   8
ATOM      8  O   UNL     1     -34.723  21.655  -0.909  0.00  0.00    -0.384 OA
ATOM      9  H   UNL     1     -33.981  21.183  -1.321  0.00  0.00    +0.210 HD
ENDBRANCH   4   8
BRANCH   2  10
ATOM     10  C   UNL     1     -36.943  22.532   0.709  0.00  0.00    -0.026 C 
ATOM     11  C   UNL     1     -37.587  23.589   0.193  0.00  0.00    -0.002 C 
BRANCH  11  12
ATOM     12  C   UNL     1     -39.000  23.538  -0.317  0.00  0.00    +0.136 C 
BRANCH  12  13
ATOM     13  O   UNL     1     -39.411  22.171  -0.299  0.00  0.00    -0.380 OA
ATOM     14  H   UNL     1     -40.134  22.041  -0.934  0.00  0.00    +0.211 HD
ENDBRANCH  12  13
BRANCH  12  15
ATOM     15  C   UNL     1     -39.963  24.354   0.554  0.00  0.00    +0.059 C 
BRANCH  15  16
ATOM     16  C   UNL     1     -40.036  23.849   1.966  0.00  0.00    -0.028 C 
ATOM     17  C   UNL     1     -39.618  24.551   3.030  0.00  0.00    -0.031 C 
BRANCH  17  18
ATOM     18  C   UNL     1     -39.029  25.927   2.941  0.00  0.00    +0.026 C 
ATOM     19  C   UNL     1     -37.515  25.890   3.084  0.00  0.00    +0.005 C 
ENDBRANCH  17  18
ENDBRANCH  15  16
ENDBRANCH  12  15
ENDBRANCH  11  12
ENDBRANCH   2  10
BRANCH   1  20
ATOM     20  C   UNL     1     -36.369  22.588   3.699  0.00  0.00    +0.067 C 
BRANCH  20  22
ATOM     21  O   UNL     1     -36.073  22.476   6.096  0.00  0.00    -0.296 OA
ATOM     22  C   UNL     1     -35.712  22.944   5.016  0.00  0.00    +0.151 C 
BRANCH  22  23
ATOM     23  C   UNL     1     -34.539  23.901   4.940  0.00  0.00    +0.065 C 
BRANCH  23  24
ATOM     24  C   UNL     1     -34.857  25.198   5.677  0.00  0.00    +0.008 C 
BRANCH  24  25
ATOM     25  C   UNL     1     -33.843  26.316   5.412  0.00  0.00    +0.012 C 
BRANCH  25  26
ATOM     26  C   UNL     1     -33.085  26.806   6.647  0.00  0.00    +0.109 C 
BRANCH  26  28
ATOM     27  O   UNL     1     -32.406  29.006   5.852  0.00  0.00    -0.250 OA
ATOM     28  C   UNL     1     -32.115  27.926   6.348  0.00  0.00    +0.314 C 
BRANCH  28  29
ATOM     29  O   UNL     1     -30.851  27.605   6.730  0.00  0.00    -0.480 OA
ATOM     30  H   UNL     1     -30.244  27.264   6.102  0.00  0.00    +0.295 HD
ENDBRANCH  28  29
ENDBRANCH  26  28
ENDBRANCH  25  26
ENDBRANCH  24  25
ENDBRANCH  23  24
ENDBRANCH  22  23
ENDBRANCH  20  22
ENDBRANCH   1  20
TORSDOF 16
ENDMDL
MODEL 4
REMARK VINA RESULT:      -5.3      2.304      6.569
REMARK  Name = 53470601
REMARK  16 active torsions:
REMARK  status: ('A' for Active; 'I' for Inactive)
REMARK    1  A    between atoms: C_1  and  C_20
REMARK    2  A    between atoms: C_2  and  C_10
REMARK    3  A    between atoms: C_3  and  O_6
REMARK    4  A    between atoms: C_4  and  O_8
REMARK    5  A    between atoms: C_11  and  C_12
REMARK    6  A    between atoms: C_12  and  O_13
REMARK    7  A    between atoms: C_12  and  C_15
REMARK    8  A    between atoms: C_15  and  C_16
REMARK    9  A    between atoms: C_17  and  C_18
REMARK   10  A    between atoms: C_20  and  C_22
REMARK   11  A    between atoms: C_22  and  C_23
REMARK   12  A    between atoms: C_23  and  C_24
REMARK   13  A    between atoms: C_24  and  C_25
REMARK   14  A    between atoms: C_25  and  C_26
REMARK   15  A    between atoms: C_26  and  C_28
REMARK   16  A    between atoms: C_28  and  O_29
REMARK                            x       y       z     vdW  Elec       q    Type
REMARK                         _______ _______ _______ _____ _____    ______ ____
ROOT
ATOM      1  C   UNL     1     -35.295  21.935   2.826  0.00  0.00    +0.041 C 
ATOM      2  C   UNL     1     -35.370  22.637   1.450  0.00  0.00    +0.051 C 
ATOM      3  C   UNL     1     -35.320  20.425   2.494  0.00  0.00    +0.114 C 
ATOM      4  C   UNL     1     -34.445  21.721   0.631  0.00  0.00    +0.117 C 
ATOM      5  C   UNL     1     -34.854  20.305   1.037  0.00  0.00    +0.059 C 
ENDROOT
BRANCH   3   6
ATOM      6  O   UNL     1     -36.610  19.850   2.638  0.00  0.00    -0.384 OA
ATOM      7  H   UNL     1     -37.171  20.120   1.894  0.00  0.00    +0.210 HD
ENDBRANCH   3   6
BRANCH   4   8
ATOM      8  O   UNL     1     -34.536  21.931  -0.763  0.00  0.00    -0.384 OA
ATOM      9  H   UNL     1     -34.940  22.797  -0.934  0.00  0.00    +0.210 HD
ENDBRANCH   4   8
BRANCH   2  10
ATOM     10  C   UNL     1     -36.757  22.755   0.882  0.00  0.00    -0.026 C 
ATOM     11  C   UNL     1     -37.435  23.909   0.803  0.00  0.00    -0.002 C 
BRANCH  11  12
ATOM     12  C   UNL     1     -38.826  24.022   0.244  0.00  0.00    +0.136 C 
BRANCH  12  13
ATOM     13  O   UNL     1     -38.907  23.148  -0.882  0.00  0.00    -0.380 OA
ATOM     14  H   UNL     1     -38.171  23.331  -1.488  0.00  0.00    +0.211 HD
ENDBRANCH  12  13
BRANCH  12  15
ATOM     15  C   UNL     1     -39.898  23.613   1.263  0.00  0.00    +0.059 C 
BRANCH  15  16
ATOM     16  C   UNL     1     -39.490  23.902   2.678  0.00  0.00    -0.028 C 
ATOM     17  C   UNL     1     -39.813  25.028   3.331  0.00  0.00    -0.031 C 
BRANCH  17  18
ATOM     18  C   UNL     1     -40.622  26.137   2.728  0.00  0.00    +0.026 C 
ATOM     19  C   UNL     1     -41.688  26.632   3.694  0.00  0.00    +0.005 C 
ENDBRANCH  17  18
ENDBRANCH  15  16
ENDBRANCH  12  15
ENDBRANCH  11  12
ENDBRANCH   2  10
BRANCH   1  20
ATOM     20  C   UNL     1     -36.304  22.389   3.871  0.00  0.00    +0.067 C 
BRANCH  20  22
ATOM     21  O   UNL     1     -35.924  22.403   6.259  0.00  0.00    -0.296 OA
ATOM     22  C   UNL     1     -35.634  22.849   5.148  0.00  0.00    +0.151 C 
BRANCH  22  23
ATOM     23  C   UNL     1     -34.537  23.884   4.992  0.00  0.00    +0.065 C 
BRANCH  23  24
ATOM     24  C   UNL     1     -34.956  25.206   5.627  0.00  0.00    +0.008 C 
BRANCH  24  25
ATOM     25  C   UNL     1     -36.203  25.824   4.987  0.00  0.00    +0.012 C 
BRANCH  25  26
ATOM     26  C   UNL     1     -36.073  26.144   3.497  0.00  0.00    +0.109 C 
BRANCH  26  28
ATOM     27  O   UNL     1     -33.884  26.820   2.671  0.00  0.00    -0.250 OA
ATOM     28  C   UNL     1     -34.953  27.112   3.187  0.00  0.00    +0.314 C 
BRANCH  28  29
ATOM     29  O   UNL     1     -35.286  28.384   3.528  0.00  0.00    -0.480 OA
ATOM     30  H   UNL     1     -34.638  28.960   3.883  0.00  0.00    +0.295 HD
ENDBRANCH  28  29
ENDBRANCH  26  28
ENDBRANCH  25  26
ENDBRANCH  24  25
ENDBRANCH  23  24
ENDBRANCH  22  23
ENDBRANCH  20  22
ENDBRANCH   1  20
TORSDOF 16
ENDMDL
MODEL 5
REMARK VINA RESULT:      -5.3      2.332      7.190
REMARK  Name = 53470601
REMARK  16 active torsions:
REMARK  status: ('A' for Active; 'I' for Inactive)
REMARK    1  A    between atoms: C_1  and  C_20
REMARK    2  A    between atoms: C_2  and  C_10
REMARK    3  A    between atoms: C_3  and  O_6
REMARK    4  A    between atoms: C_4  and  O_8
REMARK    5  A    between atoms: C_11  and  C_12
REMARK    6  A    between atoms: C_12  and  O_13
REMARK    7  A    between atoms: C_12  and  C_15
REMARK    8  A    between atoms: C_15  and  C_16
REMARK    9  A    between atoms: C_17  and  C_18
REMARK   10  A    between atoms: C_20  and  C_22
REMARK   11  A    between atoms: C_22  and  C_23
REMARK   12  A    between atoms: C_23  and  C_24
REMARK   13  A    between atoms: C_24  and  C_25
REMARK   14  A    between atoms: C_25  and  C_26
REMARK   15  A    between atoms: C_26  and  C_28
REMARK   16  A    between atoms: C_28  and  O_29
REMARK                            x       y       z     vdW  Elec       q    Type
REMARK                         _______ _______ _______ _____ _____    ______ ____
ROOT
ATOM      1  C   UNL     1     -36.171  21.684   2.537  0.00  0.00    +0.041 C 
ATOM      2  C   UNL     1     -35.820  20.270   2.016  0.00  0.00    +0.051 C 
ATOM      3  C   UNL     1     -36.560  22.480   1.270  0.00  0.00    +0.114 C 
ATOM      4  C   UNL     1     -36.920  20.096   0.956  0.00  0.00    +0.117 C 
ATOM      5  C   UNL     1     -36.957  21.434   0.220  0.00  0.00    +0.059 C 
ENDROOT
BRANCH   3   6
ATOM      6  O   UNL     1     -35.498  23.284   0.776  0.00  0.00    -0.384 OA
ATOM      7  H   UNL     1     -34.965  23.609   1.518  0.00  0.00    +0.210 HD
ENDBRANCH   3   6
BRANCH   4   8
ATOM      8  O   UNL     1     -36.693  19.006   0.085  0.00  0.00    -0.384 OA
ATOM      9  H   UNL     1     -36.737  19.312  -0.835  0.00  0.00    +0.210 HD
ENDBRANCH   4   8
BRANCH   2  10
ATOM     10  C   UNL     1     -34.428  20.134   1.467  0.00  0.00    -0.026 C 
ATOM     11  C   UNL     1     -33.657  19.051   1.646  0.00  0.00    -0.002 C 
BRANCH  11  12
ATOM     12  C   UNL     1     -32.261  18.921   1.105  0.00  0.00    +0.136 C 
BRANCH  12  13
ATOM     13  O   UNL     1     -31.853  17.566   1.295  0.00  0.00    -0.380 OA
ATOM     14  H   UNL     1     -30.917  17.542   1.549  0.00  0.00    +0.211 HD
ENDBRANCH  12  13
BRANCH  12  15
ATOM     15  C   UNL     1     -32.184  19.253  -0.391  0.00  0.00    +0.059 C 
BRANCH  15  16
ATOM     16  C   UNL     1     -31.024  20.146  -0.725  0.00  0.00    -0.028 C 
ATOM     17  C   UNL     1     -31.113  21.482  -0.811  0.00  0.00    -0.031 C 
BRANCH  17  18
ATOM     18  C   UNL     1     -32.382  22.248  -0.582  0.00  0.00    +0.026 C 
ATOM     19  C   UNL     1     -32.127  23.748  -0.566  0.00  0.00    +0.005 C 
ENDBRANCH  17  18
ENDBRANCH  15  16
ENDBRANCH  12  15
ENDBRANCH  11  12
ENDBRANCH   2  10
BRANCH   1  20
ATOM     20  C   UNL     1     -35.135  22.350   3.433  0.00  0.00    +0.067 C 
BRANCH  20  22
ATOM     21  O   UNL     1     -35.216  20.683   5.182  0.00  0.00    -0.296 OA
ATOM     22  C   UNL     1     -35.231  21.873   4.866  0.00  0.00    +0.151 C 
BRANCH  22  23
ATOM     23  C   UNL     1     -35.313  22.954   5.926  0.00  0.00    +0.065 C 
BRANCH  23  24
ATOM     24  C   UNL     1     -34.766  24.273   5.388  0.00  0.00    +0.008 C 
BRANCH  24  25
ATOM     25  C   UNL     1     -35.786  25.416   5.420  0.00  0.00    +0.012 C 
BRANCH  25  26
ATOM     26  C   UNL     1     -36.298  25.864   4.051  0.00  0.00    +0.109 C 
BRANCH  26  28
ATOM     27  O   UNL     1     -38.105  24.237   3.924  0.00  0.00    -0.250 OA
ATOM     28  C   UNL     1     -37.696  25.375   3.744  0.00  0.00    +0.314 C 
BRANCH  28  29
ATOM     29  O   UNL     1     -38.478  26.375   3.261  0.00  0.00    -0.480 OA
ATOM     30  H   UNL     1     -38.100  27.205   3.048  0.00  0.00    +0.295 HD
ENDBRANCH  28  29
ENDBRANCH  26  28
ENDBRANCH  25  26
ENDBRANCH  24  25
ENDBRANCH  23  24
ENDBRANCH  22  23
ENDBRANCH  20  22
ENDBRANCH   1  20
TORSDOF 16
ENDMDL
MODEL 6
REMARK VINA RESULT:      -5.3      2.309      5.289
REMARK  Name = 53470601
REMARK  16 active torsions:
REMARK  status: ('A' for Active; 'I' for Inactive)
REMARK    1  A    between atoms: C_1  and  C_20
REMARK    2  A    between atoms: C_2  and  C_10
REMARK    3  A    between atoms: C_3  and  O_6
REMARK    4  A    between atoms: C_4  and  O_8
REMARK    5  A    between atoms: C_11  and  C_12
REMARK    6  A    between atoms: C_12  and  O_13
REMARK    7  A    between atoms: C_12  and  C_15
REMARK    8  A    between atoms: C_15  and  C_16
REMARK    9  A    between atoms: C_17  and  C_18
REMARK   10  A    between atoms: C_20  and  C_22
REMARK   11  A    between atoms: C_22  and  C_23
REMARK   12  A    between atoms: C_23  and  C_24
REMARK   13  A    between atoms: C_24  and  C_25
REMARK   14  A    between atoms: C_25  and  C_26
REMARK   15  A    between atoms: C_26  and  C_28
REMARK   16  A    between atoms: C_28  and  O_29
REMARK                            x       y       z     vdW  Elec       q    Type
REMARK                         _______ _______ _______ _____ _____    ______ ____
ROOT
ATOM      1  C   UNL     1     -34.299  25.252   3.339  0.00  0.00    +0.041 C 
ATOM      2  C   UNL     1     -35.278  24.120   3.730  0.00  0.00    +0.051 C 
ATOM      3  C   UNL     1     -34.291  26.199   4.561  0.00  0.00    +0.114 C 
ATOM      4  C   UNL     1     -34.894  23.934   5.208  0.00  0.00    +0.117 C 
ATOM      5  C   UNL     1     -34.767  25.356   5.752  0.00  0.00    +0.059 C 
ENDROOT
BRANCH   3   6
ATOM      6  O   UNL     1     -35.142  27.324   4.393  0.00  0.00    -0.384 OA
ATOM      7  H   UNL     1     -35.483  27.339   3.485  0.00  0.00    +0.210 HD
ENDBRANCH   3   6
BRANCH   4   8
ATOM      8  O   UNL     1     -35.824  23.157   5.936  0.00  0.00    -0.384 OA
ATOM      9  H   UNL     1     -36.723  23.470   5.749  0.00  0.00    +0.210 HD
ENDBRANCH   4   8
BRANCH   2  10
ATOM     10  C   UNL     1     -36.730  24.448   3.522  0.00  0.00    -0.026 C 
ATOM     11  C   UNL     1     -37.613  23.607   2.966  0.00  0.00    -0.002 C 
BRANCH  11  12
ATOM     12  C   UNL     1     -39.063  23.942   2.750  0.00  0.00    +0.136 C 
BRANCH  12  13
ATOM     13  O   UNL     1     -39.473  24.781   3.829  0.00  0.00    -0.380 OA
ATOM     14  H   UNL     1     -39.221  24.372   4.672  0.00  0.00    +0.211 HD
ENDBRANCH  12  13
BRANCH  12  15
ATOM     15  C   UNL     1     -39.298  24.687   1.429  0.00  0.00    +0.059 C 
BRANCH  15  16
ATOM     16  C   UNL     1     -38.336  24.274   0.354  0.00  0.00    -0.028 C 
ATOM     17  C   UNL     1     -38.543  23.237  -0.473  0.00  0.00    -0.031 C 
BRANCH  17  18
ATOM     18  C   UNL     1     -39.761  22.364  -0.424  0.00  0.00    +0.026 C 
ATOM     19  C   UNL     1     -39.495  21.088   0.359  0.00  0.00    +0.005 C 
ENDBRANCH  17  18
ENDBRANCH  15  16
ENDBRANCH  12  15
ENDBRANCH  11  12
ENDBRANCH   2  10
BRANCH   1  20
ATOM     20  C   UNL     1     -34.547  25.924   1.995  0.00  0.00    +0.067 C 
BRANCH  20  22
ATOM     21  O   UNL     1     -32.593  25.385   0.678  0.00  0.00    -0.296 OA
ATOM     22  C   UNL     1     -33.800  25.240   0.870  0.00  0.00    +0.151 C 
BRANCH  22  23
ATOM     23  C   UNL     1     -34.619  24.318  -0.011  0.00  0.00    +0.065 C 
BRANCH  23  24
ATOM     24  C   UNL     1     -34.188  22.868   0.186  0.00  0.00    +0.008 C 
BRANCH  24  25
ATOM     25  C   UNL     1     -35.294  21.974   0.757  0.00  0.00    +0.012 C 
BRANCH  25  26
ATOM     26  C   UNL     1     -34.801  20.736   1.507  0.00  0.00    +0.109 C 
BRANCH  26  28
ATOM     27  O   UNL     1     -35.282  20.777   3.894  0.00  0.00    -0.250 OA
ATOM     28  C   UNL     1     -35.594  20.441   2.761  0.00  0.00    +0.314 C 
BRANCH  28  29
ATOM     29  O   UNL     1     -36.739  19.766   2.478  0.00  0.00    -0.480 OA
ATOM     30  H   UNL     1     -37.411  19.690   3.128  0.00  0.00    +0.295 HD
ENDBRANCH  28  29
ENDBRANCH  26  28
ENDBRANCH  25  26
ENDBRANCH  24  25
ENDBRANCH  23  24
ENDBRANCH  22  23
ENDBRANCH  20  22
ENDBRANCH   1  20
TORSDOF 16
ENDMDL
MODEL 7
REMARK VINA RESULT:      -5.2      2.773      7.344
REMARK  Name = 53470601
REMARK  16 active torsions:
REMARK  status: ('A' for Active; 'I' for Inactive)
REMARK    1  A    between atoms: C_1  and  C_20
REMARK    2  A    between atoms: C_2  and  C_10
REMARK    3  A    between atoms: C_3  and  O_6
REMARK    4  A    between atoms: C_4  and  O_8
REMARK    5  A    between atoms: C_11  and  C_12
REMARK    6  A    between atoms: C_12  and  O_13
REMARK    7  A    between atoms: C_12  and  C_15
REMARK    8  A    between atoms: C_15  and  C_16
REMARK    9  A    between atoms: C_17  and  C_18
REMARK   10  A    between atoms: C_20  and  C_22
REMARK   11  A    between atoms: C_22  and  C_23
REMARK   12  A    between atoms: C_23  and  C_24
REMARK   13  A    between atoms: C_24  and  C_25
REMARK   14  A    between atoms: C_25  and  C_26
REMARK   15  A    between atoms: C_26  and  C_28
REMARK   16  A    between atoms: C_28  and  O_29
REMARK                            x       y       z     vdW  Elec       q    Type
REMARK                         _______ _______ _______ _____ _____    ______ ____
ROOT
ATOM      1  C   UNL     1     -34.140  25.290   3.961  0.00  0.00    +0.041 C 
ATOM      2  C   UNL     1     -34.677  23.857   4.188  0.00  0.00    +0.051 C 
ATOM      3  C   UNL     1     -35.221  26.212   4.572  0.00  0.00    +0.114 C 
ATOM      4  C   UNL     1     -35.256  24.011   5.604  0.00  0.00    +0.117 C 
ATOM      5  C   UNL     1     -35.999  25.345   5.571  0.00  0.00    +0.059 C 
ENDROOT
BRANCH   3   6
ATOM      6  O   UNL     1     -36.108  26.743   3.598  0.00  0.00    -0.384 OA
ATOM      7  H   UNL     1     -36.813  26.102   3.419  0.00  0.00    +0.210 HD
ENDBRANCH   3   6
BRANCH   4   8
ATOM      8  O   UNL     1     -36.090  22.937   5.989  0.00  0.00    -0.384 OA
ATOM      9  H   UNL     1     -35.554  22.245   6.409  0.00  0.00    +0.210 HD
ENDBRANCH   4   8
BRANCH   2  10
ATOM     10  C   UNL     1     -35.684  23.398   3.172  0.00  0.00    -0.026 C 
ATOM     11  C   UNL     1     -35.739  22.150   2.686  0.00  0.00    -0.002 C 
BRANCH  11  12
ATOM     12  C   UNL     1     -36.741  21.696   1.662  0.00  0.00    +0.136 C 
BRANCH  12  13
ATOM     13  O   UNL     1     -37.578  20.722   2.286  0.00  0.00    -0.380 OA
ATOM     14  H   UNL     1     -37.788  21.006   3.190  0.00  0.00    +0.211 HD
ENDBRANCH  12  13
BRANCH  12  15
ATOM     15  C   UNL     1     -37.619  22.848   1.156  0.00  0.00    +0.059 C 
BRANCH  15  16
ATOM     16  C   UNL     1     -39.068  22.667   1.504  0.00  0.00    -0.028 C 
ATOM     17  C   UNL     1     -39.728  23.445   2.375  0.00  0.00    -0.031 C 
BRANCH  17  18
ATOM     18  C   UNL     1     -39.099  24.592   3.108  0.00  0.00    +0.026 C 
ATOM     19  C   UNL     1     -39.380  25.914   2.410  0.00  0.00    +0.005 C 
ENDBRANCH  17  18
ENDBRANCH  15  16
ENDBRANCH  12  15
ENDBRANCH  11  12
ENDBRANCH   2  10
BRANCH   1  20
ATOM     20  C   UNL     1     -33.717  25.636   2.540  0.00  0.00    +0.067 C 
BRANCH  20  22
ATOM     21  O   UNL     1     -31.313  25.889   2.559  0.00  0.00    -0.296 OA
ATOM     22  C   UNL     1     -32.423  26.420   2.505  0.00  0.00    +0.151 C 
BRANCH  22  23
ATOM     23  C   UNL     1     -32.556  27.923   2.363  0.00  0.00    +0.065 C 
BRANCH  23  24
ATOM     24  C   UNL     1     -31.631  28.638   3.343  0.00  0.00    +0.008 C 
BRANCH  24  25
ATOM     25  C   UNL     1     -32.374  29.526   4.347  0.00  0.00    +0.012 C 
BRANCH  25  26
ATOM     26  C   UNL     1     -31.818  29.494   5.771  0.00  0.00    +0.109 C 
BRANCH  26  28
ATOM     27  O   UNL     1     -32.836  27.453   6.624  0.00  0.00    -0.250 OA
ATOM     28  C   UNL     1     -31.835  28.115   6.391  0.00  0.00    +0.314 C 
BRANCH  28  29
ATOM     29  O   UNL     1     -30.577  27.666   6.640  0.00  0.00    -0.480 OA
ATOM     30  H   UNL     1     -29.941  28.239   7.022  0.00  0.00    +0.295 HD
ENDBRANCH  28  29
ENDBRANCH  26  28
ENDBRANCH  25  26
ENDBRANCH  24  25
ENDBRANCH  23  24
ENDBRANCH  22  23
ENDBRANCH  20  22
ENDBRANCH   1  20
TORSDOF 16
ENDMDL
MODEL 8
REMARK VINA RESULT:      -5.2      1.888      5.431
REMARK  Name = 53470601
REMARK  16 active torsions:
REMARK  status: ('A' for Active; 'I' for Inactive)
REMARK    1  A    between atoms: C_1  and  C_20
REMARK    2  A    between atoms: C_2  and  C_10
REMARK    3  A    between atoms: C_3  and  O_6
REMARK    4  A    between atoms: C_4  and  O_8
REMARK    5  A    between atoms: C_11  and  C_12
REMARK    6  A    between atoms: C_12  and  O_13
REMARK    7  A    between atoms: C_12  and  C_15
REMARK    8  A    between atoms: C_15  and  C_16
REMARK    9  A    between atoms: C_17  and  C_18
REMARK   10  A    between atoms: C_20  and  C_22
REMARK   11  A    between atoms: C_22  and  C_23
REMARK   12  A    between atoms: C_23  and  C_24
REMARK   13  A    between atoms: C_24  and  C_25
REMARK   14  A    between atoms: C_25  and  C_26
REMARK   15  A    between atoms: C_26  and  C_28
REMARK   16  A    between atoms: C_28  and  O_29
REMARK                            x       y       z     vdW  Elec       q    Type
REMARK                         _______ _______ _______ _____ _____    ______ ____
ROOT
ATOM      1  C   UNL     1     -36.989  26.410   2.437  0.00  0.00    +0.041 C 
ATOM      2  C   UNL     1     -37.807  25.169   2.866  0.00  0.00    +0.051 C 
ATOM      3  C   UNL     1     -37.703  26.928   1.168  0.00  0.00    +0.114 C 
ATOM      4  C   UNL     1     -39.231  25.680   2.589  0.00  0.00    +0.117 C 
ATOM      5  C   UNL     1     -39.132  26.371   1.230  0.00  0.00    +0.059 C 
ENDROOT
BRANCH   3   6
ATOM      6  O   UNL     1     -37.071  26.504  -0.032  0.00  0.00    -0.384 OA
ATOM      7  H   UNL     1     -36.813  27.280  -0.554  0.00  0.00    +0.210 HD
ENDBRANCH   3   6
BRANCH   4   8
ATOM      8  O   UNL     1     -40.208  24.658   2.606  0.00  0.00    -0.384 OA
ATOM      9  H   UNL     1     -40.759  24.725   1.810  0.00  0.00    +0.210 HD
ENDBRANCH   4   8
BRANCH   2  10
ATOM     10  C   UNL     1     -37.465  23.908   2.124  0.00  0.00    -0.026 C 
ATOM     11  C   UNL     1     -37.353  22.706   2.708  0.00  0.00    -0.002 C 
BRANCH  11  12
ATOM     12  C   UNL     1     -37.001  21.447   1.965  0.00  0.00    +0.136 C 
BRANCH  12  13
ATOM     13  O   UNL     1     -37.715  21.466   0.730  0.00  0.00    -0.380 OA
ATOM     14  H   UNL     1     -37.090  21.389  -0.008  0.00  0.00    +0.211 HD
ENDBRANCH  12  13
BRANCH  12  15
ATOM     15  C   UNL     1     -35.499  21.349   1.664  0.00  0.00    +0.059 C 
BRANCH  15  16
ATOM     16  C   UNL     1     -34.935  19.993   1.974  0.00  0.00    -0.028 C 
ATOM     17  C   UNL     1     -33.797  19.521   1.443  0.00  0.00    -0.031 C 
BRANCH  17  18
ATOM     18  C   UNL     1     -32.946  20.292   0.478  0.00  0.00    +0.026 C 
ATOM     19  C   UNL     1     -33.281  19.931  -0.962  0.00  0.00    +0.005 C 
ENDBRANCH  17  18
ENDBRANCH  15  16
ENDBRANCH  12  15
ENDBRANCH  11  12
ENDBRANCH   2  10
BRANCH   1  20
ATOM     20  C   UNL     1     -35.485  26.214   2.305  0.00  0.00    +0.067 C 
BRANCH  20  22
ATOM     21  O   UNL     1     -34.890  27.970   3.857  0.00  0.00    -0.296 OA
ATOM     22  C   UNL     1     -34.728  26.812   3.472  0.00  0.00    +0.151 C 
BRANCH  22  23
ATOM     23  C   UNL     1     -33.762  25.886   4.187  0.00  0.00    +0.065 C 
BRANCH  23  24
ATOM     24  C   UNL     1     -34.288  25.533   5.574  0.00  0.00    +0.008 C 
BRANCH  24  25
ATOM     25  C   UNL     1     -35.344  24.423   5.563  0.00  0.00    +0.012 C 
BRANCH  25  26
ATOM     26  C   UNL     1     -34.837  23.053   5.109  0.00  0.00    +0.109 C 
BRANCH  26  28
ATOM     27  O   UNL     1     -36.169  22.013   6.862  0.00  0.00    -0.250 OA
ATOM     28  C   UNL     1     -35.420  21.905   5.902  0.00  0.00    +0.314 C 
BRANCH  28  29
ATOM     29  O   UNL     1     -35.034  20.704   5.397  0.00  0.00    -0.480 OA
ATOM     30  H   UNL     1     -35.649  19.999   5.340  0.00  0.00    +0.295 HD
ENDBRANCH  28  29
ENDBRANCH  26  28
ENDBRANCH  25  26
ENDBRANCH  24  25
ENDBRANCH  23  24
ENDBRANCH  22  23
ENDBRANCH  20  22
ENDBRANCH   1  20
TORSDOF 16
ENDMDL
MODEL 9
REMARK VINA RESULT:      -5.2      1.555      2.302
REMARK  Name = 53470601
REMARK  16 active torsions:
REMARK  status: ('A' for Active; 'I' for Inactive)
REMARK    1  A    between atoms: C_1  and  C_20
REMARK    2  A    between atoms: C_2  and  C_10
REMARK    3  A    between atoms: C_3  and  O_6
REMARK    4  A    between atoms: C_4  and  O_8
REMARK    5  A    between atoms: C_11  and  C_12
REMARK    6  A    between atoms: C_12  and  O_13
REMARK    7  A    between atoms: C_12  and  C_15
REMARK    8  A    between atoms: C_15  and  C_16
REMARK    9  A    between atoms: C_17  and  C_18
REMARK   10  A    between atoms: C_20  and  C_22
REMARK   11  A    between atoms: C_22  and  C_23
REMARK   12  A    between atoms: C_23  and  C_24
REMARK   13  A    between atoms: C_24  and  C_25
REMARK   14  A    between atoms: C_25  and  C_26
REMARK   15  A    between atoms: C_26  and  C_28
REMARK   16  A    between atoms: C_28  and  O_29
REMARK                            x       y       z     vdW  Elec       q    Type
REMARK                         _______ _______ _______ _____ _____    ______ ____
ROOT
ATOM      1  C   UNL     1     -36.337  22.909   1.348  0.00  0.00    +0.041 C 
ATOM      2  C   UNL     1     -36.355  24.427   1.052  0.00  0.00    +0.051 C 
ATOM      3  C   UNL     1     -37.661  22.643   2.101  0.00  0.00    +0.114 C 
ATOM      4  C   UNL     1     -37.836  24.609   0.681  0.00  0.00    +0.117 C 
ATOM      5  C   UNL     1     -38.596  23.803   1.733  0.00  0.00    +0.059 C 
ENDROOT
BRANCH   3   6
ATOM      6  O   UNL     1     -37.491  22.587   3.511  0.00  0.00    -0.384 OA
ATOM      7  H   UNL     1     -38.201  22.054   3.901  0.00  0.00    +0.210 HD
ENDBRANCH   3   6
BRANCH   4   8
ATOM      8  O   UNL     1     -38.243  25.962   0.638  0.00  0.00    -0.384 OA
ATOM      9  H   UNL     1     -38.169  26.293  -0.271  0.00  0.00    +0.210 HD
ENDBRANCH   4   8
BRANCH   2  10
ATOM     10  C   UNL     1     -35.911  25.293   2.196  0.00  0.00    -0.026 C 
ATOM     11  C   UNL     1     -34.817  26.069   2.165  0.00  0.00    -0.002 C 
BRANCH  11  12
ATOM     12  C   UNL     1     -34.369  26.926   3.315  0.00  0.00    +0.136 C 
BRANCH  12  13
ATOM     13  O   UNL     1     -35.464  27.770   3.671  0.00  0.00    -0.380 OA
ATOM     14  H   UNL     1     -35.144  28.502   4.222  0.00  0.00    +0.211 HD
ENDBRANCH  12  13
BRANCH  12  15
ATOM     15  C   UNL     1     -33.970  26.094   4.541  0.00  0.00    +0.059 C 
BRANCH  15  16
ATOM     16  C   UNL     1     -35.125  25.832   5.463  0.00  0.00    -0.028 C 
ATOM     17  C   UNL     1     -35.504  24.605   5.852  0.00  0.00    -0.031 C 
BRANCH  17  18
ATOM     18  C   UNL     1     -34.819  23.345   5.414  0.00  0.00    +0.026 C 
ATOM     19  C   UNL     1     -35.242  22.161   6.271  0.00  0.00    +0.005 C 
ENDBRANCH  17  18
ENDBRANCH  15  16
ENDBRANCH  12  15
ENDBRANCH  11  12
ENDBRANCH   2  10
BRANCH   1  20
ATOM     20  C   UNL     1     -35.084  22.367   2.021  0.00  0.00    +0.067 C 
BRANCH  20  22
ATOM     21  O   UNL     1     -35.437  20.305   3.232  0.00  0.00    -0.296 OA
ATOM     22  C   UNL     1     -35.127  20.862   2.179  0.00  0.00    +0.151 C 
BRANCH  22  23
ATOM     23  C   UNL     1     -34.796  20.051   0.942  0.00  0.00    +0.065 C 
BRANCH  23  24
ATOM     24  C   UNL     1     -33.305  19.735   0.892  0.00  0.00    +0.008 C 
BRANCH  24  25
ATOM     25  C   UNL     1     -32.953  18.355   1.456  0.00  0.00    +0.012 C 
BRANCH  25  26
ATOM     26  C   UNL     1     -32.318  17.390   0.453  0.00  0.00    +0.109 C 
BRANCH  26  28
ATOM     27  O   UNL     1     -33.019  15.487  -0.896  0.00  0.00    -0.250 OA
ATOM     28  C   UNL     1     -33.292  16.374  -0.099  0.00  0.00    +0.314 C 
BRANCH  28  29
ATOM     29  O   UNL     1     -34.535  16.539   0.426  0.00  0.00    -0.480 OA
ATOM     30  H   UNL     1     -34.637  16.887   1.290  0.00  0.00    +0.295 HD
ENDBRANCH  28  29
ENDBRANCH  26  28
ENDBRANCH  25  26
ENDBRANCH  24  25
ENDBRANCH  23  24
ENDBRANCH  22  23
ENDBRANCH  20  22
ENDBRANCH   1  20
TORSDOF 16
ENDMDL
