MODEL 1
REMARK VINA RESULT:      -5.7      0.000      0.000
REMARK  Name = 193887
REMARK  8 active torsions:
REMARK  status: ('A' for Active; 'I' for Inactive)
REMARK    1  A    between atoms: C_1  and  C_10
REMARK    2  A    between atoms: C_1  and  C_13
REMARK    3  A    between atoms: C_4  and  O_7
REMARK    4  A    between atoms: C_10  and  O_11
REMARK    5  A    between atoms: C_13  and  CA_14
REMARK    6  A    between atoms: CA_14  and  N_15
REMARK    7  A    between atoms: CA_14  and  C_20
REMARK    8  A    between atoms: C_20  and  O_21
REMARK                            x       y       z     vdW  Elec       q    Type
REMARK                         _______ _______ _______ _____ _____    ______ ____
ROOT
ATOM      1  C   UNL     1     -35.928  23.936   3.933  0.00  0.00    +0.124 C 
ATOM      2  C   UNL     1     -35.626  22.619   3.262  0.00  0.00    -0.014 C 
ATOM      3  C   UNL     1     -35.661  23.931   5.418  0.00  0.00    -0.014 C 
ATOM      4  C   UNL     1     -34.913  21.544   5.405  0.00  0.00    +0.154 C 
ATOM      5  C   UNL     1     -35.165  21.548   3.925  0.00  0.00    +0.003 C 
ATOM      6  C   UNL     1     -35.201  22.857   6.075  0.00  0.00    +0.003 C 
ENDROOT
BRANCH   4   7
ATOM      7  O   UNL     1     -35.728  20.548   6.017  0.00  0.00    -0.376 OA
ATOM      8  H   UNL     1     -36.444  20.298   5.412  0.00  0.00    +0.211 HD
ENDBRANCH   4   7
BRANCH   1  10
ATOM      9  O   UNL     1     -38.112  23.409   3.102  0.00  0.00    -0.250 OA
ATOM     10  C   UNL     1     -37.411  24.144   3.780  0.00  0.00    +0.320 C 
BRANCH  10  11
ATOM     11  O   UNL     1     -37.855  25.220   4.474  0.00  0.00    -0.480 OA
ATOM     12  H   UNL     1     -37.257  25.720   4.994  0.00  0.00    +0.295 HD
ENDBRANCH  10  11
ENDBRANCH   1  10
BRANCH   1  13
ATOM     13  C   UNL     1     -35.159  25.071   3.255  0.00  0.00    +0.008 C 
BRANCH  13  14
ATOM     14  CA  UNL     1     -34.856  26.221   4.215  0.00  0.00    +0.037 C 
BRANCH  14  15
ATOM     15  N   UNL     1     -35.663  27.393   3.874  0.00  0.00    +0.389 N 
ATOM     16  H1  UNL     1     -35.958  27.330   2.900  0.00  0.00    -0.088 HD
ATOM     17  H2  UNL     1     -35.107  28.237   4.008  0.00  0.00    -0.088 HD
ATOM     18  H3  UNL     1     -36.485  27.426   4.476  0.00  0.00    -0.088 HD
ENDBRANCH  14  15
BRANCH  14  20
ATOM     19  OXT UNL     1     -32.571  26.080   3.443  0.00  0.00    -0.253 OA
ATOM     20  C   UNL     1     -33.397  26.629   4.162  0.00  0.00    +0.293 C 
BRANCH  20  21
ATOM     21  O   UNL     1     -33.094  27.688   4.955  0.00  0.00    -0.482 OA
ATOM     22  H   UNL     1     -32.869  27.551   5.854  0.00  0.00    +0.295 HD
ENDBRANCH  20  21
ENDBRANCH  14  20
ENDBRANCH  13  14
ENDBRANCH   1  13
TORSDOF 8
ENDMDL
MODEL 2
REMARK VINA RESULT:      -5.5      2.084      4.488
REMARK  Name = 193887
REMARK  8 active torsions:
REMARK  status: ('A' for Active; 'I' for Inactive)
REMARK    1  A    between atoms: C_1  and  C_10
REMARK    2  A    between atoms: C_1  and  C_13
REMARK    3  A    between atoms: C_4  and  O_7
REMARK    4  A    between atoms: C_10  and  O_11
REMARK    5  A    between atoms: C_13  and  CA_14
REMARK    6  A    between atoms: CA_14  and  N_15
REMARK    7  A    between atoms: CA_14  and  C_20
REMARK    8  A    between atoms: C_20  and  O_21
REMARK                            x       y       z     vdW  Elec       q    Type
REMARK                         _______ _______ _______ _____ _____    ______ ____
ROOT
ATOM      1  C   UNL     1     -36.249  24.761   3.762  0.00  0.00    +0.124 C 
ATOM      2  C   UNL     1     -36.323  25.433   5.110  0.00  0.00    -0.014 C 
ATOM      3  C   UNL     1     -34.873  24.794   3.146  0.00  0.00    -0.014 C 
ATOM      4  C   UNL     1     -33.899  26.048   5.080  0.00  0.00    +0.154 C 
ATOM      5  C   UNL     1     -35.264  26.006   5.701  0.00  0.00    +0.003 C 
ATOM      6  C   UNL     1     -33.818  25.369   3.743  0.00  0.00    +0.003 C 
ENDROOT
BRANCH   4   7
ATOM      7  O   UNL     1     -33.502  27.406   4.909  0.00  0.00    -0.376 OA
ATOM      8  H   UNL     1     -33.459  27.842   5.775  0.00  0.00    +0.211 HD
ENDBRANCH   4   7
BRANCH   1  10
ATOM      9  O   UNL     1     -36.967  25.606   1.639  0.00  0.00    -0.250 OA
ATOM     10  C   UNL     1     -37.129  25.571   2.849  0.00  0.00    +0.320 C 
BRANCH  10  11
ATOM     11  O   UNL     1     -38.100  26.235   3.523  0.00  0.00    -0.480 OA
ATOM     12  H   UNL     1     -38.182  27.163   3.430  0.00  0.00    +0.295 HD
ENDBRANCH  10  11
ENDBRANCH   1  10
BRANCH   1  13
ATOM     13  C   UNL     1     -36.760  23.322   3.853  0.00  0.00    +0.008 C 
BRANCH  13  14
ATOM     14  CA  UNL     1     -35.627  22.314   4.040  0.00  0.00    +0.037 C 
BRANCH  14  15
ATOM     15  N   UNL     1     -35.840  21.146   3.185  0.00  0.00    +0.389 N 
ATOM     16  H1  UNL     1     -36.634  21.317   2.569  0.00  0.00    -0.088 HD
ATOM     17  H2  UNL     1     -36.030  20.330   3.766  0.00  0.00    -0.088 HD
ATOM     18  H3  UNL     1     -35.005  20.979   2.624  0.00  0.00    -0.088 HD
ENDBRANCH  14  15
BRANCH  14  20
ATOM     19  OXT UNL     1     -35.885  22.504   6.435  0.00  0.00    -0.253 OA
ATOM     20  C   UNL     1     -35.533  21.830   5.474  0.00  0.00    +0.293 C 
BRANCH  20  21
ATOM     21  O   UNL     1     -35.061  20.565   5.596  0.00  0.00    -0.482 OA
ATOM     22  H   UNL     1     -34.551  20.186   4.907  0.00  0.00    +0.295 HD
ENDBRANCH  20  21
ENDBRANCH  14  20
ENDBRANCH  13  14
ENDBRANCH   1  13
TORSDOF 8
ENDMDL
MODEL 3
REMARK VINA RESULT:      -5.2      2.145      4.071
REMARK  Name = 193887
REMARK  8 active torsions:
REMARK  status: ('A' for Active; 'I' for Inactive)
REMARK    1  A    between atoms: C_1  and  C_10
REMARK    2  A    between atoms: C_1  and  C_13
REMARK    3  A    between atoms: C_4  and  O_7
REMARK    4  A    between atoms: C_10  and  O_11
REMARK    5  A    between atoms: C_13  and  CA_14
REMARK    6  A    between atoms: CA_14  and  N_15
REMARK    7  A    between atoms: CA_14  and  C_20
REMARK    8  A    between atoms: C_20  and  O_21
REMARK                            x       y       z     vdW  Elec       q    Type
REMARK                         _______ _______ _______ _____ _____    ______ ____
ROOT
ATOM      1  C   UNL     1     -36.155  24.050   3.935  0.00  0.00    +0.124 C 
ATOM      2  C   UNL     1     -34.991  24.440   3.059  0.00  0.00    -0.014 C 
ATOM      3  C   UNL     1     -36.281  24.892   5.181  0.00  0.00    -0.014 C 
ATOM      4  C   UNL     1     -34.270  26.266   4.608  0.00  0.00    +0.154 C 
ATOM      5  C   UNL     1     -34.149  25.438   3.362  0.00  0.00    +0.003 C 
ATOM      6  C   UNL     1     -35.435  25.889   5.478  0.00  0.00    +0.003 C 
ENDROOT
BRANCH   4   7
ATOM      7  O   UNL     1     -33.081  26.128   5.380  0.00  0.00    -0.376 OA
ATOM      8  H   UNL     1     -32.323  25.997   4.787  0.00  0.00    +0.211 HD
ENDBRANCH   4   7
BRANCH   1  10
ATOM      9  O   UNL     1     -35.352  21.807   3.691  0.00  0.00    -0.250 OA
ATOM     10  C   UNL     1     -35.864  22.652   4.410  0.00  0.00    +0.320 C 
BRANCH  10  11
ATOM     11  O   UNL     1     -36.228  22.458   5.700  0.00  0.00    -0.480 OA
ATOM     12  H   UNL     1     -37.041  22.801   6.013  0.00  0.00    +0.295 HD
ENDBRANCH  10  11
ENDBRANCH   1  10
BRANCH   1  13
ATOM     13  C   UNL     1     -37.460  24.078   3.137  0.00  0.00    +0.008 C 
BRANCH  13  14
ATOM     14  CA  UNL     1     -38.358  25.250   3.533  0.00  0.00    +0.037 C 
BRANCH  14  15
ATOM     15  N   UNL     1     -39.729  24.788   3.751  0.00  0.00    +0.389 N 
ATOM     16  H1  UNL     1     -40.364  25.586   3.725  0.00  0.00    -0.088 HD
ATOM     17  H2  UNL     1     -39.792  24.332   4.660  0.00  0.00    -0.088 HD
ATOM     18  H3  UNL     1     -39.985  24.127   3.018  0.00  0.00    -0.088 HD
ENDBRANCH  14  15
BRANCH  14  20
ATOM     19  OXT UNL     1     -39.355  26.506   1.725  0.00  0.00    -0.253 OA
ATOM     20  C   UNL     1     -38.392  26.321   2.461  0.00  0.00    +0.293 C 
BRANCH  20  21
ATOM     21  O   UNL     1     -37.274  27.088   2.415  0.00  0.00    -0.482 OA
ATOM     22  H   UNL     1     -36.620  26.924   1.765  0.00  0.00    +0.295 HD
ENDBRANCH  20  21
ENDBRANCH  14  20
ENDBRANCH  13  14
ENDBRANCH   1  13
TORSDOF 8
ENDMDL
MODEL 4
REMARK VINA RESULT:      -5.2      2.072      4.611
REMARK  Name = 193887
REMARK  8 active torsions:
REMARK  status: ('A' for Active; 'I' for Inactive)
REMARK    1  A    between atoms: C_1  and  C_10
REMARK    2  A    between atoms: C_1  and  C_13
REMARK    3  A    between atoms: C_4  and  O_7
REMARK    4  A    between atoms: C_10  and  O_11
REMARK    5  A    between atoms: C_13  and  CA_14
REMARK    6  A    between atoms: CA_14  and  N_15
REMARK    7  A    between atoms: CA_14  and  C_20
REMARK    8  A    between atoms: C_20  and  O_21
REMARK                            x       y       z     vdW  Elec       q    Type
REMARK                         _______ _______ _______ _____ _____    ______ ____
ROOT
ATOM      1  C   UNL     1     -36.057  24.659   4.184  0.00  0.00    +0.124 C 
ATOM      2  C   UNL     1     -35.821  25.335   5.511  0.00  0.00    -0.014 C 
ATOM      3  C   UNL     1     -34.945  24.879   3.189  0.00  0.00    -0.014 C 
ATOM      4  C   UNL     1     -33.628  26.290   4.780  0.00  0.00    +0.154 C 
ATOM      5  C   UNL     1     -34.726  26.063   5.777  0.00  0.00    +0.003 C 
ATOM      6  C   UNL     1     -33.853  25.609   3.460  0.00  0.00    +0.003 C 
ENDROOT
BRANCH   4   7
ATOM      7  O   UNL     1     -33.496  27.688   4.537  0.00  0.00    -0.376 OA
ATOM      8  H   UNL     1     -32.873  27.833   3.807  0.00  0.00    +0.211 HD
ENDBRANCH   4   7
BRANCH   1  10
ATOM      9  O   UNL     1     -37.204  26.166   2.718  0.00  0.00    -0.250 OA
ATOM     10  C   UNL     1     -37.274  25.319   3.596  0.00  0.00    +0.320 C 
BRANCH  10  11
ATOM     11  O   UNL     1     -38.425  24.865   4.149  0.00  0.00    -0.480 OA
ATOM     12  H   UNL     1     -38.629  23.952   4.120  0.00  0.00    +0.295 HD
ENDBRANCH  10  11
ENDBRANCH   1  10
BRANCH   1  13
ATOM     13  C   UNL     1     -36.308  23.163   4.382  0.00  0.00    +0.008 C 
BRANCH  13  14
ATOM     14  CA  UNL     1     -36.312  22.394   3.061  0.00  0.00    +0.037 C 
BRANCH  14  15
ATOM     15  N   UNL     1     -37.681  22.040   2.684  0.00  0.00    +0.389 N 
ATOM     16  H1  UNL     1     -38.282  22.087   3.506  0.00  0.00    -0.088 HD
ATOM     17  H2  UNL     1     -37.694  21.094   2.305  0.00  0.00    -0.088 HD
ATOM     18  H3  UNL     1     -38.019  22.695   1.979  0.00  0.00    -0.088 HD
ENDBRANCH  14  15
BRANCH  14  20
ATOM     19  OXT UNL     1     -35.041  20.540   2.174  0.00  0.00    -0.253 OA
ATOM     20  C   UNL     1     -35.508  21.112   3.152  0.00  0.00    +0.293 C 
BRANCH  20  21
ATOM     21  O   UNL     1     -35.316  20.674   4.422  0.00  0.00    -0.482 OA
ATOM     22  H   UNL     1     -34.919  21.237   5.057  0.00  0.00    +0.295 HD
ENDBRANCH  20  21
ENDBRANCH  14  20
ENDBRANCH  13  14
ENDBRANCH   1  13
TORSDOF 8
ENDMDL
MODEL 5
REMARK VINA RESULT:      -5.2      2.740      5.019
REMARK  Name = 193887
REMARK  8 active torsions:
REMARK  status: ('A' for Active; 'I' for Inactive)
REMARK    1  A    between atoms: C_1  and  C_10
REMARK    2  A    between atoms: C_1  and  C_13
REMARK    3  A    between atoms: C_4  and  O_7
REMARK    4  A    between atoms: C_10  and  O_11
REMARK    5  A    between atoms: C_13  and  CA_14
REMARK    6  A    between atoms: CA_14  and  N_15
REMARK    7  A    between atoms: CA_14  and  C_20
REMARK    8  A    between atoms: C_20  and  O_21
REMARK                            x       y       z     vdW  Elec       q    Type
REMARK                         _______ _______ _______ _____ _____    ______ ____
ROOT
ATOM      1  C   UNL     1     -35.584  22.859   4.059  0.00  0.00    +0.124 C 
ATOM      2  C   UNL     1     -34.502  23.895   4.237  0.00  0.00    -0.014 C 
ATOM      3  C   UNL     1     -36.968  23.446   3.936  0.00  0.00    -0.014 C 
ATOM      4  C   UNL     1     -36.131  25.792   4.175  0.00  0.00    +0.154 C 
ATOM      5  C   UNL     1     -34.751  25.212   4.284  0.00  0.00    +0.003 C 
ATOM      6  C   UNL     1     -37.210  24.764   3.985  0.00  0.00    +0.003 C 
ENDROOT
BRANCH   4   7
ATOM      7  O   UNL     1     -36.426  26.528   5.359  0.00  0.00    -0.376 OA
ATOM      8  H   UNL     1     -37.385  26.654   5.431  0.00  0.00    +0.211 HD
ENDBRANCH   4   7
BRANCH   1  10
ATOM      9  O   UNL     1     -35.963  22.502   6.397  0.00  0.00    -0.250 OA
ATOM     10  C   UNL     1     -35.589  22.047   5.326  0.00  0.00    +0.320 C 
BRANCH  10  11
ATOM     11  O   UNL     1     -35.144  20.783   5.131  0.00  0.00    -0.480 OA
ATOM     12  H   UNL     1     -35.211  20.152   5.820  0.00  0.00    +0.295 HD
ENDBRANCH  10  11
ENDBRANCH   1  10
BRANCH   1  13
ATOM     13  C   UNL     1     -35.275  21.964   2.857  0.00  0.00    +0.008 C 
BRANCH  13  14
ATOM     14  CA  UNL     1     -36.542  21.449   2.176  0.00  0.00    +0.037 C 
BRANCH  14  15
ATOM     15  N   UNL     1     -36.710  20.018   2.432  0.00  0.00    +0.389 N 
ATOM     16  H1  UNL     1     -35.819  19.542   2.298  0.00  0.00    -0.088 HD
ATOM     17  H2  UNL     1     -37.400  19.637   1.786  0.00  0.00    -0.088 HD
ATOM     18  H3  UNL     1     -37.028  19.880   3.391  0.00  0.00    -0.088 HD
ENDBRANCH  14  15
BRANCH  14  20
ATOM     19  OXT UNL     1     -36.500  20.724  -0.129  0.00  0.00    -0.253 OA
ATOM     20  C   UNL     1     -36.497  21.650   0.674  0.00  0.00    +0.293 C 
BRANCH  20  21
ATOM     21  O   UNL     1     -36.494  22.952   0.294  0.00  0.00    -0.482 OA
ATOM     22  H   UNL     1     -35.857  23.260  -0.320  0.00  0.00    +0.295 HD
ENDBRANCH  20  21
ENDBRANCH  14  20
ENDBRANCH  13  14
ENDBRANCH   1  13
TORSDOF 8
ENDMDL
MODEL 6
REMARK VINA RESULT:      -5.2      1.686      3.263
REMARK  Name = 193887
REMARK  8 active torsions:
REMARK  status: ('A' for Active; 'I' for Inactive)
REMARK    1  A    between atoms: C_1  and  C_10
REMARK    2  A    between atoms: C_1  and  C_13
REMARK    3  A    between atoms: C_4  and  O_7
REMARK    4  A    between atoms: C_10  and  O_11
REMARK    5  A    between atoms: C_13  and  CA_14
REMARK    6  A    between atoms: CA_14  and  N_15
REMARK    7  A    between atoms: CA_14  and  C_20
REMARK    8  A    between atoms: C_20  and  O_21
REMARK                            x       y       z     vdW  Elec       q    Type
REMARK                         _______ _______ _______ _____ _____    ______ ____
ROOT
ATOM      1  C   UNL     1     -35.681  22.906   3.789  0.00  0.00    +0.124 C 
ATOM      2  C   UNL     1     -37.095  23.403   3.622  0.00  0.00    -0.014 C 
ATOM      3  C   UNL     1     -35.311  21.805   2.826  0.00  0.00    -0.014 C 
ATOM      4  C   UNL     1     -37.574  21.803   1.759  0.00  0.00    +0.154 C 
ATOM      5  C   UNL     1     -37.942  22.908   2.707  0.00  0.00    +0.003 C 
ATOM      6  C   UNL     1     -36.162  21.314   1.914  0.00  0.00    +0.003 C 
ENDROOT
BRANCH   4   7
ATOM      7  O   UNL     1     -38.449  20.698   1.966  0.00  0.00    -0.376 OA
ATOM      8  H   UNL     1     -38.391  20.407   2.890  0.00  0.00    +0.211 HD
ENDBRANCH   4   7
BRANCH   1  10
ATOM      9  O   UNL     1     -35.854  22.931   6.177  0.00  0.00    -0.250 OA
ATOM     10  C   UNL     1     -35.618  22.294   5.162  0.00  0.00    +0.320 C 
BRANCH  10  11
ATOM     11  O   UNL     1     -35.280  20.983   5.127  0.00  0.00    -0.480 OA
ATOM     12  H   UNL     1     -35.884  20.336   5.435  0.00  0.00    +0.295 HD
ENDBRANCH  10  11
ENDBRANCH   1  10
BRANCH   1  13
ATOM     13  C   UNL     1     -34.690  24.067   3.679  0.00  0.00    +0.008 C 
BRANCH  13  14
ATOM     14  CA  UNL     1     -35.391  25.418   3.545  0.00  0.00    +0.037 C 
BRANCH  14  15
ATOM     15  N   UNL     1     -34.788  26.197   2.463  0.00  0.00    +0.389 N 
ATOM     16  H1  UNL     1     -35.186  27.136   2.459  0.00  0.00    -0.088 HD
ATOM     17  H2  UNL     1     -34.979  25.743   1.571  0.00  0.00    -0.088 HD
ATOM     18  H3  UNL     1     -33.781  26.256   2.607  0.00  0.00    -0.088 HD
ENDBRANCH  14  15
BRANCH  14  20
ATOM     19  OXT UNL     1     -34.228  26.651   5.267  0.00  0.00    -0.253 OA
ATOM     20  C   UNL     1     -35.290  26.235   4.818  0.00  0.00    +0.293 C 
BRANCH  20  21
ATOM     21  O   UNL     1     -36.488  26.500   5.397  0.00  0.00    -0.482 OA
ATOM     22  H   UNL     1     -36.521  26.886   6.250  0.00  0.00    +0.295 HD
ENDBRANCH  20  21
ENDBRANCH  14  20
ENDBRANCH  13  14
ENDBRANCH   1  13
TORSDOF 8
ENDMDL
MODEL 7
REMARK VINA RESULT:      -5.2      1.662      1.957
REMARK  Name = 193887
REMARK  8 active torsions:
REMARK  status: ('A' for Active; 'I' for Inactive)
REMARK    1  A    between atoms: C_1  and  C_10
REMARK    2  A    between atoms: C_1  and  C_13
REMARK    3  A    between atoms: C_4  and  O_7
REMARK    4  A    between atoms: C_10  and  O_11
REMARK    5  A    between atoms: C_13  and  CA_14
REMARK    6  A    between atoms: CA_14  and  N_15
REMARK    7  A    between atoms: CA_14  and  C_20
REMARK    8  A    between atoms: C_20  and  O_21
REMARK                            x       y       z     vdW  Elec       q    Type
REMARK                         _______ _______ _______ _____ _____    ______ ____
ROOT
ATOM      1  C   UNL     1     -35.425  24.384   4.292  0.00  0.00    +0.124 C 
ATOM      2  C   UNL     1     -35.413  23.953   2.847  0.00  0.00    -0.014 C 
ATOM      3  C   UNL     1     -35.335  23.235   5.265  0.00  0.00    -0.014 C 
ATOM      4  C   UNL     1     -35.258  21.528   3.438  0.00  0.00    +0.154 C 
ATOM      5  C   UNL     1     -35.334  22.669   2.467  0.00  0.00    +0.003 C 
ATOM      6  C   UNL     1     -35.256  21.953   4.878  0.00  0.00    +0.003 C 
ENDROOT
BRANCH   4   7
ATOM      7  O   UNL     1     -36.372  20.663   3.235  0.00  0.00    -0.376 OA
ATOM      8  H   UNL     1     -36.958  21.043   2.561  0.00  0.00    +0.211 HD
ENDBRANCH   4   7
BRANCH   1  10
ATOM      9  O   UNL     1     -37.800  24.567   4.043  0.00  0.00    -0.250 OA
ATOM     10  C   UNL     1     -36.770  25.017   4.523  0.00  0.00    +0.320 C 
BRANCH  10  11
ATOM     11  O   UNL     1     -36.695  26.116   5.312  0.00  0.00    -0.480 OA
ATOM     12  H   UNL     1     -37.419  26.348   5.860  0.00  0.00    +0.295 HD
ENDBRANCH  10  11
ENDBRANCH   1  10
BRANCH   1  13
ATOM     13  C   UNL     1     -34.309  25.397   4.557  0.00  0.00    +0.008 C 
BRANCH  13  14
ATOM     14  CA  UNL     1     -34.001  26.256   3.331  0.00  0.00    +0.037 C 
BRANCH  14  15
ATOM     15  N   UNL     1     -32.604  26.084   2.929  0.00  0.00    +0.389 N 
ATOM     16  H1  UNL     1     -32.410  26.670   2.118  0.00  0.00    -0.088 HD
ATOM     17  H2  UNL     1     -32.438  25.107   2.692  0.00  0.00    -0.088 HD
ATOM     18  H3  UNL     1     -31.994  26.357   3.699  0.00  0.00    -0.088 HD
ENDBRANCH  14  15
BRANCH  14  20
ATOM     19  OXT UNL     1     -33.337  28.496   3.946  0.00  0.00    -0.253 OA
ATOM     20  C   UNL     1     -34.229  27.730   3.603  0.00  0.00    +0.293 C 
BRANCH  20  21
ATOM     21  O   UNL     1     -35.506  28.135   3.391  0.00  0.00    -0.482 OA
ATOM     22  H   UNL     1     -36.172  27.936   4.020  0.00  0.00    +0.295 HD
ENDBRANCH  20  21
ENDBRANCH  14  20
ENDBRANCH  13  14
ENDBRANCH   1  13
TORSDOF 8
ENDMDL
MODEL 8
REMARK VINA RESULT:      -5.1      2.325      4.896
REMARK  Name = 193887
REMARK  8 active torsions:
REMARK  status: ('A' for Active; 'I' for Inactive)
REMARK    1  A    between atoms: C_1  and  C_10
REMARK    2  A    between atoms: C_1  and  C_13
REMARK    3  A    between atoms: C_4  and  O_7
REMARK    4  A    between atoms: C_10  and  O_11
REMARK    5  A    between atoms: C_13  and  CA_14
REMARK    6  A    between atoms: CA_14  and  N_15
REMARK    7  A    between atoms: CA_14  and  C_20
REMARK    8  A    between atoms: C_20  and  O_21
REMARK                            x       y       z     vdW  Elec       q    Type
REMARK                         _______ _______ _______ _____ _____    ______ ____
ROOT
ATOM      1  C   UNL     1     -35.624  25.111   4.049  0.00  0.00    +0.124 C 
ATOM      2  C   UNL     1     -34.225  24.796   3.580  0.00  0.00    -0.014 C 
ATOM      3  C   UNL     1     -36.394  25.994   3.099  0.00  0.00    -0.014 C 
ATOM      4  C   UNL     1     -34.483  26.150   1.492  0.00  0.00    +0.154 C 
ATOM      5  C   UNL     1     -33.718  25.261   2.428  0.00  0.00    +0.003 C 
ATOM      6  C   UNL     1     -35.881  26.456   1.950  0.00  0.00    +0.003 C 
ENDROOT
BRANCH   4   7
ATOM      7  O   UNL     1     -33.788  27.385   1.343  0.00  0.00    -0.376 OA
ATOM      8  H   UNL     1     -32.849  27.254   1.548  0.00  0.00    +0.211 HD
ENDBRANCH   4   7
BRANCH   1  10
ATOM      9  O   UNL     1     -34.434  25.897   5.974  0.00  0.00    -0.250 OA
ATOM     10  C   UNL     1     -35.464  25.907   5.316  0.00  0.00    +0.320 C 
BRANCH  10  11
ATOM     11  O   UNL     1     -36.575  26.619   5.622  0.00  0.00    -0.480 OA
ATOM     12  H   UNL     1     -36.540  27.555   5.639  0.00  0.00    +0.295 HD
ENDBRANCH  10  11
ENDBRANCH   1  10
BRANCH   1  13
ATOM     13  C   UNL     1     -36.398  23.821   4.327  0.00  0.00    +0.008 C 
BRANCH  13  14
ATOM     14  CA  UNL     1     -35.504  22.583   4.264  0.00  0.00    +0.037 C 
BRANCH  14  15
ATOM     15  N   UNL     1     -36.090  21.579   3.376  0.00  0.00    +0.389 N 
ATOM     16  H1  UNL     1     -37.096  21.732   3.307  0.00  0.00    -0.088 HD
ATOM     17  H2  UNL     1     -35.912  20.648   3.752  0.00  0.00    -0.088 HD
ATOM     18  H3  UNL     1     -35.671  21.659   2.450  0.00  0.00    -0.088 HD
ENDBRANCH  14  15
BRANCH  14  20
ATOM     19  OXT UNL     1     -35.337  22.587   6.675  0.00  0.00    -0.253 OA
ATOM     20  C   UNL     1     -35.324  21.948   5.629  0.00  0.00    +0.293 C 
BRANCH  20  21
ATOM     21  O   UNL     1     -35.189  20.599   5.593  0.00  0.00    -0.482 OA
ATOM     22  H   UNL     1     -35.923  20.060   5.372  0.00  0.00    +0.295 HD
ENDBRANCH  20  21
ENDBRANCH  14  20
ENDBRANCH  13  14
ENDBRANCH   1  13
TORSDOF 8
ENDMDL
MODEL 9
REMARK VINA RESULT:      -5.0      1.470      1.679
REMARK  Name = 193887
REMARK  8 active torsions:
REMARK  status: ('A' for Active; 'I' for Inactive)
REMARK    1  A    between atoms: C_1  and  C_10
REMARK    2  A    between atoms: C_1  and  C_13
REMARK    3  A    between atoms: C_4  and  O_7
REMARK    4  A    between atoms: C_10  and  O_11
REMARK    5  A    between atoms: C_13  and  CA_14
REMARK    6  A    between atoms: CA_14  and  N_15
REMARK    7  A    between atoms: CA_14  and  C_20
REMARK    8  A    between atoms: C_20  and  O_21
REMARK                            x       y       z     vdW  Elec       q    Type
REMARK                         _______ _______ _______ _____ _____    ______ ____
ROOT
ATOM      1  C   UNL     1     -36.166  24.220   3.206  0.00  0.00    +0.124 C 
ATOM      2  C   UNL     1     -35.705  23.503   1.961  0.00  0.00    -0.014 C 
ATOM      3  C   UNL     1     -36.134  23.359   4.444  0.00  0.00    -0.014 C 
ATOM      4  C   UNL     1     -35.289  21.365   3.191  0.00  0.00    +0.154 C 
ATOM      5  C   UNL     1     -35.308  22.222   1.959  0.00  0.00    +0.003 C 
ATOM      6  C   UNL     1     -35.736  22.078   4.435  0.00  0.00    +0.003 C 
ENDROOT
BRANCH   4   7
ATOM      7  O   UNL     1     -36.145  20.243   2.995  0.00  0.00    -0.376 OA
ATOM      8  H   UNL     1     -36.937  20.339   3.548  0.00  0.00    +0.211 HD
ENDBRANCH   4   7
BRANCH   1  10
ATOM      9  O   UNL     1     -38.100  24.638   1.856  0.00  0.00    -0.250 OA
ATOM     10  C   UNL     1     -37.614  24.557   2.974  0.00  0.00    +0.320 C 
BRANCH  10  11
ATOM     11  O   UNL     1     -38.291  24.750   4.132  0.00  0.00    -0.480 OA
ATOM     12  H   UNL     1     -38.513  24.017   4.672  0.00  0.00    +0.295 HD
ENDBRANCH  10  11
ENDBRANCH   1  10
BRANCH   1  13
ATOM     13  C   UNL     1     -35.352  25.496   3.421  0.00  0.00    +0.008 C 
BRANCH  13  14
ATOM     14  CA  UNL     1     -35.178  25.832   4.902  0.00  0.00    +0.037 C 
BRANCH  14  15
ATOM     15  N   UNL     1     -36.320  26.610   5.383  0.00  0.00    +0.389 N 
ATOM     16  H1  UNL     1     -37.079  26.554   4.704  0.00  0.00    -0.088 HD
ATOM     17  H2  UNL     1     -36.041  27.583   5.503  0.00  0.00    -0.088 HD
ATOM     18  H3  UNL     1     -36.635  26.233   6.276  0.00  0.00    -0.088 HD
ENDBRANCH  14  15
BRANCH  14  20
ATOM     19  OXT UNL     1     -33.123  26.387   6.045  0.00  0.00    -0.253 OA
ATOM     20  C   UNL     1     -33.923  26.644   5.152  0.00  0.00    +0.293 C 
BRANCH  20  21
ATOM     21  O   UNL     1     -33.741  27.660   4.272  0.00  0.00    -0.482 OA
ATOM     22  H   UNL     1     -34.092  28.509   4.457  0.00  0.00    +0.295 HD
ENDBRANCH  20  21
ENDBRANCH  14  20
ENDBRANCH  13  14
ENDBRANCH   1  13
TORSDOF 8
ENDMDL
