MODEL 1
REMARK VINA RESULT:      -5.6      0.000      0.000
REMARK  Name = 191502
REMARK  9 active torsions:
REMARK  status: ('A' for Active; 'I' for Inactive)
REMARK    1  A    between atoms: C_2  and  O_18
REMARK    2  A    between atoms: C_3  and  O_16
REMARK    3  A    between atoms: C_4  and  C_21
REMARK    4  A    between atoms: C_5  and  N_7
REMARK    5  A    between atoms: O_18  and  C_19
REMARK    6  A    between atoms: C_21  and  O_22
REMARK    7  A    between atoms: O_22  and  P_23
REMARK    8  A    between atoms: P_23  and  O_25
REMARK    9  A    between atoms: P_23  and  O_27
REMARK                            x       y       z     vdW  Elec       q    Type
REMARK                         _______ _______ _______ _____ _____    ______ ____
ROOT
ATOM      1  O   UNL     1     -36.637  24.004   4.730  0.00  0.00    -0.332 OA
ATOM      2  C   UNL     1     -34.778  25.017   3.666  0.00  0.00    +0.192 C 
ATOM      3  C   UNL     1     -35.607  26.098   4.328  0.00  0.00    +0.171 C 
ATOM      4  C   UNL     1     -36.945  25.399   4.522  0.00  0.00    +0.176 C 
ATOM      5  C   UNL     1     -35.263  23.767   4.379  0.00  0.00    +0.237 C 
ENDROOT
BRANCH   5   7
ATOM      6  O   UNL     1     -35.242  21.110   5.318  0.00  0.00    -0.193 OA
ATOM      7  N   UNL     1     -35.188  22.598   3.550  0.00  0.00    -0.178 N 
ATOM      8  N   UNL     1     -35.101  20.204   3.239  0.00  0.00    -0.306 NA
ATOM      9  N   UNL     1     -34.957  19.329   1.125  0.00  0.00    -0.332 N 
ATOM     10  C   UNL     1     -35.116  22.763   2.171  0.00  0.00    +0.083 C 
ATOM     11  C   UNL     1     -35.180  21.287   4.100  0.00  0.00    +0.276 C 
ATOM     12  C   UNL     1     -35.040  21.740   1.320  0.00  0.00    +0.065 C 
ATOM     13  C   UNL     1     -35.037  20.419   1.967  0.00  0.00    +0.193 C 
ATOM     14  H   UNL     1     -34.952  18.419   1.498  0.00  0.00    +0.145 HD
ATOM     15  H   UNL     1     -34.907  19.462   0.150  0.00  0.00    +0.145 HD
ENDBRANCH   5   7
BRANCH   3  16
ATOM     16  O   UNL     1     -35.079  26.406   5.618  0.00  0.00    -0.379 OA
ATOM     17  H   UNL     1     -35.806  26.462   6.258  0.00  0.00    +0.211 HD
ENDBRANCH   3  16
BRANCH   2  18
ATOM     18  O   UNL     1     -33.390  25.231   3.828  0.00  0.00    -0.349 OA
BRANCH  18  19
ATOM     19  C   UNL     1     -32.882  26.154   2.870  0.00  0.00    +0.142 C 
ATOM     20  C   UNL     1     -32.992  25.543   1.489  0.00  0.00    +0.035 C 
ENDBRANCH  18  19
ENDBRANCH   2  18
BRANCH   4  21
ATOM     21  C   UNL     1     -37.863  25.507   3.312  0.00  0.00    +0.186 C 
BRANCH  21  22
ATOM     22  O   UNL     1     -38.806  24.451   3.362  0.00  0.00    -0.271 OA
BRANCH  22  23
ATOM     23  P   UNL     1     -38.907  23.445   2.098  0.00  0.00    +0.473 P 
ATOM     24  O   UNL     1     -38.193  23.908   0.861  0.00  0.00    -0.227 OA
BRANCH  23  25
ATOM     25  O   UNL     1     -40.497  23.201   1.928  0.00  0.00    -0.303 OA
ATOM     26  H   UNL     1     -40.983  23.918   2.363  0.00  0.00    +0.222 HD
ENDBRANCH  23  25
BRANCH  23  27
ATOM     27  O   UNL     1     -38.380  22.044   2.707  0.00  0.00    -0.303 OA
ATOM     28  H   UNL     1     -37.507  21.840   2.339  0.00  0.00    +0.222 HD
ENDBRANCH  23  27
ENDBRANCH  22  23
ENDBRANCH  21  22
ENDBRANCH   4  21
TORSDOF 9
ENDMDL
MODEL 2
REMARK VINA RESULT:      -5.5      1.389      1.726
REMARK  Name = 191502
REMARK  9 active torsions:
REMARK  status: ('A' for Active; 'I' for Inactive)
REMARK    1  A    between atoms: C_2  and  O_18
REMARK    2  A    between atoms: C_3  and  O_16
REMARK    3  A    between atoms: C_4  and  C_21
REMARK    4  A    between atoms: C_5  and  N_7
REMARK    5  A    between atoms: O_18  and  C_19
REMARK    6  A    between atoms: C_21  and  O_22
REMARK    7  A    between atoms: O_22  and  P_23
REMARK    8  A    between atoms: P_23  and  O_25
REMARK    9  A    between atoms: P_23  and  O_27
REMARK                            x       y       z     vdW  Elec       q    Type
REMARK                         _______ _______ _______ _____ _____    ______ ____
ROOT
ATOM      1  O   UNL     1     -37.174  24.392   4.123  0.00  0.00    -0.332 OA
ATOM      2  C   UNL     1     -35.081  25.170   3.334  0.00  0.00    +0.192 C 
ATOM      3  C   UNL     1     -35.929  26.365   3.715  0.00  0.00    +0.171 C 
ATOM      4  C   UNL     1     -37.331  25.771   3.723  0.00  0.00    +0.176 C 
ATOM      5  C   UNL     1     -35.782  24.039   4.063  0.00  0.00    +0.237 C 
ENDROOT
BRANCH   5   7
ATOM      6  O   UNL     1     -35.216  21.575   5.309  0.00  0.00    -0.193 OA
ATOM      7  N   UNL     1     -35.649  22.781   3.385  0.00  0.00    -0.178 N 
ATOM      8  N   UNL     1     -35.241  20.400   3.364  0.00  0.00    -0.306 NA
ATOM      9  N   UNL     1     -35.273  19.251   1.381  0.00  0.00    -0.332 N 
ATOM     10  C   UNL     1     -35.805  22.750   2.004  0.00  0.00    +0.083 C 
ATOM     11  C   UNL     1     -35.360  21.578   4.085  0.00  0.00    +0.276 C 
ATOM     12  C   UNL     1     -35.697  21.632   1.285  0.00  0.00    +0.065 C 
ATOM     13  C   UNL     1     -35.397  20.433   2.082  0.00  0.00    +0.193 C 
ATOM     14  H   UNL     1     -35.073  18.414   1.858  0.00  0.00    +0.145 HD
ATOM     15  H   UNL     1     -35.386  19.245   0.402  0.00  0.00    +0.145 HD
ENDBRANCH   5   7
BRANCH   3  16
ATOM     16  O   UNL     1     -35.622  26.786   5.043  0.00  0.00    -0.379 OA
ATOM     17  H   UNL     1     -36.422  27.139   5.463  0.00  0.00    +0.211 HD
ENDBRANCH   3  16
BRANCH   2  18
ATOM     18  O   UNL     1     -33.733  25.321   3.731  0.00  0.00    -0.349 OA
BRANCH  18  19
ATOM     19  C   UNL     1     -32.937  25.895   2.700  0.00  0.00    +0.142 C 
ATOM     20  C   UNL     1     -33.288  25.238   1.382  0.00  0.00    +0.035 C 
ENDBRANCH  18  19
ENDBRANCH   2  18
BRANCH   4  21
ATOM     21  C   UNL     1     -38.003  25.795   2.357  0.00  0.00    +0.186 C 
BRANCH  21  22
ATOM     22  O   UNL     1     -39.153  26.619   2.430  0.00  0.00    -0.271 OA
BRANCH  22  23
ATOM     23  P   UNL     1     -40.537  25.968   2.958  0.00  0.00    +0.473 P 
ATOM     24  O   UNL     1     -41.474  25.509   1.879  0.00  0.00    -0.227 OA
BRANCH  23  25
ATOM     25  O   UNL     1     -41.133  27.091   3.958  0.00  0.00    -0.303 OA
ATOM     26  H   UNL     1     -42.087  26.955   4.066  0.00  0.00    +0.222 HD
ENDBRANCH  23  25
BRANCH  23  27
ATOM     27  O   UNL     1     -40.032  24.807   3.963  0.00  0.00    -0.303 OA
ATOM     28  H   UNL     1     -40.703  24.109   4.014  0.00  0.00    +0.222 HD
ENDBRANCH  23  27
ENDBRANCH  22  23
ENDBRANCH  21  22
ENDBRANCH   4  21
TORSDOF 9
ENDMDL
MODEL 3
REMARK VINA RESULT:      -5.5      1.465      2.019
REMARK  Name = 191502
REMARK  9 active torsions:
REMARK  status: ('A' for Active; 'I' for Inactive)
REMARK    1  A    between atoms: C_2  and  O_18
REMARK    2  A    between atoms: C_3  and  O_16
REMARK    3  A    between atoms: C_4  and  C_21
REMARK    4  A    between atoms: C_5  and  N_7
REMARK    5  A    between atoms: O_18  and  C_19
REMARK    6  A    between atoms: C_21  and  O_22
REMARK    7  A    between atoms: O_22  and  P_23
REMARK    8  A    between atoms: P_23  and  O_25
REMARK    9  A    between atoms: P_23  and  O_27
REMARK                            x       y       z     vdW  Elec       q    Type
REMARK                         _______ _______ _______ _____ _____    ______ ____
ROOT
ATOM      1  O   UNL     1     -37.784  23.380   3.733  0.00  0.00    -0.332 OA
ATOM      2  C   UNL     1     -36.155  24.804   2.768  0.00  0.00    +0.192 C 
ATOM      3  C   UNL     1     -37.375  25.630   3.117  0.00  0.00    +0.171 C 
ATOM      4  C   UNL     1     -38.454  24.564   3.250  0.00  0.00    +0.176 C 
ATOM      5  C   UNL     1     -36.363  23.560   3.614  0.00  0.00    +0.237 C 
ENDROOT
BRANCH   5   7
ATOM      6  O   UNL     1     -35.523  21.266   5.020  0.00  0.00    -0.193 OA
ATOM      7  N   UNL     1     -35.792  22.387   3.016  0.00  0.00    -0.178 N 
ATOM      8  N   UNL     1     -34.842  20.170   3.150  0.00  0.00    -0.306 NA
ATOM      9  N   UNL     1     -34.166  19.097   1.240  0.00  0.00    -0.332 N 
ATOM     10  C   UNL     1     -35.628  22.356   1.636  0.00  0.00    +0.083 C 
ATOM     11  C   UNL     1     -35.390  21.267   3.795  0.00  0.00    +0.276 C 
ATOM     12  C   UNL     1     -35.105  21.314   0.989  0.00  0.00    +0.065 C 
ATOM     13  C   UNL     1     -34.715  20.198   1.865  0.00  0.00    +0.193 C 
ATOM     14  H   UNL     1     -33.886  18.318   1.773  0.00  0.00    +0.145 HD
ATOM     15  H   UNL     1     -34.056  19.090   0.262  0.00  0.00    +0.145 HD
ENDBRANCH   5   7
BRANCH   3  16
ATOM     16  O   UNL     1     -37.206  26.246   4.393  0.00  0.00    -0.379 OA
ATOM     17  H   UNL     1     -38.037  26.669   4.660  0.00  0.00    +0.211 HD
ENDBRANCH   3  16
BRANCH   2  18
ATOM     18  O   UNL     1     -34.948  25.473   3.072  0.00  0.00    -0.349 OA
BRANCH  18  19
ATOM     19  C   UNL     1     -34.276  24.877   4.177  0.00  0.00    +0.142 C 
ATOM     20  C   UNL     1     -33.921  25.955   5.179  0.00  0.00    +0.035 C 
ENDBRANCH  18  19
ENDBRANCH   2  18
BRANCH   4  21
ATOM     21  C   UNL     1     -39.128  24.222   1.928  0.00  0.00    +0.186 C 
BRANCH  21  22
ATOM     22  O   UNL     1     -39.997  23.121   2.134  0.00  0.00    -0.271 OA
BRANCH  22  23
ATOM     23  P   UNL     1     -39.693  21.739   1.348  0.00  0.00    +0.473 P 
ATOM     24  O   UNL     1     -40.910  20.978   0.909  0.00  0.00    -0.227 OA
BRANCH  23  25
ATOM     25  O   UNL     1     -38.701  20.941   2.346  0.00  0.00    -0.303 OA
ATOM     26  H   UNL     1     -38.467  20.087   1.953  0.00  0.00    +0.222 HD
ENDBRANCH  23  25
BRANCH  23  27
ATOM     27  O   UNL     1     -38.714  22.211   0.151  0.00  0.00    -0.303 OA
ATOM     28  H   UNL     1     -38.682  21.522  -0.530  0.00  0.00    +0.222 HD
ENDBRANCH  23  27
ENDBRANCH  22  23
ENDBRANCH  21  22
ENDBRANCH   4  21
TORSDOF 9
ENDMDL
MODEL 4
REMARK VINA RESULT:      -5.5      2.580      5.053
REMARK  Name = 191502
REMARK  9 active torsions:
REMARK  status: ('A' for Active; 'I' for Inactive)
REMARK    1  A    between atoms: C_2  and  O_18
REMARK    2  A    between atoms: C_3  and  O_16
REMARK    3  A    between atoms: C_4  and  C_21
REMARK    4  A    between atoms: C_5  and  N_7
REMARK    5  A    between atoms: O_18  and  C_19
REMARK    6  A    between atoms: C_21  and  O_22
REMARK    7  A    between atoms: O_22  and  P_23
REMARK    8  A    between atoms: P_23  and  O_25
REMARK    9  A    between atoms: P_23  and  O_27
REMARK                            x       y       z     vdW  Elec       q    Type
REMARK                         _______ _______ _______ _____ _____    ______ ____
ROOT
ATOM      1  O   UNL     1     -36.491  23.359   4.906  0.00  0.00    -0.332 OA
ATOM      2  C   UNL     1     -35.335  21.698   3.674  0.00  0.00    +0.192 C 
ATOM      3  C   UNL     1     -34.905  21.613   5.123  0.00  0.00    +0.171 C 
ATOM      4  C   UNL     1     -35.320  22.977   5.659  0.00  0.00    +0.176 C 
ATOM      5  C   UNL     1     -36.631  22.484   3.774  0.00  0.00    +0.237 C 
ENDROOT
BRANCH   5   7
ATOM      6  O   UNL     1     -39.007  22.419   2.259  0.00  0.00    -0.193 OA
ATOM      7  N   UNL     1     -36.887  23.273   2.603  0.00  0.00    -0.178 N 
ATOM      8  N   UNL     1     -38.289  23.972   0.764  0.00  0.00    -0.306 NA
ATOM      9  N   UNL     1     -37.529  25.542  -0.723  0.00  0.00    -0.332 N 
ATOM     10  C   UNL     1     -35.899  24.145   2.159  0.00  0.00    +0.083 C 
ATOM     11  C   UNL     1     -38.113  23.183   1.890  0.00  0.00    +0.276 C 
ATOM     12  C   UNL     1     -36.041  24.917   1.081  0.00  0.00    +0.065 C 
ATOM     13  C   UNL     1     -37.336  24.764   0.400  0.00  0.00    +0.193 C 
ATOM     14  H   UNL     1     -38.375  25.485  -1.222  0.00  0.00    +0.145 HD
ATOM     15  H   UNL     1     -36.819  26.154  -1.025  0.00  0.00    +0.145 HD
ENDBRANCH   5   7
BRANCH   3  16
ATOM     16  O   UNL     1     -35.669  20.621   5.808  0.00  0.00    -0.379 OA
ATOM     17  H   UNL     1     -36.577  20.621   5.467  0.00  0.00    +0.211 HD
ENDBRANCH   3  16
BRANCH   2  18
ATOM     18  O   UNL     1     -35.516  20.423   3.092  0.00  0.00    -0.349 OA
BRANCH  18  19
ATOM     19  C   UNL     1     -35.068  20.389   1.741  0.00  0.00    +0.142 C 
ATOM     20  C   UNL     1     -33.940  19.386   1.621  0.00  0.00    +0.035 C 
ENDBRANCH  18  19
ENDBRANCH   2  18
BRANCH   4  21
ATOM     21  C   UNL     1     -34.258  24.050   5.460  0.00  0.00    +0.186 C 
BRANCH  21  22
ATOM     22  O   UNL     1     -34.899  25.310   5.363  0.00  0.00    -0.271 OA
BRANCH  22  23
ATOM     23  P   UNL     1     -34.051  26.565   4.792  0.00  0.00    +0.473 P 
ATOM     24  O   UNL     1     -33.269  27.324   5.824  0.00  0.00    -0.227 OA
BRANCH  23  25
ATOM     25  O   UNL     1     -35.149  27.433   3.982  0.00  0.00    -0.303 OA
ATOM     26  H   UNL     1     -35.782  27.819   4.606  0.00  0.00    +0.222 HD
ENDBRANCH  23  25
BRANCH  23  27
ATOM     27  O   UNL     1     -33.164  25.899   3.616  0.00  0.00    -0.303 OA
ATOM     28  H   UNL     1     -33.446  24.981   3.479  0.00  0.00    +0.222 HD
ENDBRANCH  23  27
ENDBRANCH  22  23
ENDBRANCH  21  22
ENDBRANCH   4  21
TORSDOF 9
ENDMDL
MODEL 5
REMARK VINA RESULT:      -5.4      3.392      6.121
REMARK  Name = 191502
REMARK  9 active torsions:
REMARK  status: ('A' for Active; 'I' for Inactive)
REMARK    1  A    between atoms: C_2  and  O_18
REMARK    2  A    between atoms: C_3  and  O_16
REMARK    3  A    between atoms: C_4  and  C_21
REMARK    4  A    between atoms: C_5  and  N_7
REMARK    5  A    between atoms: O_18  and  C_19
REMARK    6  A    between atoms: C_21  and  O_22
REMARK    7  A    between atoms: O_22  and  P_23
REMARK    8  A    between atoms: P_23  and  O_25
REMARK    9  A    between atoms: P_23  and  O_27
REMARK                            x       y       z     vdW  Elec       q    Type
REMARK                         _______ _______ _______ _____ _____    ______ ____
ROOT
ATOM      1  O   UNL     1     -36.184  25.791   5.356  0.00  0.00    -0.332 OA
ATOM      2  C   UNL     1     -35.589  23.948   3.990  0.00  0.00    +0.192 C 
ATOM      3  C   UNL     1     -34.713  23.938   5.224  0.00  0.00    +0.171 C 
ATOM      4  C   UNL     1     -34.853  25.370   5.726  0.00  0.00    +0.176 C 
ATOM      5  C   UNL     1     -36.735  24.846   4.422  0.00  0.00    +0.237 C 
ENDROOT
BRANCH   5   7
ATOM      6  O   UNL     1     -39.462  24.794   3.712  0.00  0.00    -0.193 OA
ATOM      7  N   UNL     1     -37.317  25.562   3.323  0.00  0.00    -0.178 N 
ATOM      8  N   UNL     1     -39.197  26.199   1.946  0.00  0.00    -0.306 NA
ATOM      9  N   UNL     1     -38.889  27.618   0.173  0.00  0.00    -0.332 N 
ATOM     10  C   UNL     1     -36.490  26.350   2.529  0.00  0.00    +0.083 C 
ATOM     11  C   UNL     1     -38.705  25.483   3.026  0.00  0.00    +0.276 C 
ATOM     12  C   UNL     1     -36.936  27.048   1.485  0.00  0.00    +0.065 C 
ATOM     13  C   UNL     1     -38.381  26.914   1.245  0.00  0.00    +0.193 C 
ATOM     14  H   UNL     1     -39.849  27.568  -0.039  0.00  0.00    +0.145 HD
ATOM     15  H   UNL     1     -38.291  28.171  -0.381  0.00  0.00    +0.145 HD
ENDBRANCH   5   7
BRANCH   3  16
ATOM     16  O   UNL     1     -35.263  23.070   6.214  0.00  0.00    -0.379 OA
ATOM     17  H   UNL     1     -35.272  22.161   5.877  0.00  0.00    +0.211 HD
ENDBRANCH   3  16
BRANCH   2  18
ATOM     18  O   UNL     1     -36.021  22.652   3.628  0.00  0.00    -0.349 OA
BRANCH  18  19
ATOM     19  C   UNL     1     -35.391  22.197   2.435  0.00  0.00    +0.142 C 
ATOM     20  C   UNL     1     -35.313  20.686   2.464  0.00  0.00    +0.035 C 
ENDBRANCH  18  19
ENDBRANCH   2  18
BRANCH   4  21
ATOM     21  C   UNL     1     -33.858  26.330   5.090  0.00  0.00    +0.186 C 
BRANCH  21  22
ATOM     22  O   UNL     1     -33.284  27.131   6.109  0.00  0.00    -0.271 OA
BRANCH  22  23
ATOM     23  P   UNL     1     -32.045  28.099   5.725  0.00  0.00    +0.473 P 
ATOM     24  O   UNL     1     -32.338  29.569   5.814  0.00  0.00    -0.227 OA
BRANCH  23  25
ATOM     25  O   UNL     1     -31.584  27.573   4.267  0.00  0.00    -0.303 OA
ATOM     26  H   UNL     1     -32.360  27.272   3.771  0.00  0.00    +0.222 HD
ENDBRANCH  23  25
BRANCH  23  27
ATOM     27  O   UNL     1     -30.864  27.578   6.698  0.00  0.00    -0.303 OA
ATOM     28  H   UNL     1     -30.865  28.099   7.516  0.00  0.00    +0.222 HD
ENDBRANCH  23  27
ENDBRANCH  22  23
ENDBRANCH  21  22
ENDBRANCH   4  21
TORSDOF 9
ENDMDL
MODEL 6
REMARK VINA RESULT:      -5.4      3.262      5.805
REMARK  Name = 191502
REMARK  9 active torsions:
REMARK  status: ('A' for Active; 'I' for Inactive)
REMARK    1  A    between atoms: C_2  and  O_18
REMARK    2  A    between atoms: C_3  and  O_16
REMARK    3  A    between atoms: C_4  and  C_21
REMARK    4  A    between atoms: C_5  and  N_7
REMARK    5  A    between atoms: O_18  and  C_19
REMARK    6  A    between atoms: C_21  and  O_22
REMARK    7  A    between atoms: O_22  and  P_23
REMARK    8  A    between atoms: P_23  and  O_25
REMARK    9  A    between atoms: P_23  and  O_27
REMARK                            x       y       z     vdW  Elec       q    Type
REMARK                         _______ _______ _______ _____ _____    ______ ____
ROOT
ATOM      1  O   UNL     1     -32.979  25.866   2.851  0.00  0.00    -0.332 OA
ATOM      2  C   UNL     1     -35.179  26.448   2.194  0.00  0.00    +0.192 C 
ATOM      3  C   UNL     1     -34.241  27.562   1.783  0.00  0.00    +0.171 C 
ATOM      4  C   UNL     1     -33.027  27.297   2.663  0.00  0.00    +0.176 C 
ATOM      5  C   UNL     1     -34.221  25.290   2.412  0.00  0.00    +0.237 C 
ENDROOT
BRANCH   5   7
ATOM      6  O   UNL     1     -35.265  22.725   1.891  0.00  0.00    -0.193 OA
ATOM      7  N   UNL     1     -34.687  24.370   3.409  0.00  0.00    -0.178 N 
ATOM      8  N   UNL     1     -35.640  22.255   4.083  0.00  0.00    -0.306 NA
ATOM      9  N   UNL     1     -36.005  21.819   6.303  0.00  0.00    -0.332 N 
ATOM     10  C   UNL     1     -34.632  24.752   4.745  0.00  0.00    +0.083 C 
ATOM     11  C   UNL     1     -35.204  23.090   3.067  0.00  0.00    +0.276 C 
ATOM     12  C   UNL     1     -35.044  23.968   5.742  0.00  0.00    +0.065 C 
ATOM     13  C   UNL     1     -35.564  22.663   5.305  0.00  0.00    +0.193 C 
ATOM     14  H   UNL     1     -36.363  20.932   6.074  0.00  0.00    +0.145 HD
ATOM     15  H   UNL     1     -35.960  22.104   7.245  0.00  0.00    +0.145 HD
ENDBRANCH   5   7
BRANCH   3  16
ATOM     16  O   UNL     1     -33.842  27.396   0.422  0.00  0.00    -0.379 OA
ATOM     17  H   UNL     1     -34.004  28.219  -0.064  0.00  0.00    +0.211 HD
ENDBRANCH   3  16
BRANCH   2  18
ATOM     18  O   UNL     1     -36.150  26.171   1.205  0.00  0.00    -0.349 OA
BRANCH  18  19
ATOM     19  C   UNL     1     -37.439  26.644   1.581  0.00  0.00    +0.142 C 
ATOM     20  C   UNL     1     -37.890  25.911   2.826  0.00  0.00    +0.035 C 
ENDBRANCH  18  19
ENDBRANCH   2  18
BRANCH   4  21
ATOM     21  C   UNL     1     -33.122  27.953   4.034  0.00  0.00    +0.186 C 
BRANCH  21  22
ATOM     22  O   UNL     1     -32.078  27.452   4.850  0.00  0.00    -0.271 OA
BRANCH  22  23
ATOM     23  P   UNL     1     -31.808  28.161   6.280  0.00  0.00    +0.473 P 
ATOM     24  O   UNL     1     -32.115  29.630   6.327  0.00  0.00    -0.227 OA
BRANCH  23  25
ATOM     25  O   UNL     1     -30.277  27.764   6.622  0.00  0.00    -0.303 OA
ATOM     26  H   UNL     1     -30.132  26.828   6.417  0.00  0.00    +0.222 HD
ENDBRANCH  23  25
BRANCH  23  27
ATOM     27  O   UNL     1     -32.665  27.250   7.304  0.00  0.00    -0.303 OA
ATOM     28  H   UNL     1     -33.585  27.204   7.003  0.00  0.00    +0.222 HD
ENDBRANCH  23  27
ENDBRANCH  22  23
ENDBRANCH  21  22
ENDBRANCH   4  21
TORSDOF 9
ENDMDL
MODEL 7
REMARK VINA RESULT:      -5.4      2.653      4.944
REMARK  Name = 191502
REMARK  9 active torsions:
REMARK  status: ('A' for Active; 'I' for Inactive)
REMARK    1  A    between atoms: C_2  and  O_18
REMARK    2  A    between atoms: C_3  and  O_16
REMARK    3  A    between atoms: C_4  and  C_21
REMARK    4  A    between atoms: C_5  and  N_7
REMARK    5  A    between atoms: O_18  and  C_19
REMARK    6  A    between atoms: C_21  and  O_22
REMARK    7  A    between atoms: O_22  and  P_23
REMARK    8  A    between atoms: P_23  and  O_25
REMARK    9  A    between atoms: P_23  and  O_27
REMARK                            x       y       z     vdW  Elec       q    Type
REMARK                         _______ _______ _______ _____ _____    ______ ____
ROOT
ATOM      1  O   UNL     1     -35.847  25.831   2.768  0.00  0.00    -0.332 OA
ATOM      2  C   UNL     1     -35.530  24.390   4.622  0.00  0.00    +0.192 C 
ATOM      3  C   UNL     1     -35.406  25.822   5.096  0.00  0.00    +0.171 C 
ATOM      4  C   UNL     1     -35.144  26.567   3.793  0.00  0.00    +0.176 C 
ATOM      5  C   UNL     1     -36.252  24.556   3.296  0.00  0.00    +0.237 C 
ENDROOT
BRANCH   5   7
ATOM      6  O   UNL     1     -37.822  22.286   2.728  0.00  0.00    -0.193 OA
ATOM      7  N   UNL     1     -35.911  23.530   2.352  0.00  0.00    -0.178 N 
ATOM      8  N   UNL     1     -36.361  21.457   1.198  0.00  0.00    -0.306 NA
ATOM      9  N   UNL     1     -34.861  20.653  -0.338  0.00  0.00    -0.332 N 
ATOM     10  C   UNL     1     -34.715  23.642   1.652  0.00  0.00    +0.083 C 
ATOM     11  C   UNL     1     -36.756  22.411   2.122  0.00  0.00    +0.276 C 
ATOM     12  C   UNL     1     -34.310  22.739   0.758  0.00  0.00    +0.065 C 
ATOM     13  C   UNL     1     -35.239  21.614   0.577  0.00  0.00    +0.193 C 
ATOM     14  H   UNL     1     -35.441  19.875  -0.503  0.00  0.00    +0.145 HD
ATOM     15  H   UNL     1     -34.011  20.745  -0.826  0.00  0.00    +0.145 HD
ENDBRANCH   5   7
BRANCH   3  16
ATOM     16  O   UNL     1     -36.652  26.280   5.621  0.00  0.00    -0.379 OA
ATOM     17  H   UNL     1     -36.488  26.861   6.379  0.00  0.00    +0.211 HD
ENDBRANCH   3  16
BRANCH   2  18
ATOM     18  O   UNL     1     -36.248  23.584   5.534  0.00  0.00    -0.349 OA
BRANCH  18  19
ATOM     19  C   UNL     1     -35.391  22.700   6.250  0.00  0.00    +0.142 C 
ATOM     20  C   UNL     1     -35.107  21.485   5.392  0.00  0.00    +0.035 C 
ENDBRANCH  18  19
ENDBRANCH   2  18
BRANCH   4  21
ATOM     21  C   UNL     1     -33.671  26.618   3.414  0.00  0.00    +0.186 C 
BRANCH  21  22
ATOM     22  O   UNL     1     -32.900  26.702   4.600  0.00  0.00    -0.271 OA
BRANCH  22  23
ATOM     23  P   UNL     1     -32.286  28.138   5.023  0.00  0.00    +0.473 P 
ATOM     24  O   UNL     1     -32.938  29.323   4.371  0.00  0.00    -0.227 OA
BRANCH  23  25
ATOM     25  O   UNL     1     -30.702  27.978   4.737  0.00  0.00    -0.303 OA
ATOM     26  H   UNL     1     -30.210  28.614   5.277  0.00  0.00    +0.222 HD
ENDBRANCH  23  25
BRANCH  23  27
ATOM     27  O   UNL     1     -32.376  28.111   6.636  0.00  0.00    -0.303 OA
ATOM     28  H   UNL     1     -33.220  28.494   6.920  0.00  0.00    +0.222 HD
ENDBRANCH  23  27
ENDBRANCH  22  23
ENDBRANCH  21  22
ENDBRANCH   4  21
TORSDOF 9
ENDMDL
MODEL 8
REMARK VINA RESULT:      -5.3      2.637      4.967
REMARK  Name = 191502
REMARK  9 active torsions:
REMARK  status: ('A' for Active; 'I' for Inactive)
REMARK    1  A    between atoms: C_2  and  O_18
REMARK    2  A    between atoms: C_3  and  O_16
REMARK    3  A    between atoms: C_4  and  C_21
REMARK    4  A    between atoms: C_5  and  N_7
REMARK    5  A    between atoms: O_18  and  C_19
REMARK    6  A    between atoms: C_21  and  O_22
REMARK    7  A    between atoms: O_22  and  P_23
REMARK    8  A    between atoms: P_23  and  O_25
REMARK    9  A    between atoms: P_23  and  O_27
REMARK                            x       y       z     vdW  Elec       q    Type
REMARK                         _______ _______ _______ _____ _____    ______ ____
ROOT
ATOM      1  O   UNL     1     -36.337  24.839   2.332  0.00  0.00    -0.332 OA
ATOM      2  C   UNL     1     -35.916  23.086   3.868  0.00  0.00    +0.192 C 
ATOM      3  C   UNL     1     -37.138  22.729   3.048  0.00  0.00    +0.171 C 
ATOM      4  C   UNL     1     -37.557  24.084   2.494  0.00  0.00    +0.176 C 
ATOM      5  C   UNL     1     -35.269  24.164   3.018  0.00  0.00    +0.237 C 
ENDROOT
BRANCH   5   7
ATOM      6  O   UNL     1     -33.032  25.630   2.126  0.00  0.00    -0.193 OA
ATOM      7  N   UNL     1     -34.540  25.120   3.802  0.00  0.00    -0.178 N 
ATOM      8  N   UNL     1     -32.760  26.725   4.098  0.00  0.00    -0.306 NA
ATOM      9  N   UNL     1     -32.517  27.808   6.104  0.00  0.00    -0.332 N 
ATOM     10  C   UNL     1     -34.950  25.357   5.110  0.00  0.00    +0.083 C 
ATOM     11  C   UNL     1     -33.418  25.820   3.281  0.00  0.00    +0.276 C 
ATOM     12  C   UNL     1     -34.336  26.222   5.918  0.00  0.00    +0.065 C 
ATOM     13  C   UNL     1     -33.186  26.905   5.304  0.00  0.00    +0.193 C 
ATOM     14  H   UNL     1     -31.740  28.297   5.750  0.00  0.00    +0.145 HD
ATOM     15  H   UNL     1     -32.819  27.966   7.028  0.00  0.00    +0.145 HD
ENDBRANCH   5   7
BRANCH   3  16
ATOM     16  O   UNL     1     -36.770  21.898   1.948  0.00  0.00    -0.379 OA
ATOM     17  H   UNL     1     -37.490  21.276   1.758  0.00  0.00    +0.211 HD
ENDBRANCH   3  16
BRANCH   2  18
ATOM     18  O   UNL     1     -35.067  21.975   4.076  0.00  0.00    -0.349 OA
BRANCH  18  19
ATOM     19  C   UNL     1     -35.379  21.289   5.285  0.00  0.00    +0.142 C 
ATOM     20  C   UNL     1     -35.301  22.264   6.440  0.00  0.00    +0.035 C 
ENDBRANCH  18  19
ENDBRANCH   2  18
BRANCH   4  21
ATOM     21  C   UNL     1     -38.474  24.860   3.430  0.00  0.00    +0.186 C 
BRANCH  21  22
ATOM     22  O   UNL     1     -39.815  24.660   3.019  0.00  0.00    -0.271 OA
BRANCH  22  23
ATOM     23  P   UNL     1     -40.685  25.948   2.569  0.00  0.00    +0.473 P 
ATOM     24  O   UNL     1     -41.985  25.630   1.890  0.00  0.00    -0.227 OA
BRANCH  23  25
ATOM     25  O   UNL     1     -39.646  26.827   1.694  0.00  0.00    -0.303 OA
ATOM     26  H   UNL     1     -39.985  27.730   1.600  0.00  0.00    +0.222 HD
ENDBRANCH  23  25
BRANCH  23  27
ATOM     27  O   UNL     1     -40.820  26.792   3.941  0.00  0.00    -0.303 OA
ATOM     28  H   UNL     1     -40.436  26.285   4.672  0.00  0.00    +0.222 HD
ENDBRANCH  23  27
ENDBRANCH  22  23
ENDBRANCH  21  22
ENDBRANCH   4  21
TORSDOF 9
ENDMDL
MODEL 9
REMARK VINA RESULT:      -5.2      3.258      5.483
REMARK  Name = 191502
REMARK  9 active torsions:
REMARK  status: ('A' for Active; 'I' for Inactive)
REMARK    1  A    between atoms: C_2  and  O_18
REMARK    2  A    between atoms: C_3  and  O_16
REMARK    3  A    between atoms: C_4  and  C_21
REMARK    4  A    between atoms: C_5  and  N_7
REMARK    5  A    between atoms: O_18  and  C_19
REMARK    6  A    between atoms: C_21  and  O_22
REMARK    7  A    between atoms: O_22  and  P_23
REMARK    8  A    between atoms: P_23  and  O_25
REMARK    9  A    between atoms: P_23  and  O_27
REMARK                            x       y       z     vdW  Elec       q    Type
REMARK                         _______ _______ _______ _____ _____    ______ ____
ROOT
ATOM      1  O   UNL     1     -37.085  23.299   3.687  0.00  0.00    -0.332 OA
ATOM      2  C   UNL     1     -36.558  21.641   2.080  0.00  0.00    +0.192 C 
ATOM      3  C   UNL     1     -35.411  21.745   3.062  0.00  0.00    +0.171 C 
ATOM      4  C   UNL     1     -35.653  23.111   3.691  0.00  0.00    +0.176 C 
ATOM      5  C   UNL     1     -37.690  22.304   2.844  0.00  0.00    +0.237 C 
ENDROOT
BRANCH   5   7
ATOM      6  O   UNL     1     -40.184  21.227   2.095  0.00  0.00    -0.193 OA
ATOM      7  N   UNL     1     -38.639  22.942   1.977  0.00  0.00    -0.178 N 
ATOM      8  N   UNL     1     -40.746  23.004   0.797  0.00  0.00    -0.306 NA
ATOM      9  N   UNL     1     -41.275  24.815  -0.504  0.00  0.00    -0.332 N 
ATOM     10  C   UNL     1     -38.326  24.190   1.451  0.00  0.00    +0.083 C 
ATOM     11  C   UNL     1     -39.879  22.332   1.644  0.00  0.00    +0.276 C 
ATOM     12  C   UNL     1     -39.140  24.859   0.634  0.00  0.00    +0.065 C 
ATOM     13  C   UNL     1     -40.401  24.162   0.339  0.00  0.00    +0.193 C 
ATOM     14  H   UNL     1     -42.136  24.400  -0.740  0.00  0.00    +0.145 HD
ATOM     15  H   UNL     1     -41.039  25.699  -0.870  0.00  0.00    +0.145 HD
ENDBRANCH   5   7
BRANCH   3  16
ATOM     16  O   UNL     1     -35.544  20.759   4.085  0.00  0.00    -0.379 OA
ATOM     17  H   UNL     1     -36.162  21.077   4.761  0.00  0.00    +0.211 HD
ENDBRANCH   3  16
BRANCH   2  18
ATOM     18  O   UNL     1     -36.848  20.301   1.734  0.00  0.00    -0.349 OA
BRANCH  18  19
ATOM     19  C   UNL     1     -36.408  19.987   0.417  0.00  0.00    +0.142 C 
ATOM     20  C   UNL     1     -37.205  20.805  -0.578  0.00  0.00    +0.035 C 
ENDBRANCH  18  19
ENDBRANCH   2  18
BRANCH   4  21
ATOM     21  C   UNL     1     -35.022  24.254   2.910  0.00  0.00    +0.186 C 
BRANCH  21  22
ATOM     22  O   UNL     1     -35.694  25.457   3.242  0.00  0.00    -0.271 OA
BRANCH  22  23
ATOM     23  P   UNL     1     -35.108  26.360   4.450  0.00  0.00    +0.473 P 
ATOM     24  O   UNL     1     -33.803  25.886   5.022  0.00  0.00    -0.227 OA
BRANCH  23  25
ATOM     25  O   UNL     1     -36.334  26.439   5.501  0.00  0.00    -0.303 OA
ATOM     26  H   UNL     1     -36.236  27.229   6.055  0.00  0.00    +0.222 HD
ENDBRANCH  23  25
BRANCH  23  27
ATOM     27  O   UNL     1     -35.073  27.844   3.809  0.00  0.00    -0.303 OA
ATOM     28  H   UNL     1     -34.924  27.780   2.854  0.00  0.00    +0.222 HD
ENDBRANCH  23  27
ENDBRANCH  22  23
ENDBRANCH  21  22
ENDBRANCH   4  21
TORSDOF 9
ENDMDL
