MODEL 1
REMARK VINA RESULT:      -5.5      0.000      0.000
REMARK  Name = 193658
REMARK  9 active torsions:
REMARK  status: ('A' for Active; 'I' for Inactive)
REMARK    1  A    between atoms: S_1  and  C_3
REMARK    2  A    between atoms: S_1  and  C_12
REMARK    3  A    between atoms: C_3  and  O_4
REMARK    4  A    between atoms: O_4  and  C_5
REMARK    5  A    between atoms: C_5  and  C_6
REMARK    6  A    between atoms: C_12  and  C_13
REMARK    7  A    between atoms: C_13  and  N_14
REMARK    8  A    between atoms: C_13  and  C_19
REMARK    9  A    between atoms: C_19  and  O_20
REMARK                            x       y       z     vdW  Elec       q    Type
REMARK                         _______ _______ _______ _____ _____    ______ ____
ROOT
ATOM      1  S   UNK     1     -36.417  22.632   2.462  0.00  0.00    -0.035 S 
ENDROOT
BRANCH   1   3
ATOM      2  O   UNK     1     -35.297  20.968   4.170  0.00  0.00    -0.237 OA
ATOM      3  C   UNK     1     -35.594  21.163   2.998  0.00  0.00    +0.370 C 
BRANCH   3   4
ATOM      4  O   UNK     1     -35.331  20.290   1.979  0.00  0.00    -0.436 OA
BRANCH   4   5
ATOM      5  C   UNK     1     -34.527  20.802   0.910  0.00  0.00    +0.236 C 
BRANCH   5   6
ATOM      6  C   UNK     1     -33.282  19.973   0.791  0.00  0.00    +0.021 C 
ATOM      7  C   UNK     1     -32.204  20.454   0.057  0.00  0.00    -0.001 C 
ATOM      8  C   UNK     1     -33.218  18.733   1.416  0.00  0.00    -0.001 C 
ATOM      9  C   UNK     1     -31.046  19.683  -0.053  0.00  0.00    -0.000 C 
ATOM     10  C   UNK     1     -32.060  17.963   1.307  0.00  0.00    -0.000 C 
ATOM     11  C   UNK     1     -30.974  18.437   0.571  0.00  0.00    -0.000 C 
ENDBRANCH   5   6
ENDBRANCH   4   5
ENDBRANCH   3   4
ENDBRANCH   1   3
BRANCH   1  12
ATOM     12  C   UNK     1     -35.506  23.880   3.429  0.00  0.00    +0.057 C 
BRANCH  12  13
ATOM     13  C   UNK     1     -36.309  24.365   4.637  0.00  0.00    +0.047 C 
BRANCH  13  14
ATOM     14  N   UNK     1     -37.651  24.768   4.215  0.00  0.00    +0.389 N 
ATOM     15  H   UNK     1     -38.345  24.181   4.678  0.00  0.00    -0.088 HD
ATOM     16  H   UNK     1     -37.737  24.663   3.204  0.00  0.00    -0.088 HD
ATOM     17  H   UNK     1     -37.809  25.744   4.469  0.00  0.00    -0.088 HD
ENDBRANCH  13  14
BRANCH  13  19
ATOM     18  O   UNK     1     -34.520  25.548   5.757  0.00  0.00    -0.253 OA
ATOM     19  C   UNK     1     -35.664  25.559   5.314  0.00  0.00    +0.294 C 
BRANCH  19  20
ATOM     20  O   UNK     1     -36.481  26.637   5.418  0.00  0.00    -0.482 OA
ATOM     21  H   UNK     1     -36.117  27.488   5.565  0.00  0.00    +0.295 HD
ENDBRANCH  19  20
ENDBRANCH  13  19
ENDBRANCH  12  13
ENDBRANCH   1  12
TORSDOF 9
ENDMDL
MODEL 2
REMARK VINA RESULT:      -5.3      1.099      1.614
REMARK  Name = 193658
REMARK  9 active torsions:
REMARK  status: ('A' for Active; 'I' for Inactive)
REMARK    1  A    between atoms: S_1  and  C_3
REMARK    2  A    between atoms: S_1  and  C_12
REMARK    3  A    between atoms: C_3  and  O_4
REMARK    4  A    between atoms: O_4  and  C_5
REMARK    5  A    between atoms: C_5  and  C_6
REMARK    6  A    between atoms: C_12  and  C_13
REMARK    7  A    between atoms: C_13  and  N_14
REMARK    8  A    between atoms: C_13  and  C_19
REMARK    9  A    between atoms: C_19  and  O_20
REMARK                            x       y       z     vdW  Elec       q    Type
REMARK                         _______ _______ _______ _____ _____    ______ ____
ROOT
ATOM      1  S   UNK     1     -36.052  22.373   2.422  0.00  0.00    -0.035 S 
ENDROOT
BRANCH   1   3
ATOM      2  O   UNK     1     -35.302  21.099   4.602  0.00  0.00    -0.237 OA
ATOM      3  C   UNK     1     -35.370  21.054   3.380  0.00  0.00    +0.370 C 
BRANCH   3   4
ATOM      4  O   UNK     1     -34.935  20.004   2.620  0.00  0.00    -0.436 OA
BRANCH   4   5
ATOM      5  C   UNK     1     -34.616  20.309   1.258  0.00  0.00    +0.236 C 
BRANCH   5   6
ATOM      6  C   UNK     1     -33.268  19.735   0.930  0.00  0.00    +0.021 C 
ATOM      7  C   UNK     1     -32.917  18.482   1.420  0.00  0.00    -0.001 C 
ATOM      8  C   UNK     1     -32.384  20.461   0.139  0.00  0.00    -0.001 C 
ATOM      9  C   UNK     1     -31.665  17.948   1.114  0.00  0.00    -0.000 C 
ATOM     10  C   UNK     1     -31.133  19.926  -0.168  0.00  0.00    -0.000 C 
ATOM     11  C   UNK     1     -30.772  18.670   0.322  0.00  0.00    -0.000 C 
ENDBRANCH   5   6
ENDBRANCH   4   5
ENDBRANCH   3   4
ENDBRANCH   1   3
BRANCH   1  12
ATOM     12  C   UNK     1     -36.495  23.538   3.751  0.00  0.00    +0.057 C 
BRANCH  12  13
ATOM     13  C   UNK     1     -35.426  24.615   3.947  0.00  0.00    +0.047 C 
BRANCH  13  14
ATOM     14  N   UNK     1     -34.370  24.116   4.830  0.00  0.00    +0.389 N 
ATOM     15  H   UNK     1     -34.774  23.482   5.519  0.00  0.00    -0.088 HD
ATOM     16  H   UNK     1     -33.927  24.900   5.309  0.00  0.00    -0.088 HD
ATOM     17  H   UNK     1     -33.671  23.618   4.278  0.00  0.00    -0.088 HD
ENDBRANCH  13  14
BRANCH  13  19
ATOM     18  O   UNK     1     -35.301  26.697   5.172  0.00  0.00    -0.253 OA
ATOM     19  C   UNK     1     -35.989  25.876   4.574  0.00  0.00    +0.294 C 
BRANCH  19  20
ATOM     20  O   UNK     1     -37.333  25.999   4.446  0.00  0.00    -0.482 OA
ATOM     21  H   UNK     1     -37.692  26.574   3.798  0.00  0.00    +0.295 HD
ENDBRANCH  19  20
ENDBRANCH  13  19
ENDBRANCH  12  13
ENDBRANCH   1  12
TORSDOF 9
ENDMDL
MODEL 3
REMARK VINA RESULT:      -5.3      1.613      2.331
REMARK  Name = 193658
REMARK  9 active torsions:
REMARK  status: ('A' for Active; 'I' for Inactive)
REMARK    1  A    between atoms: S_1  and  C_3
REMARK    2  A    between atoms: S_1  and  C_12
REMARK    3  A    between atoms: C_3  and  O_4
REMARK    4  A    between atoms: O_4  and  C_5
REMARK    5  A    between atoms: C_5  and  C_6
REMARK    6  A    between atoms: C_12  and  C_13
REMARK    7  A    between atoms: C_13  and  N_14
REMARK    8  A    between atoms: C_13  and  C_19
REMARK    9  A    between atoms: C_19  and  O_20
REMARK                            x       y       z     vdW  Elec       q    Type
REMARK                         _______ _______ _______ _____ _____    ______ ____
ROOT
ATOM      1  S   UNK     1     -36.644  24.170   3.627  0.00  0.00    -0.035 S 
ENDROOT
BRANCH   1   3
ATOM      2  O   UNK     1     -34.403  24.073   2.247  0.00  0.00    -0.237 OA
ATOM      3  C   UNK     1     -35.361  23.432   2.663  0.00  0.00    +0.370 C 
BRANCH   3   4
ATOM      4  O   UNK     1     -35.554  22.098   2.438  0.00  0.00    -0.436 OA
BRANCH   4   5
ATOM      5  C   UNK     1     -35.446  21.673   1.075  0.00  0.00    +0.236 C 
BRANCH   5   6
ATOM      6  C   UNK     1     -34.251  20.777   0.934  0.00  0.00    +0.021 C 
ATOM      7  C   UNK     1     -34.248  19.531   1.551  0.00  0.00    -0.001 C 
ATOM      8  C   UNK     1     -33.157  21.201   0.186  0.00  0.00    -0.001 C 
ATOM      9  C   UNK     1     -33.137  18.698   1.419  0.00  0.00    -0.000 C 
ATOM     10  C   UNK     1     -32.047  20.367   0.054  0.00  0.00    -0.000 C 
ATOM     11  C   UNK     1     -32.036  19.116   0.672  0.00  0.00    -0.000 C 
ENDBRANCH   5   6
ENDBRANCH   4   5
ENDBRANCH   3   4
ENDBRANCH   1   3
BRANCH   1  12
ATOM     12  C   UNK     1     -35.810  24.276   5.244  0.00  0.00    +0.057 C 
BRANCH  12  13
ATOM     13  C   UNK     1     -35.515  25.723   5.641  0.00  0.00    +0.047 C 
BRANCH  13  14
ATOM     14  N   UNK     1     -36.158  26.641   4.700  0.00  0.00    +0.389 N 
ATOM     15  H   UNK     1     -36.007  26.313   3.746  0.00  0.00    -0.088 HD
ATOM     16  H   UNK     1     -35.758  27.573   4.806  0.00  0.00    -0.088 HD
ATOM     17  H   UNK     1     -37.159  26.679   4.892  0.00  0.00    -0.088 HD
ENDBRANCH  13  14
BRANCH  13  19
ATOM     18  O   UNK     1     -33.498  26.809   6.418  0.00  0.00    -0.253 OA
ATOM     19  C   UNK     1     -34.029  26.029   5.635  0.00  0.00    +0.294 C 
BRANCH  19  20
ATOM     20  O   UNK     1     -33.342  25.387   4.657  0.00  0.00    -0.482 OA
ATOM     21  H   UNK     1     -32.771  24.676   4.874  0.00  0.00    +0.295 HD
ENDBRANCH  19  20
ENDBRANCH  13  19
ENDBRANCH  12  13
ENDBRANCH   1  12
TORSDOF 9
ENDMDL
MODEL 4
REMARK VINA RESULT:      -5.2      1.092      1.747
REMARK  Name = 193658
REMARK  9 active torsions:
REMARK  status: ('A' for Active; 'I' for Inactive)
REMARK    1  A    between atoms: S_1  and  C_3
REMARK    2  A    between atoms: S_1  and  C_12
REMARK    3  A    between atoms: C_3  and  O_4
REMARK    4  A    between atoms: O_4  and  C_5
REMARK    5  A    between atoms: C_5  and  C_6
REMARK    6  A    between atoms: C_12  and  C_13
REMARK    7  A    between atoms: C_13  and  N_14
REMARK    8  A    between atoms: C_13  and  C_19
REMARK    9  A    between atoms: C_19  and  O_20
REMARK                            x       y       z     vdW  Elec       q    Type
REMARK                         _______ _______ _______ _____ _____    ______ ____
ROOT
ATOM      1  S   UNK     1     -37.072  22.465   2.420  0.00  0.00    -0.035 S 
ENDROOT
BRANCH   1   3
ATOM      2  O   UNK     1     -35.404  20.792   3.585  0.00  0.00    -0.237 OA
ATOM      3  C   UNK     1     -35.612  21.485   2.597  0.00  0.00    +0.370 C 
BRANCH   3   4
ATOM      4  O   UNK     1     -34.762  21.587   1.532  0.00  0.00    -0.436 OA
BRANCH   4   5
ATOM      5  C   UNK     1     -34.776  20.489   0.613  0.00  0.00    +0.236 C 
BRANCH   5   6
ATOM      6  C   UNK     1     -33.439  19.808   0.641  0.00  0.00    +0.021 C 
ATOM      7  C   UNK     1     -33.290  18.613   1.337  0.00  0.00    -0.001 C 
ATOM      8  C   UNK     1     -32.362  20.378  -0.029  0.00  0.00    -0.001 C 
ATOM      9  C   UNK     1     -32.047  17.980   1.363  0.00  0.00    -0.000 C 
ATOM     10  C   UNK     1     -31.120  19.744  -0.004  0.00  0.00    -0.000 C 
ATOM     11  C   UNK     1     -30.962  18.545   0.693  0.00  0.00    -0.000 C 
ENDBRANCH   5   6
ENDBRANCH   4   5
ENDBRANCH   3   4
ENDBRANCH   1   3
BRANCH   1  12
ATOM     12  C   UNK     1     -36.440  24.083   2.972  0.00  0.00    +0.057 C 
BRANCH  12  13
ATOM     13  C   UNK     1     -36.800  24.370   4.431  0.00  0.00    +0.047 C 
BRANCH  13  14
ATOM     14  N   UNK     1     -36.848  25.815   4.659  0.00  0.00    +0.389 N 
ATOM     15  H   UNK     1     -37.243  26.002   5.580  0.00  0.00    -0.088 HD
ATOM     16  H   UNK     1     -37.428  26.254   3.944  0.00  0.00    -0.088 HD
ATOM     17  H   UNK     1     -35.903  26.199   4.610  0.00  0.00    -0.088 HD
ENDBRANCH  13  14
BRANCH  13  19
ATOM     18  O   UNK     1     -34.723  24.331   5.669  0.00  0.00    -0.253 OA
ATOM     19  C   UNK     1     -35.788  23.787   5.398  0.00  0.00    +0.294 C 
BRANCH  19  20
ATOM     20  O   UNK     1     -36.151  22.586   5.913  0.00  0.00    -0.482 OA
ATOM     21  H   UNK     1     -35.509  22.035   6.316  0.00  0.00    +0.295 HD
ENDBRANCH  19  20
ENDBRANCH  13  19
ENDBRANCH  12  13
ENDBRANCH   1  12
TORSDOF 9
ENDMDL
MODEL 5
REMARK VINA RESULT:      -5.2      3.986      7.790
REMARK  Name = 193658
REMARK  9 active torsions:
REMARK  status: ('A' for Active; 'I' for Inactive)
REMARK    1  A    between atoms: S_1  and  C_3
REMARK    2  A    between atoms: S_1  and  C_12
REMARK    3  A    between atoms: C_3  and  O_4
REMARK    4  A    between atoms: O_4  and  C_5
REMARK    5  A    between atoms: C_5  and  C_6
REMARK    6  A    between atoms: C_12  and  C_13
REMARK    7  A    between atoms: C_13  and  N_14
REMARK    8  A    between atoms: C_13  and  C_19
REMARK    9  A    between atoms: C_19  and  O_20
REMARK                            x       y       z     vdW  Elec       q    Type
REMARK                         _______ _______ _______ _____ _____    ______ ____
ROOT
ATOM      1  S   UNK     1     -35.676  25.155   3.208  0.00  0.00    -0.035 S 
ENDROOT
BRANCH   1   3
ATOM      2  O   UNK     1     -35.942  26.326   5.552  0.00  0.00    -0.237 OA
ATOM      3  C   UNK     1     -35.434  26.398   4.440  0.00  0.00    +0.370 C 
BRANCH   3   4
ATOM      4  O   UNK     1     -34.637  27.426   4.020  0.00  0.00    -0.436 OA
BRANCH   4   5
ATOM      5  C   UNK     1     -33.226  27.203   4.118  0.00  0.00    +0.236 C 
BRANCH   5   6
ATOM      6  C   UNK     1     -32.591  28.375   4.808  0.00  0.00    +0.021 C 
ATOM      7  C   UNK     1     -32.479  29.588   4.139  0.00  0.00    -0.001 C 
ATOM      8  C   UNK     1     -32.120  28.235   6.109  0.00  0.00    -0.001 C 
ATOM      9  C   UNK     1     -31.889  30.678   4.781  0.00  0.00    -0.000 C 
ATOM     10  C   UNK     1     -31.531  29.325   6.751  0.00  0.00    -0.000 C 
ATOM     11  C   UNK     1     -31.414  30.546   6.086  0.00  0.00    -0.000 C 
ENDBRANCH   5   6
ENDBRANCH   4   5
ENDBRANCH   3   4
ENDBRANCH   1   3
BRANCH   1  12
ATOM     12  C   UNK     1     -34.759  23.773   3.964  0.00  0.00    +0.057 C 
BRANCH  12  13
ATOM     13  C   UNK     1     -35.613  22.508   4.066  0.00  0.00    +0.047 C 
BRANCH  13  14
ATOM     14  N   UNK     1     -37.014  22.826   3.782  0.00  0.00    +0.389 N 
ATOM     15  H   UNK     1     -37.458  22.031   3.325  0.00  0.00    -0.088 HD
ATOM     16  H   UNK     1     -37.060  23.640   3.168  0.00  0.00    -0.088 HD
ATOM     17  H   UNK     1     -37.500  23.033   4.655  0.00  0.00    -0.088 HD
ENDBRANCH  13  14
BRANCH  13  19
ATOM     18  O   UNK     1     -35.860  22.489   6.472  0.00  0.00    -0.253 OA
ATOM     19  C   UNK     1     -35.557  21.886   5.448  0.00  0.00    +0.294 C 
BRANCH  19  20
ATOM     20  O   UNK     1     -35.104  20.607   5.455  0.00  0.00    -0.482 OA
ATOM     21  H   UNK     1     -35.184  20.077   4.686  0.00  0.00    +0.295 HD
ENDBRANCH  19  20
ENDBRANCH  13  19
ENDBRANCH  12  13
ENDBRANCH   1  12
TORSDOF 9
ENDMDL
MODEL 6
REMARK VINA RESULT:      -5.1      4.196      5.503
REMARK  Name = 193658
REMARK  9 active torsions:
REMARK  status: ('A' for Active; 'I' for Inactive)
REMARK    1  A    between atoms: S_1  and  C_3
REMARK    2  A    between atoms: S_1  and  C_12
REMARK    3  A    between atoms: C_3  and  O_4
REMARK    4  A    between atoms: O_4  and  C_5
REMARK    5  A    between atoms: C_5  and  C_6
REMARK    6  A    between atoms: C_12  and  C_13
REMARK    7  A    between atoms: C_13  and  N_14
REMARK    8  A    between atoms: C_13  and  C_19
REMARK    9  A    between atoms: C_19  and  O_20
REMARK                            x       y       z     vdW  Elec       q    Type
REMARK                         _______ _______ _______ _____ _____    ______ ____
ROOT
ATOM      1  S   UNK     1     -39.141  23.369   0.818  0.00  0.00    -0.035 S 
ENDROOT
BRANCH   1   3
ATOM      2  O   UNK     1     -40.090  21.373   2.251  0.00  0.00    -0.237 OA
ATOM      3  C   UNK     1     -39.079  21.936   1.851  0.00  0.00    +0.370 C 
BRANCH   3   4
ATOM      4  O   UNK     1     -37.805  21.539   2.146  0.00  0.00    -0.436 OA
BRANCH   4   5
ATOM      5  C   UNK     1     -36.820  22.578   2.183  0.00  0.00    +0.236 C 
BRANCH   5   6
ATOM      6  C   UNK     1     -36.211  22.629   3.554  0.00  0.00    +0.021 C 
ATOM      7  C   UNK     1     -35.661  21.477   4.105  0.00  0.00    -0.001 C 
ATOM      8  C   UNK     1     -36.204  23.827   4.260  0.00  0.00    -0.001 C 
ATOM      9  C   UNK     1     -35.095  21.524   5.379  0.00  0.00    -0.000 C 
ATOM     10  C   UNK     1     -35.637  23.874   5.534  0.00  0.00    -0.000 C 
ATOM     11  C   UNK     1     -35.083  22.722   6.094  0.00  0.00    -0.000 C 
ENDBRANCH   5   6
ENDBRANCH   4   5
ENDBRANCH   3   4
ENDBRANCH   1   3
BRANCH   1  12
ATOM     12  C   UNK     1     -40.437  24.324   1.674  0.00  0.00    +0.057 C 
BRANCH  12  13
ATOM     13  C   UNK     1     -39.845  25.403   2.582  0.00  0.00    +0.047 C 
BRANCH  13  14
ATOM     14  N   UNK     1     -39.607  24.856   3.919  0.00  0.00    +0.389 N 
ATOM     15  H   UNK     1     -39.024  25.500   4.452  0.00  0.00    -0.088 HD
ATOM     16  H   UNK     1     -39.133  23.956   3.839  0.00  0.00    -0.088 HD
ATOM     17  H   UNK     1     -40.499  24.728   4.398  0.00  0.00    -0.088 HD
ENDBRANCH  13  14
BRANCH  13  19
ATOM     18  O   UNK     1     -41.203  27.238   1.784  0.00  0.00    -0.253 OA
ATOM     19  C   UNK     1     -40.769  26.596   2.734  0.00  0.00    +0.294 C 
BRANCH  19  20
ATOM     20  O   UNK     1     -41.044  26.915   4.024  0.00  0.00    -0.482 OA
ATOM     21  H   UNK     1     -41.589  27.652   4.218  0.00  0.00    +0.295 HD
ENDBRANCH  19  20
ENDBRANCH  13  19
ENDBRANCH  12  13
ENDBRANCH   1  12
TORSDOF 9
ENDMDL
MODEL 7
REMARK VINA RESULT:      -5.1      3.969      6.482
REMARK  Name = 193658
REMARK  9 active torsions:
REMARK  status: ('A' for Active; 'I' for Inactive)
REMARK    1  A    between atoms: S_1  and  C_3
REMARK    2  A    between atoms: S_1  and  C_12
REMARK    3  A    between atoms: C_3  and  O_4
REMARK    4  A    between atoms: O_4  and  C_5
REMARK    5  A    between atoms: C_5  and  C_6
REMARK    6  A    between atoms: C_12  and  C_13
REMARK    7  A    between atoms: C_13  and  N_14
REMARK    8  A    between atoms: C_13  and  C_19
REMARK    9  A    between atoms: C_19  and  O_20
REMARK                            x       y       z     vdW  Elec       q    Type
REMARK                         _______ _______ _______ _____ _____    ______ ____
ROOT
ATOM      1  S   UNK     1     -38.386  21.842   0.402  0.00  0.00    -0.035 S 
ENDROOT
BRANCH   1   3
ATOM      2  O   UNK     1     -40.316  21.235   2.088  0.00  0.00    -0.237 OA
ATOM      3  C   UNK     1     -39.287  21.878   1.922  0.00  0.00    +0.370 C 
BRANCH   3   4
ATOM      4  O   UNK     1     -38.720  22.687   2.866  0.00  0.00    -0.436 OA
BRANCH   4   5
ATOM      5  C   UNK     1     -37.596  23.461   2.432  0.00  0.00    +0.236 C 
BRANCH   5   6
ATOM      6  C   UNK     1     -36.732  23.778   3.617  0.00  0.00    +0.021 C 
ATOM      7  C   UNK     1     -36.806  25.035   4.206  0.00  0.00    -0.001 C 
ATOM      8  C   UNK     1     -35.865  22.811   4.115  0.00  0.00    -0.001 C 
ATOM      9  C   UNK     1     -36.002  25.330   5.307  0.00  0.00    -0.000 C 
ATOM     10  C   UNK     1     -35.062  23.106   5.218  0.00  0.00    -0.000 C 
ATOM     11  C   UNK     1     -35.130  24.366   5.813  0.00  0.00    -0.000 C 
ENDBRANCH   5   6
ENDBRANCH   4   5
ENDBRANCH   3   4
ENDBRANCH   1   3
BRANCH   1  12
ATOM     12  C   UNK     1     -38.367  20.048   0.083  0.00  0.00    +0.057 C 
BRANCH  12  13
ATOM     13  C   UNK     1     -36.967  19.453   0.248  0.00  0.00    +0.047 C 
BRANCH  13  14
ATOM     14  N   UNK     1     -37.060  18.005   0.444  0.00  0.00    +0.389 N 
ATOM     15  H   UNK     1     -37.921  17.658   0.022  0.00  0.00    -0.088 HD
ATOM     16  H   UNK     1     -37.063  17.796   1.443  0.00  0.00    -0.088 HD
ATOM     17  H   UNK     1     -36.258  17.551   0.006  0.00  0.00    -0.088 HD
ENDBRANCH  13  14
BRANCH  13  19
ATOM     18  O   UNK     1     -35.218  20.710   1.348  0.00  0.00    -0.253 OA
ATOM     19  C   UNK     1     -36.235  20.031   1.444  0.00  0.00    +0.294 C 
BRANCH  19  20
ATOM     20  O   UNK     1     -36.785  19.697   2.638  0.00  0.00    -0.482 OA
ATOM     21  H   UNK     1     -36.291  19.200   3.259  0.00  0.00    +0.295 HD
ENDBRANCH  19  20
ENDBRANCH  13  19
ENDBRANCH  12  13
ENDBRANCH   1  12
TORSDOF 9
ENDMDL
MODEL 8
REMARK VINA RESULT:      -5.1      1.614      2.134
REMARK  Name = 193658
REMARK  9 active torsions:
REMARK  status: ('A' for Active; 'I' for Inactive)
REMARK    1  A    between atoms: S_1  and  C_3
REMARK    2  A    between atoms: S_1  and  C_12
REMARK    3  A    between atoms: C_3  and  O_4
REMARK    4  A    between atoms: O_4  and  C_5
REMARK    5  A    between atoms: C_5  and  C_6
REMARK    6  A    between atoms: C_12  and  C_13
REMARK    7  A    between atoms: C_13  and  N_14
REMARK    8  A    between atoms: C_13  and  C_19
REMARK    9  A    between atoms: C_19  and  O_20
REMARK                            x       y       z     vdW  Elec       q    Type
REMARK                         _______ _______ _______ _____ _____    ______ ____
ROOT
ATOM      1  S   UNK     1     -35.710  22.827   2.909  0.00  0.00    -0.035 S 
ENDROOT
BRANCH   1   3
ATOM      2  O   UNK     1     -35.255  21.193   4.923  0.00  0.00    -0.237 OA
ATOM      3  C   UNK     1     -35.363  21.290   3.707  0.00  0.00    +0.370 C 
BRANCH   3   4
ATOM      4  O   UNK     1     -35.229  20.247   2.834  0.00  0.00    -0.436 OA
BRANCH   4   5
ATOM      5  C   UNK     1     -34.949  20.602   1.475  0.00  0.00    +0.236 C 
BRANCH   5   6
ATOM      6  C   UNK     1     -33.635  20.001   1.072  0.00  0.00    +0.021 C 
ATOM      7  C   UNK     1     -33.291  18.731   1.521  0.00  0.00    -0.001 C 
ATOM      8  C   UNK     1     -32.772  20.721   0.251  0.00  0.00    -0.001 C 
ATOM      9  C   UNK     1     -32.069  18.173   1.146  0.00  0.00    -0.000 C 
ATOM     10  C   UNK     1     -31.550  20.162  -0.125  0.00  0.00    -0.000 C 
ATOM     11  C   UNK     1     -31.198  18.888   0.324  0.00  0.00    -0.000 C 
ENDBRANCH   5   6
ENDBRANCH   4   5
ENDBRANCH   3   4
ENDBRANCH   1   3
BRANCH   1  12
ATOM     12  C   UNK     1     -35.782  23.931   4.358  0.00  0.00    +0.057 C 
BRANCH  12  13
ATOM     13  C   UNK     1     -36.383  25.294   4.008  0.00  0.00    +0.047 C 
BRANCH  13  14
ATOM     14  N   UNK     1     -36.569  26.085   5.226  0.00  0.00    +0.389 N 
ATOM     15  H   UNK     1     -35.905  26.859   5.234  0.00  0.00    -0.088 HD
ATOM     16  H   UNK     1     -36.413  25.494   6.043  0.00  0.00    -0.088 HD
ATOM     17  H   UNK     1     -37.520  26.453   5.251  0.00  0.00    -0.088 HD
ENDBRANCH  13  14
BRANCH  13  19
ATOM     18  O   UNK     1     -38.683  24.568   3.826  0.00  0.00    -0.253 OA
ATOM     19  C   UNK     1     -37.735  25.170   3.333  0.00  0.00    +0.294 C 
BRANCH  19  20
ATOM     20  O   UNK     1     -37.793  25.756   2.111  0.00  0.00    -0.482 OA
ATOM     21  H   UNK     1     -38.516  25.583   1.541  0.00  0.00    +0.295 HD
ENDBRANCH  19  20
ENDBRANCH  13  19
ENDBRANCH  12  13
ENDBRANCH   1  12
TORSDOF 9
ENDMDL
MODEL 9
REMARK VINA RESULT:      -5.0      4.118      6.186
REMARK  Name = 193658
REMARK  9 active torsions:
REMARK  status: ('A' for Active; 'I' for Inactive)
REMARK    1  A    between atoms: S_1  and  C_3
REMARK    2  A    between atoms: S_1  and  C_12
REMARK    3  A    between atoms: C_3  and  O_4
REMARK    4  A    between atoms: O_4  and  C_5
REMARK    5  A    between atoms: C_5  and  C_6
REMARK    6  A    between atoms: C_12  and  C_13
REMARK    7  A    between atoms: C_13  and  N_14
REMARK    8  A    between atoms: C_13  and  C_19
REMARK    9  A    between atoms: C_19  and  O_20
REMARK                            x       y       z     vdW  Elec       q    Type
REMARK                         _______ _______ _______ _____ _____    ______ ____
ROOT
ATOM      1  S   UNK     1     -39.589  24.595   3.131  0.00  0.00    -0.035 S 
ENDROOT
BRANCH   1   3
ATOM      2  O   UNK     1     -38.409  26.727   2.131  0.00  0.00    -0.237 OA
ATOM      3  C   UNK     1     -38.312  25.798   2.924  0.00  0.00    +0.370 C 
BRANCH   3   4
ATOM      4  O   UNK     1     -37.228  25.579   3.728  0.00  0.00    -0.436 OA
BRANCH   4   5
ATOM      5  C   UNK     1     -36.147  24.851   3.134  0.00  0.00    +0.236 C 
BRANCH   5   6
ATOM      6  C   UNK     1     -35.795  23.689   4.016  0.00  0.00    +0.021 C 
ATOM      7  C   UNK     1     -35.650  23.885   5.385  0.00  0.00    -0.001 C 
ATOM      8  C   UNK     1     -35.618  22.428   3.457  0.00  0.00    -0.001 C 
ATOM      9  C   UNK     1     -35.322  22.805   6.205  0.00  0.00    -0.000 C 
ATOM     10  C   UNK     1     -35.292  21.349   4.278  0.00  0.00    -0.000 C 
ATOM     11  C   UNK     1     -35.142  21.537   5.652  0.00  0.00    -0.000 C 
ENDBRANCH   5   6
ENDBRANCH   4   5
ENDBRANCH   3   4
ENDBRANCH   1   3
BRANCH   1  12
ATOM     12  C   UNK     1     -39.578  23.829   1.478  0.00  0.00    +0.057 C 
BRANCH  12  13
ATOM     13  C   UNK     1     -38.722  22.562   1.440  0.00  0.00    +0.047 C 
BRANCH  13  14
ATOM     14  N   UNK     1     -37.786  22.625   0.315  0.00  0.00    +0.389 N 
ATOM     15  H   UNK     1     -38.270  22.978  -0.511  0.00  0.00    -0.088 HD
ATOM     16  H   UNK     1     -37.421  21.692   0.123  0.00  0.00    -0.088 HD
ATOM     17  H   UNK     1     -37.014  23.249   0.549  0.00  0.00    -0.088 HD
ENDBRANCH  13  14
BRANCH  13  19
ATOM     18  O   UNK     1     -39.545  20.621   0.254  0.00  0.00    -0.253 OA
ATOM     19  C   UNK     1     -39.557  21.308   1.270  0.00  0.00    +0.294 C 
BRANCH  19  20
ATOM     20  O   UNK     1     -40.352  21.031   2.334  0.00  0.00    -0.482 OA
ATOM     21  H   UNK     1     -40.040  21.185   3.204  0.00  0.00    +0.295 HD
ENDBRANCH  19  20
ENDBRANCH  13  19
ENDBRANCH  12  13
ENDBRANCH   1  12
TORSDOF 9
ENDMDL
