MODEL 1
REMARK VINA RESULT:      -6.7      0.000      0.000
REMARK  Name = 5281801
REMARK  5 active torsions:
REMARK  status: ('A' for Active; 'I' for Inactive)
REMARK    1  A    between atoms: C_4  and  C_12
REMARK    2  A    between atoms: C_7  and  O_22
REMARK    3  A    between atoms: C_11  and  O_24
REMARK    4  A    between atoms: C_15  and  O_18
REMARK    5  A    between atoms: C_17  and  O_20
REMARK                            x       y       z     vdW  Elec       q    Type
REMARK                         _______ _______ _______ _____ _____    ______ ____
ROOT
ATOM      1  O   UNL     1     -34.823  23.676   1.408  0.00  0.00    -0.450 OA
ATOM      2  O   UNL     1     -35.379  20.517   3.929  0.00  0.00    -0.286 OA
ATOM      3  C   UNL     1     -35.421  22.849   3.610  0.00  0.00    +0.107 C 
ATOM      4  C   UNL     1     -34.833  21.270   1.737  0.00  0.00    +0.077 C 
ATOM      5  C   UNL     1     -35.206  23.890   2.707  0.00  0.00    +0.154 C 
ATOM      6  C   UNL     1     -35.229  21.457   3.160  0.00  0.00    +0.204 C 
ATOM      7  C   UNL     1     -35.810  23.126   4.923  0.00  0.00    +0.143 C 
ATOM      8  C   UNL     1     -34.668  22.375   0.994  0.00  0.00    +0.183 C 
ATOM      9  C   UNL     1     -35.378  25.214   3.113  0.00  0.00    +0.074 C 
ATOM     10  C   UNL     1     -35.982  24.451   5.327  0.00  0.00    +0.073 C 
ATOM     11  C   UNL     1     -35.766  25.492   4.423  0.00  0.00    +0.140 C 
ENDROOT
BRANCH   4  12
ATOM     12  C   UNL     1     -34.646  19.934   1.150  0.00  0.00    +0.009 C 
ATOM     13  C   UNL     1     -33.480  19.211   1.407  0.00  0.00    +0.040 C 
ATOM     14  C   UNL     1     -35.637  19.383   0.334  0.00  0.00    +0.004 C 
ATOM     15  C   UNL     1     -33.304  17.943   0.852  0.00  0.00    +0.167 C 
ATOM     16  C   UNL     1     -35.462  18.116  -0.222  0.00  0.00    +0.040 C 
ATOM     17  C   UNL     1     -34.295  17.397   0.037  0.00  0.00    +0.167 C 
BRANCH  15  18
ATOM     18  O   UNL     1     -32.161  17.250   1.110  0.00  0.00    -0.503 OA
ATOM     19  H   UNL     1     -32.110  16.337   0.904  0.00  0.00    +0.292 HD
ENDBRANCH  15  18
BRANCH  17  20
ATOM     20  O   UNL     1     -34.135  16.159  -0.511  0.00  0.00    -0.503 OA
ATOM     21  H   UNL     1     -33.871  15.439   0.027  0.00  0.00    +0.292 HD
ENDBRANCH  17  20
ENDBRANCH   4  12
BRANCH   7  22
ATOM     22  O   UNL     1     -36.034  22.147   5.845  0.00  0.00    -0.505 OA
ATOM     23  H   UNL     1     -35.385  21.956   6.492  0.00  0.00    +0.292 HD
ENDBRANCH   7  22
BRANCH  11  24
ATOM     24  O   UNL     1     -35.935  26.783   4.824  0.00  0.00    -0.505 OA
ATOM     25  H   UNL     1     -36.103  27.452   4.189  0.00  0.00    +0.292 HD
ENDBRANCH  11  24
TORSDOF 5
ENDMDL
MODEL 2
REMARK VINA RESULT:      -6.5      0.611      1.490
REMARK  Name = 5281801
REMARK  5 active torsions:
REMARK  status: ('A' for Active; 'I' for Inactive)
REMARK    1  A    between atoms: C_4  and  C_12
REMARK    2  A    between atoms: C_7  and  O_22
REMARK    3  A    between atoms: C_11  and  O_24
REMARK    4  A    between atoms: C_15  and  O_18
REMARK    5  A    between atoms: C_17  and  O_20
REMARK                            x       y       z     vdW  Elec       q    Type
REMARK                         _______ _______ _______ _____ _____    ______ ____
ROOT
ATOM      1  O   UNL     1     -34.799  23.679   1.389  0.00  0.00    -0.450 OA
ATOM      2  O   UNL     1     -35.402  20.532   3.915  0.00  0.00    -0.286 OA
ATOM      3  C   UNL     1     -35.415  22.864   3.590  0.00  0.00    +0.107 C 
ATOM      4  C   UNL     1     -34.838  21.274   1.724  0.00  0.00    +0.077 C 
ATOM      5  C   UNL     1     -35.185  23.900   2.686  0.00  0.00    +0.154 C 
ATOM      6  C   UNL     1     -35.238  21.469   3.145  0.00  0.00    +0.204 C 
ATOM      7  C   UNL     1     -35.807  23.149   4.901  0.00  0.00    +0.143 C 
ATOM      8  C   UNL     1     -34.657  22.376   0.979  0.00  0.00    +0.183 C 
ATOM      9  C   UNL     1     -35.343  25.227   3.088  0.00  0.00    +0.074 C 
ATOM     10  C   UNL     1     -35.965  24.476   5.301  0.00  0.00    +0.073 C 
ATOM     11  C   UNL     1     -35.733  25.513   4.396  0.00  0.00    +0.140 C 
ENDROOT
BRANCH   4  12
ATOM     12  C   UNL     1     -34.665  19.934   1.140  0.00  0.00    +0.009 C 
ATOM     13  C   UNL     1     -35.675  19.374   0.356  0.00  0.00    +0.040 C 
ATOM     14  C   UNL     1     -33.488  19.217   1.369  0.00  0.00    +0.004 C 
ATOM     15  C   UNL     1     -35.511  18.105  -0.197  0.00  0.00    +0.167 C 
ATOM     16  C   UNL     1     -33.323  17.947   0.816  0.00  0.00    +0.040 C 
ATOM     17  C   UNL     1     -34.335  17.391   0.034  0.00  0.00    +0.167 C 
BRANCH  15  18
ATOM     18  O   UNL     1     -36.506  17.571  -0.958  0.00  0.00    -0.503 OA
ATOM     19  H   UNL     1     -37.401  17.675  -0.700  0.00  0.00    +0.292 HD
ENDBRANCH  15  18
BRANCH  17  20
ATOM     20  O   UNL     1     -34.162  16.151  -0.503  0.00  0.00    -0.503 OA
ATOM     21  H   UNL     1     -33.300  15.841  -0.701  0.00  0.00    +0.292 HD
ENDBRANCH  17  20
ENDBRANCH   4  12
BRANCH   7  22
ATOM     22  O   UNL     1     -36.046  22.175   5.824  0.00  0.00    -0.505 OA
ATOM     23  H   UNL     1     -35.982  21.273   5.580  0.00  0.00    +0.292 HD
ENDBRANCH   7  22
BRANCH  11  24
ATOM     24  O   UNL     1     -35.889  26.806   4.792  0.00  0.00    -0.505 OA
ATOM     25  H   UNL     1     -35.823  27.500   4.165  0.00  0.00    +0.292 HD
ENDBRANCH  11  24
TORSDOF 5
ENDMDL
MODEL 3
REMARK VINA RESULT:      -6.2      3.526      5.946
REMARK  Name = 5281801
REMARK  5 active torsions:
REMARK  status: ('A' for Active; 'I' for Inactive)
REMARK    1  A    between atoms: C_4  and  C_12
REMARK    2  A    between atoms: C_7  and  O_22
REMARK    3  A    between atoms: C_11  and  O_24
REMARK    4  A    between atoms: C_15  and  O_18
REMARK    5  A    between atoms: C_17  and  O_20
REMARK                            x       y       z     vdW  Elec       q    Type
REMARK                         _______ _______ _______ _____ _____    ______ ____
ROOT
ATOM      1  O   UNL     1     -36.312  27.277   2.211  0.00  0.00    -0.450 OA
ATOM      2  O   UNL     1     -33.115  26.248   4.528  0.00  0.00    -0.286 OA
ATOM      3  C   UNL     1     -34.185  27.880   3.211  0.00  0.00    +0.107 C 
ATOM      4  C   UNL     1     -35.222  25.620   3.613  0.00  0.00    +0.077 C 
ATOM      5  C   UNL     1     -35.296  28.173   2.422  0.00  0.00    +0.154 C 
ATOM      6  C   UNL     1     -34.087  26.555   3.851  0.00  0.00    +0.204 C 
ATOM      7  C   UNL     1     -33.178  28.833   3.390  0.00  0.00    +0.143 C 
ATOM      8  C   UNL     1     -36.221  26.053   2.829  0.00  0.00    +0.183 C 
ATOM      9  C   UNL     1     -35.405  29.420   1.804  0.00  0.00    +0.074 C 
ATOM     10  C   UNL     1     -33.290  30.079   2.773  0.00  0.00    +0.073 C 
ATOM     11  C   UNL     1     -34.402  30.371   1.981  0.00  0.00    +0.140 C 
ENDROOT
BRANCH   4  12
ATOM     12  C   UNL     1     -35.269  24.282   4.223  0.00  0.00    +0.009 C 
ATOM     13  C   UNL     1     -35.477  23.154   3.426  0.00  0.00    +0.040 C 
ATOM     14  C   UNL     1     -35.106  24.135   5.602  0.00  0.00    +0.004 C 
ATOM     15  C   UNL     1     -35.521  21.886   4.004  0.00  0.00    +0.167 C 
ATOM     16  C   UNL     1     -35.150  22.866   6.181  0.00  0.00    +0.040 C 
ATOM     17  C   UNL     1     -35.358  21.742   5.382  0.00  0.00    +0.167 C 
BRANCH  15  18
ATOM     18  O   UNL     1     -35.725  20.795   3.215  0.00  0.00    -0.503 OA
ATOM     19  H   UNL     1     -35.310  19.982   3.424  0.00  0.00    +0.292 HD
ENDBRANCH  15  18
BRANCH  17  20
ATOM     20  O   UNL     1     -35.397  20.508   5.958  0.00  0.00    -0.503 OA
ATOM     21  H   UNL     1     -35.712  20.410   6.835  0.00  0.00    +0.292 HD
ENDBRANCH  17  20
ENDBRANCH   4  12
BRANCH   7  22
ATOM     22  O   UNL     1     -32.072  28.599   4.153  0.00  0.00    -0.505 OA
ATOM     23  H   UNL     1     -31.834  27.721   4.375  0.00  0.00    +0.292 HD
ENDBRANCH   7  22
BRANCH  11  24
ATOM     24  O   UNL     1     -34.505  31.589   1.381  0.00  0.00    -0.505 OA
ATOM     25  H   UNL     1     -34.006  31.775   0.609  0.00  0.00    +0.292 HD
ENDBRANCH  11  24
TORSDOF 5
ENDMDL
MODEL 4
REMARK VINA RESULT:      -6.1      4.219      6.978
REMARK  Name = 5281801
REMARK  5 active torsions:
REMARK  status: ('A' for Active; 'I' for Inactive)
REMARK    1  A    between atoms: C_4  and  C_12
REMARK    2  A    between atoms: C_7  and  O_22
REMARK    3  A    between atoms: C_11  and  O_24
REMARK    4  A    between atoms: C_15  and  O_18
REMARK    5  A    between atoms: C_17  and  O_20
REMARK                            x       y       z     vdW  Elec       q    Type
REMARK                         _______ _______ _______ _____ _____    ______ ____
ROOT
ATOM      1  O   UNL     1     -32.402  28.213   2.746  0.00  0.00    -0.450 OA
ATOM      2  O   UNL     1     -33.720  26.542   6.227  0.00  0.00    -0.286 OA
ATOM      3  C   UNL     1     -32.371  28.157   5.172  0.00  0.00    +0.107 C 
ATOM      4  C   UNL     1     -33.828  26.586   3.848  0.00  0.00    +0.077 C 
ATOM      5  C   UNL     1     -31.948  28.682   3.952  0.00  0.00    +0.154 C 
ATOM      6  C   UNL     1     -33.346  27.050   5.178  0.00  0.00    +0.204 C 
ATOM      7  C   UNL     1     -31.872  28.674   6.371  0.00  0.00    +0.143 C 
ATOM      8  C   UNL     1     -33.326  27.197   2.764  0.00  0.00    +0.183 C 
ATOM      9  C   UNL     1     -31.023  29.727   3.923  0.00  0.00    +0.074 C 
ATOM     10  C   UNL     1     -30.948  29.720   6.340  0.00  0.00    +0.073 C 
ATOM     11  C   UNL     1     -30.524  30.244   5.118  0.00  0.00    +0.140 C 
ENDROOT
BRANCH   4  12
ATOM     12  C   UNL     1     -34.830  25.516   3.714  0.00  0.00    +0.009 C 
ATOM     13  C   UNL     1     -36.173  25.774   3.994  0.00  0.00    +0.040 C 
ATOM     14  C   UNL     1     -34.440  24.239   3.304  0.00  0.00    +0.004 C 
ATOM     15  C   UNL     1     -37.123  24.760   3.865  0.00  0.00    +0.167 C 
ATOM     16  C   UNL     1     -35.389  23.225   3.175  0.00  0.00    +0.040 C 
ATOM     17  C   UNL     1     -36.730  23.486   3.457  0.00  0.00    +0.167 C 
BRANCH  15  18
ATOM     18  O   UNL     1     -38.429  25.025   4.144  0.00  0.00    -0.503 OA
ATOM     19  H   UNL     1     -38.899  25.652   3.629  0.00  0.00    +0.292 HD
ENDBRANCH  15  18
BRANCH  17  20
ATOM     20  O   UNL     1     -37.648  22.488   3.326  0.00  0.00    -0.503 OA
ATOM     21  H   UNL     1     -38.386  22.600   2.760  0.00  0.00    +0.292 HD
ENDBRANCH  17  20
ENDBRANCH   4  12
BRANCH   7  22
ATOM     22  O   UNL     1     -32.253  28.199   7.590  0.00  0.00    -0.505 OA
ATOM     23  H   UNL     1     -32.084  28.701   8.362  0.00  0.00    +0.292 HD
ENDBRANCH   7  22
BRANCH  11  24
ATOM     24  O   UNL     1     -29.622  31.264   5.095  0.00  0.00    -0.505 OA
ATOM     25  H   UNL     1     -29.368  31.683   5.894  0.00  0.00    +0.292 HD
ENDBRANCH  11  24
TORSDOF 5
ENDMDL
MODEL 5
REMARK VINA RESULT:      -5.9      4.351      7.313
REMARK  Name = 5281801
REMARK  5 active torsions:
REMARK  status: ('A' for Active; 'I' for Inactive)
REMARK    1  A    between atoms: C_4  and  C_12
REMARK    2  A    between atoms: C_7  and  O_22
REMARK    3  A    between atoms: C_11  and  O_24
REMARK    4  A    between atoms: C_15  and  O_18
REMARK    5  A    between atoms: C_17  and  O_20
REMARK                            x       y       z     vdW  Elec       q    Type
REMARK                         _______ _______ _______ _____ _____    ______ ____
ROOT
ATOM      1  O   UNL     1     -32.634  27.281   6.733  0.00  0.00    -0.450 OA
ATOM      2  O   UNL     1     -33.551  27.241   2.757  0.00  0.00    -0.286 OA
ATOM      3  C   UNL     1     -32.252  28.148   4.499  0.00  0.00    +0.107 C 
ATOM      4  C   UNL     1     -33.932  26.318   4.919  0.00  0.00    +0.077 C 
ATOM      5  C   UNL     1     -31.987  28.125   5.868  0.00  0.00    +0.154 C 
ATOM      6  C   UNL     1     -33.268  27.232   3.948  0.00  0.00    +0.204 C 
ATOM      7  C   UNL     1     -31.562  29.031   3.664  0.00  0.00    +0.143 C 
ATOM      8  C   UNL     1     -33.564  26.417   6.206  0.00  0.00    +0.183 C 
ATOM      9  C   UNL     1     -31.032  28.986   6.410  0.00  0.00    +0.074 C 
ATOM     10  C   UNL     1     -30.606  29.891   4.208  0.00  0.00    +0.073 C 
ATOM     11  C   UNL     1     -30.343  29.868   5.578  0.00  0.00    +0.140 C 
ENDROOT
BRANCH   4  12
ATOM     12  C   UNL     1     -34.936  25.329   4.497  0.00  0.00    +0.009 C 
ATOM     13  C   UNL     1     -36.290  25.666   4.483  0.00  0.00    +0.040 C 
ATOM     14  C   UNL     1     -34.536  24.048   4.107  0.00  0.00    +0.004 C 
ATOM     15  C   UNL     1     -37.242  24.728   4.081  0.00  0.00    +0.167 C 
ATOM     16  C   UNL     1     -35.487  23.110   3.705  0.00  0.00    +0.040 C 
ATOM     17  C   UNL     1     -36.839  23.450   3.693  0.00  0.00    +0.167 C 
BRANCH  15  18
ATOM     18  O   UNL     1     -38.560  25.070   4.074  0.00  0.00    -0.503 OA
ATOM     19  H   UNL     1     -38.903  25.595   3.378  0.00  0.00    +0.292 HD
ENDBRANCH  15  18
BRANCH  17  20
ATOM     20  O   UNL     1     -37.759  22.526   3.297  0.00  0.00    -0.503 OA
ATOM     21  H   UNL     1     -37.854  21.725   3.774  0.00  0.00    +0.292 HD
ENDBRANCH  17  20
ENDBRANCH   4  12
BRANCH   7  22
ATOM     22  O   UNL     1     -31.780  29.093   2.320  0.00  0.00    -0.505 OA
ATOM     23  H   UNL     1     -31.118  29.436   1.753  0.00  0.00    +0.292 HD
ENDBRANCH   7  22
BRANCH  11  24
ATOM     24  O   UNL     1     -29.410  30.710   6.103  0.00  0.00    -0.505 OA
ATOM     25  H   UNL     1     -29.026  30.522   6.937  0.00  0.00    +0.292 HD
ENDBRANCH  11  24
TORSDOF 5
ENDMDL
MODEL 6
REMARK VINA RESULT:      -5.9      3.038      4.931
REMARK  Name = 5281801
REMARK  5 active torsions:
REMARK  status: ('A' for Active; 'I' for Inactive)
REMARK    1  A    between atoms: C_4  and  C_12
REMARK    2  A    between atoms: C_7  and  O_22
REMARK    3  A    between atoms: C_11  and  O_24
REMARK    4  A    between atoms: C_15  and  O_18
REMARK    5  A    between atoms: C_17  and  O_20
REMARK                            x       y       z     vdW  Elec       q    Type
REMARK                         _______ _______ _______ _____ _____    ______ ____
ROOT
ATOM      1  O   UNL     1     -34.938  24.786   6.181  0.00  0.00    -0.450 OA
ATOM      2  O   UNL     1     -35.041  25.370   2.144  0.00  0.00    -0.286 OA
ATOM      3  C   UNL     1     -34.159  26.006   4.232  0.00  0.00    +0.107 C 
ATOM      4  C   UNL     1     -35.801  24.108   4.015  0.00  0.00    +0.077 C 
ATOM      5  C   UNL     1     -34.172  25.768   5.606  0.00  0.00    +0.154 C 
ATOM      6  C   UNL     1     -35.001  25.175   3.352  0.00  0.00    +0.204 C 
ATOM      7  C   UNL     1     -33.359  27.021   3.702  0.00  0.00    +0.143 C 
ATOM      8  C   UNL     1     -35.702  24.005   5.349  0.00  0.00    +0.183 C 
ATOM      9  C   UNL     1     -33.385  26.545   6.457  0.00  0.00    +0.074 C 
ATOM     10  C   UNL     1     -32.572  27.797   4.555  0.00  0.00    +0.073 C 
ATOM     11  C   UNL     1     -32.586  27.559   5.930  0.00  0.00    +0.140 C 
ENDROOT
BRANCH   4  12
ATOM     12  C   UNL     1     -36.653  23.184   3.249  0.00  0.00    +0.009 C 
ATOM     13  C   UNL     1     -36.201  21.898   2.949  0.00  0.00    +0.040 C 
ATOM     14  C   UNL     1     -37.918  23.591   2.820  0.00  0.00    +0.004 C 
ATOM     15  C   UNL     1     -37.008  21.021   2.225  0.00  0.00    +0.167 C 
ATOM     16  C   UNL     1     -38.727  22.715   2.095  0.00  0.00    +0.040 C 
ATOM     17  C   UNL     1     -38.271  21.431   1.797  0.00  0.00    +0.167 C 
BRANCH  15  18
ATOM     18  O   UNL     1     -36.553  19.770   1.938  0.00  0.00    -0.503 OA
ATOM     19  H   UNL     1     -35.648  19.561   2.065  0.00  0.00    +0.292 HD
ENDBRANCH  15  18
BRANCH  17  20
ATOM     20  O   UNL     1     -39.070  20.584   1.089  0.00  0.00    -0.503 OA
ATOM     21  H   UNL     1     -39.420  20.850   0.262  0.00  0.00    +0.292 HD
ENDBRANCH  17  20
ENDBRANCH   4  12
BRANCH   7  22
ATOM     22  O   UNL     1     -33.308  27.294   2.367  0.00  0.00    -0.505 OA
ATOM     23  H   UNL     1     -33.117  28.163   2.074  0.00  0.00    +0.292 HD
ENDBRANCH   7  22
BRANCH  11  24
ATOM     24  O   UNL     1     -31.817  28.320   6.757  0.00  0.00    -0.505 OA
ATOM     25  H   UNL     1     -31.833  28.168   7.682  0.00  0.00    +0.292 HD
ENDBRANCH  11  24
TORSDOF 5
ENDMDL
MODEL 7
REMARK VINA RESULT:      -5.9      3.367      6.147
REMARK  Name = 5281801
REMARK  5 active torsions:
REMARK  status: ('A' for Active; 'I' for Inactive)
REMARK    1  A    between atoms: C_4  and  C_12
REMARK    2  A    between atoms: C_7  and  O_22
REMARK    3  A    between atoms: C_11  and  O_24
REMARK    4  A    between atoms: C_15  and  O_18
REMARK    5  A    between atoms: C_17  and  O_20
REMARK                            x       y       z     vdW  Elec       q    Type
REMARK                         _______ _______ _______ _____ _____    ______ ____
ROOT
ATOM      1  O   UNL     1     -32.803  27.740   4.063  0.00  0.00    -0.450 OA
ATOM      2  O   UNL     1     -36.403  26.859   2.357  0.00  0.00    -0.286 OA
ATOM      3  C   UNL     1     -34.775  28.484   2.859  0.00  0.00    +0.107 C 
ATOM      4  C   UNL     1     -34.468  26.066   3.495  0.00  0.00    +0.077 C 
ATOM      5  C   UNL     1     -33.544  28.728   3.466  0.00  0.00    +0.154 C 
ATOM      6  C   UNL     1     -35.313  27.110   2.854  0.00  0.00    +0.204 C 
ATOM      7  C   UNL     1     -35.487  29.530   2.266  0.00  0.00    +0.143 C 
ATOM      8  C   UNL     1     -33.304  26.462   4.034  0.00  0.00    +0.183 C 
ATOM      9  C   UNL     1     -33.018  30.021   3.485  0.00  0.00    +0.074 C 
ATOM     10  C   UNL     1     -34.959  30.821   2.285  0.00  0.00    +0.073 C 
ATOM     11  C   UNL     1     -33.727  31.066   2.894  0.00  0.00    +0.140 C 
ENDROOT
BRANCH   4  12
ATOM     12  C   UNL     1     -34.869  24.650   3.525  0.00  0.00    +0.009 C 
ATOM     13  C   UNL     1     -35.298  24.068   4.719  0.00  0.00    +0.040 C 
ATOM     14  C   UNL     1     -34.822  23.884   2.358  0.00  0.00    +0.004 C 
ATOM     15  C   UNL     1     -35.679  22.726   4.748  0.00  0.00    +0.167 C 
ATOM     16  C   UNL     1     -35.202  22.542   2.386  0.00  0.00    +0.040 C 
ATOM     17  C   UNL     1     -35.630  21.964   3.581  0.00  0.00    +0.167 C 
BRANCH  15  18
ATOM     18  O   UNL     1     -36.094  22.171   5.920  0.00  0.00    -0.503 OA
ATOM     19  H   UNL     1     -36.093  22.682   6.706  0.00  0.00    +0.292 HD
ENDBRANCH  15  18
BRANCH  17  20
ATOM     20  O   UNL     1     -36.001  20.652   3.596  0.00  0.00    -0.503 OA
ATOM     21  H   UNL     1     -36.567  20.333   4.270  0.00  0.00    +0.292 HD
ENDBRANCH  17  20
ENDBRANCH   4  12
BRANCH   7  22
ATOM     22  O   UNL     1     -36.693  29.346   1.657  0.00  0.00    -0.505 OA
ATOM     23  H   UNL     1     -37.258  28.653   1.938  0.00  0.00    +0.292 HD
ENDBRANCH   7  22
BRANCH  11  24
ATOM     24  O   UNL     1     -33.218  32.328   2.910  0.00  0.00    -0.505 OA
ATOM     25  H   UNL     1     -32.736  32.630   3.656  0.00  0.00    +0.292 HD
ENDBRANCH  11  24
TORSDOF 5
ENDMDL
MODEL 8
REMARK VINA RESULT:      -5.9      3.839      7.354
REMARK  Name = 5281801
REMARK  5 active torsions:
REMARK  status: ('A' for Active; 'I' for Inactive)
REMARK    1  A    between atoms: C_4  and  C_12
REMARK    2  A    between atoms: C_7  and  O_22
REMARK    3  A    between atoms: C_11  and  O_24
REMARK    4  A    between atoms: C_15  and  O_18
REMARK    5  A    between atoms: C_17  and  O_20
REMARK                            x       y       z     vdW  Elec       q    Type
REMARK                         _______ _______ _______ _____ _____    ______ ____
ROOT
ATOM      1  O   UNL     1     -35.636  22.682   2.825  0.00  0.00    -0.450 OA
ATOM      2  O   UNL     1     -37.139  26.331   3.862  0.00  0.00    -0.286 OA
ATOM      3  C   UNL     1     -37.554  24.145   3.089  0.00  0.00    +0.107 C 
ATOM      4  C   UNL     1     -35.229  24.922   3.670  0.00  0.00    +0.077 C 
ATOM      5  C   UNL     1     -36.983  22.923   2.739  0.00  0.00    +0.154 C 
ATOM      6  C   UNL     1     -36.682  25.233   3.572  0.00  0.00    +0.204 C 
ATOM      7  C   UNL     1     -38.934  24.335   2.980  0.00  0.00    +0.143 C 
ATOM      8  C   UNL     1     -34.836  23.695   3.296  0.00  0.00    +0.183 C 
ATOM      9  C   UNL     1     -37.790  21.882   2.276  0.00  0.00    +0.074 C 
ATOM     10  C   UNL     1     -39.739  23.293   2.518  0.00  0.00    +0.073 C 
ATOM     11  C   UNL     1     -39.167  22.069   2.166  0.00  0.00    +0.140 C 
ENDROOT
BRANCH   4  12
ATOM     12  C   UNL     1     -34.255  25.904   4.173  0.00  0.00    +0.009 C 
ATOM     13  C   UNL     1     -34.003  26.003   5.542  0.00  0.00    +0.040 C 
ATOM     14  C   UNL     1     -33.578  26.740   3.281  0.00  0.00    +0.004 C 
ATOM     15  C   UNL     1     -33.079  26.933   6.019  0.00  0.00    +0.167 C 
ATOM     16  C   UNL     1     -32.655  27.670   3.757  0.00  0.00    +0.040 C 
ATOM     17  C   UNL     1     -32.405  27.767   5.126  0.00  0.00    +0.167 C 
BRANCH  15  18
ATOM     18  O   UNL     1     -32.844  27.020   7.358  0.00  0.00    -0.503 OA
ATOM     19  H   UNL     1     -33.009  26.282   7.910  0.00  0.00    +0.292 HD
ENDBRANCH  15  18
BRANCH  17  20
ATOM     20  O   UNL     1     -31.500  28.678   5.580  0.00  0.00    -0.503 OA
ATOM     21  H   UNL     1     -31.619  29.589   5.396  0.00  0.00    +0.292 HD
ENDBRANCH  17  20
ENDBRANCH   4  12
BRANCH   7  22
ATOM     22  O   UNL     1     -39.543  25.509   3.311  0.00  0.00    -0.505 OA
ATOM     23  H   UNL     1     -39.208  26.028   4.014  0.00  0.00    +0.292 HD
ENDBRANCH   7  22
BRANCH  11  24
ATOM     24  O   UNL     1     -39.958  21.056   1.715  0.00  0.00    -0.505 OA
ATOM     25  H   UNL     1     -39.678  20.530   0.991  0.00  0.00    +0.292 HD
ENDBRANCH  11  24
TORSDOF 5
ENDMDL
MODEL 9
REMARK VINA RESULT:      -5.7      1.996      7.065
REMARK  Name = 5281801
REMARK  5 active torsions:
REMARK  status: ('A' for Active; 'I' for Inactive)
REMARK    1  A    between atoms: C_4  and  C_12
REMARK    2  A    between atoms: C_7  and  O_22
REMARK    3  A    between atoms: C_11  and  O_24
REMARK    4  A    between atoms: C_15  and  O_18
REMARK    5  A    between atoms: C_17  and  O_20
REMARK                            x       y       z     vdW  Elec       q    Type
REMARK                         _______ _______ _______ _____ _____    ______ ____
ROOT
ATOM      1  O   UNL     1     -35.028  19.893   2.655  0.00  0.00    -0.450 OA
ATOM      2  O   UNL     1     -34.494  23.324   0.514  0.00  0.00    -0.286 OA
ATOM      3  C   UNL     1     -33.858  21.090   0.899  0.00  0.00    +0.107 C 
ATOM      4  C   UNL     1     -35.709  22.181   2.214  0.00  0.00    +0.077 C 
ATOM      5  C   UNL     1     -34.077  19.949   1.669  0.00  0.00    +0.154 C 
ATOM      6  C   UNL     1     -34.675  22.293   1.148  0.00  0.00    +0.204 C 
ATOM      7  C   UNL     1     -32.873  21.091  -0.093  0.00  0.00    +0.143 C 
ATOM      8  C   UNL     1     -35.798  21.011   2.864  0.00  0.00    +0.183 C 
ATOM      9  C   UNL     1     -33.312  18.802   1.452  0.00  0.00    +0.074 C 
ATOM     10  C   UNL     1     -32.110  19.943  -0.308  0.00  0.00    +0.073 C 
ATOM     11  C   UNL     1     -32.329  18.801   0.464  0.00  0.00    +0.140 C 
ENDROOT
BRANCH   4  12
ATOM     12  C   UNL     1     -36.617  23.293   2.536  0.00  0.00    +0.009 C 
ATOM     13  C   UNL     1     -36.312  24.168   3.580  0.00  0.00    +0.040 C 
ATOM     14  C   UNL     1     -37.789  23.477   1.798  0.00  0.00    +0.004 C 
ATOM     15  C   UNL     1     -37.172  25.223   3.885  0.00  0.00    +0.167 C 
ATOM     16  C   UNL     1     -38.650  24.532   2.103  0.00  0.00    +0.040 C 
ATOM     17  C   UNL     1     -38.342  25.404   3.147  0.00  0.00    +0.167 C 
BRANCH  15  18
ATOM     18  O   UNL     1     -36.862  26.068   4.907  0.00  0.00    -0.503 OA
ATOM     19  H   UNL     1     -36.591  25.721   5.735  0.00  0.00    +0.292 HD
ENDBRANCH  15  18
BRANCH  17  20
ATOM     20  O   UNL     1     -39.190  26.431   3.434  0.00  0.00    -0.503 OA
ATOM     21  H   UNL     1     -39.157  26.845   4.274  0.00  0.00    +0.292 HD
ENDBRANCH  17  20
ENDBRANCH   4  12
BRANCH   7  22
ATOM     22  O   UNL     1     -32.619  22.178  -0.875  0.00  0.00    -0.505 OA
ATOM     23  H   UNL     1     -33.040  22.266  -1.707  0.00  0.00    +0.292 HD
ENDBRANCH   7  22
BRANCH  11  24
ATOM     24  O   UNL     1     -31.581  17.684   0.249  0.00  0.00    -0.505 OA
ATOM     25  H   UNL     1     -31.971  16.926  -0.143  0.00  0.00    +0.292 HD
ENDBRANCH  11  24
TORSDOF 5
ENDMDL
