MODEL 1
REMARK VINA RESULT:      -5.7      0.000      0.000
REMARK  Name = 5487797
REMARK  12 active torsions:
REMARK  status: ('A' for Active; 'I' for Inactive)
REMARK    1  A    between atoms: N_1  and  CA_4
REMARK    2  A    between atoms: N_1  and  CA_15
REMARK    3  A    between atoms: CA_4  and  C_6
REMARK    4  A    between atoms: CA_4  and  CB_9
REMARK    5  A    between atoms: C_6  and  O_7
REMARK    6  A    between atoms: CB_9  and  CG_10
REMARK    7  A    between atoms: CG_10  and  CD_12
REMARK    8  A    between atoms: CD_12  and  OE1_13
REMARK    9  A    between atoms: CA_15  and  C_17
REMARK   10  A    between atoms: CA_15  and  CB_20
REMARK   11  A    between atoms: C_17  and  O_18
REMARK   12  A    between atoms: CB_20  and  CG_23
REMARK                            x       y       z     vdW  Elec       q    Type
REMARK                         _______ _______ _______ _____ _____    ______ ____
ROOT
ATOM      1  N   ASN A   1     -36.719  22.359   3.850  0.00  0.00    +0.401 N 
ATOM      2  H1  ASN A   1     -37.142  21.544   4.297  0.00  0.00    -0.083 HD
ATOM      3  H2  ASN A   1     -37.402  23.112   3.767  0.00  0.00    -0.083 HD
ENDROOT
BRANCH   1   4
ATOM      4  CA  ASN A   1     -36.263  21.990   2.512  0.00  0.00    +0.041 C 
BRANCH   4   6
ATOM      5  OXT ASN A   1     -34.765  20.063   2.574  0.00  0.00    -0.253 OA
ATOM      6  C   ASN A   1     -35.902  20.515   2.528  0.00  0.00    +0.293 C 
BRANCH   6   7
ATOM      7  O   ASN A   1     -37.004  19.721   2.482  0.00  0.00    -0.482 OA
ATOM      8  H   ASN A   1     -37.084  18.997   3.070  0.00  0.00    +0.295 HD
ENDBRANCH   6   7
ENDBRANCH   4   6
BRANCH   4   9
ATOM      9  CB  ASN A   1     -37.305  22.322   1.433  0.00  0.00    +0.001 C 
BRANCH   9  10
ATOM     10  CG  ASN A   1     -38.609  22.958   1.925  0.00  0.00    +0.108 C 
BRANCH  10  12
ATOM     11  OE2 ASN A   1     -40.734  22.441   0.900  0.00  0.00    -0.250 OA
ATOM     12  CD  ASN A   1     -39.835  22.118   1.664  0.00  0.00    +0.314 C 
BRANCH  12  13
ATOM     13  OE1 ASN A   1     -39.829  20.954   2.359  0.00  0.00    -0.480 OA
ATOM     14  HE1 ASN A   1     -40.632  20.604   2.692  0.00  0.00    +0.295 HD
ENDBRANCH  12  13
ENDBRANCH  10  12
ENDBRANCH   9  10
ENDBRANCH   4   9
ENDBRANCH   1   4
BRANCH   1  15
ATOM     15  CA  ASN A   1     -35.608  22.826   4.664  0.00  0.00    +0.050 C 
BRANCH  15  17
ATOM     16  OXT ASN A   1     -36.056  22.090   6.950  0.00  0.00    -0.253 OA
ATOM     17  C   ASN A   1     -35.525  21.895   5.864  0.00  0.00    +0.294 C 
BRANCH  17  18
ATOM     18  O   ASN A   1     -34.761  20.802   5.608  0.00  0.00    -0.482 OA
ATOM     19  H   ASN A   1     -34.008  20.621   6.136  0.00  0.00    +0.295 HD
ENDBRANCH  17  18
ENDBRANCH  15  17
BRANCH  15  20
ATOM     20  CB  ASN A   1     -35.875  24.263   5.117  0.00  0.00    +0.074 C 
BRANCH  20  23
ATOM     21  OD1 ASN A   1     -33.556  24.656   4.601  0.00  0.00    -0.275 OA
ATOM     22  ND2 ASN A   1     -34.788  26.399   5.460  0.00  0.00    -0.329 N 
ATOM     23  CG  ASN A   1     -34.620  25.107   5.019  0.00  0.00    +0.218 C 
ATOM     24 HD21 ASN A   1     -34.030  27.028   5.438  0.00  0.00    +0.145 HD
ATOM     25 HD22 ASN A   1     -35.663  26.695   5.798  0.00  0.00    +0.145 HD
ENDBRANCH  20  23
ENDBRANCH  15  20
ENDBRANCH   1  15
TORSDOF 12
ENDMDL
MODEL 2
REMARK VINA RESULT:      -5.7      1.826      2.016
REMARK  Name = 5487797
REMARK  12 active torsions:
REMARK  status: ('A' for Active; 'I' for Inactive)
REMARK    1  A    between atoms: N_1  and  CA_4
REMARK    2  A    between atoms: N_1  and  CA_15
REMARK    3  A    between atoms: CA_4  and  C_6
REMARK    4  A    between atoms: CA_4  and  CB_9
REMARK    5  A    between atoms: C_6  and  O_7
REMARK    6  A    between atoms: CB_9  and  CG_10
REMARK    7  A    between atoms: CG_10  and  CD_12
REMARK    8  A    between atoms: CD_12  and  OE1_13
REMARK    9  A    between atoms: CA_15  and  C_17
REMARK   10  A    between atoms: CA_15  and  CB_20
REMARK   11  A    between atoms: C_17  and  O_18
REMARK   12  A    between atoms: CB_20  and  CG_23
REMARK                            x       y       z     vdW  Elec       q    Type
REMARK                         _______ _______ _______ _____ _____    ______ ____
ROOT
ATOM      1  N   ASN A   1     -36.672  22.440   3.972  0.00  0.00    +0.401 N 
ATOM      2  H1  ASN A   1     -36.866  21.471   4.229  0.00  0.00    -0.083 HD
ATOM      3  H2  ASN A   1     -37.480  23.028   4.171  0.00  0.00    -0.083 HD
ENDROOT
BRANCH   1   4
ATOM      4  CA  ASN A   1     -36.382  22.507   2.541  0.00  0.00    +0.041 C 
BRANCH   4   6
ATOM      5  OXT ASN A   1     -35.492  20.791   1.050  0.00  0.00    -0.253 OA
ATOM      6  C   ASN A   1     -36.144  21.093   2.041  0.00  0.00    +0.293 C 
BRANCH   6   7
ATOM      7  O   ASN A   1     -36.750  20.166   2.829  0.00  0.00    -0.482 OA
ATOM      8  H   ASN A   1     -36.275  19.764   3.529  0.00  0.00    +0.295 HD
ENDBRANCH   6   7
ENDBRANCH   4   6
BRANCH   4   9
ATOM      9  CB  ASN A   1     -37.497  23.220   1.758  0.00  0.00    +0.001 C 
BRANCH   9  10
ATOM     10  CG  ASN A   1     -37.582  24.739   1.936  0.00  0.00    +0.108 C 
BRANCH  10  12
ATOM     11  OE2 ASN A   1     -39.258  24.425   3.646  0.00  0.00    -0.250 OA
ATOM     12  CD  ASN A   1     -38.482  25.173   3.066  0.00  0.00    +0.314 C 
BRANCH  12  13
ATOM     13  OE1 ASN A   1     -38.331  26.483   3.383  0.00  0.00    -0.480 OA
ATOM     14  HE1 ASN A   1     -37.557  26.941   3.122  0.00  0.00    +0.295 HD
ENDBRANCH  12  13
ENDBRANCH  10  12
ENDBRANCH   9  10
ENDBRANCH   4   9
ENDBRANCH   1   4
BRANCH   1  15
ATOM     15  CA  ASN A   1     -35.540  22.921   4.750  0.00  0.00    +0.050 C 
BRANCH  15  17
ATOM     16  OXT ASN A   1     -35.212  22.134   7.039  0.00  0.00    -0.253 OA
ATOM     17  C   ASN A   1     -35.293  21.892   5.841  0.00  0.00    +0.294 C 
BRANCH  17  18
ATOM     18  O   ASN A   1     -35.144  20.640   5.336  0.00  0.00    -0.482 OA
ATOM     19  H   ASN A   1     -34.287  20.272   5.237  0.00  0.00    +0.295 HD
ENDBRANCH  17  18
ENDBRANCH  15  17
BRANCH  15  20
ATOM     20  CB  ASN A   1     -35.885  24.281   5.361  0.00  0.00    +0.074 C 
BRANCH  20  23
ATOM     21  OD1 ASN A   1     -33.751  25.127   4.633  0.00  0.00    -0.275 OA
ATOM     22  ND2 ASN A   1     -35.522  26.592   4.738  0.00  0.00    -0.329 N 
ATOM     23  CG  ASN A   1     -34.935  25.355   4.869  0.00  0.00    +0.218 C 
ATOM     24 HD21 ASN A   1     -34.989  27.359   4.425  0.00  0.00    +0.145 HD
ATOM     25 HD22 ASN A   1     -36.473  26.713   4.958  0.00  0.00    +0.145 HD
ENDBRANCH  20  23
ENDBRANCH  15  20
ENDBRANCH   1  15
TORSDOF 12
ENDMDL
MODEL 3
REMARK VINA RESULT:      -5.6      2.145      5.338
REMARK  Name = 5487797
REMARK  12 active torsions:
REMARK  status: ('A' for Active; 'I' for Inactive)
REMARK    1  A    between atoms: N_1  and  CA_4
REMARK    2  A    between atoms: N_1  and  CA_15
REMARK    3  A    between atoms: CA_4  and  C_6
REMARK    4  A    between atoms: CA_4  and  CB_9
REMARK    5  A    between atoms: C_6  and  O_7
REMARK    6  A    between atoms: CB_9  and  CG_10
REMARK    7  A    between atoms: CG_10  and  CD_12
REMARK    8  A    between atoms: CD_12  and  OE1_13
REMARK    9  A    between atoms: CA_15  and  C_17
REMARK   10  A    between atoms: CA_15  and  CB_20
REMARK   11  A    between atoms: C_17  and  O_18
REMARK   12  A    between atoms: CB_20  and  CG_23
REMARK                            x       y       z     vdW  Elec       q    Type
REMARK                         _______ _______ _______ _____ _____    ______ ____
ROOT
ATOM      1  N   ASN A   1     -36.914  22.869   4.181  0.00  0.00    +0.401 N 
ATOM      2  H1  ASN A   1     -37.712  23.269   4.677  0.00  0.00    -0.083 HD
ATOM      3  H2  ASN A   1     -37.091  21.891   3.955  0.00  0.00    -0.083 HD
ENDROOT
BRANCH   1   4
ATOM      4  CA  ASN A   1     -35.731  22.947   5.034  0.00  0.00    +0.041 C 
BRANCH   4   6
ATOM      5  OXT ASN A   1     -35.175  20.696   4.270  0.00  0.00    -0.253 OA
ATOM      6  C   ASN A   1     -35.134  21.555   5.141  0.00  0.00    +0.293 C 
BRANCH   6   7
ATOM      7  O   ASN A   1     -34.530  21.351   6.342  0.00  0.00    -0.482 OA
ATOM      8  H   ASN A   1     -34.768  21.875   7.080  0.00  0.00    +0.295 HD
ENDBRANCH   6   7
ENDBRANCH   4   6
BRANCH   4   9
ATOM      9  CB  ASN A   1     -34.713  23.978   4.520  0.00  0.00    +0.001 C 
BRANCH   9  10
ATOM     10  CG  ASN A   1     -34.477  25.199   5.414  0.00  0.00    +0.108 C 
BRANCH  10  12
ATOM     11  OE2 ASN A   1     -34.752  27.285   4.229  0.00  0.00    -0.250 OA
ATOM     12  CD  ASN A   1     -35.221  26.434   4.971  0.00  0.00    +0.314 C 
BRANCH  12  13
ATOM     13  OE1 ASN A   1     -36.479  26.495   5.475  0.00  0.00    -0.480 OA
ATOM     14  HE1 ASN A   1     -37.153  26.940   4.999  0.00  0.00    +0.295 HD
ENDBRANCH  12  13
ENDBRANCH  10  12
ENDBRANCH   9  10
ENDBRANCH   4   9
ENDBRANCH   1   4
BRANCH   1  15
ATOM     15  CA  ASN A   1     -36.706  23.604   2.942  0.00  0.00    +0.050 C 
BRANCH  15  17
ATOM     16  OXT ASN A   1     -38.115  25.282   1.863  0.00  0.00    -0.253 OA
ATOM     17  C   ASN A   1     -37.809  24.647   2.864  0.00  0.00    +0.294 C 
BRANCH  17  18
ATOM     18  O   ASN A   1     -38.426  24.826   4.061  0.00  0.00    -0.482 OA
ATOM     19  H   ASN A   1     -39.043  25.523   4.172  0.00  0.00    +0.295 HD
ENDBRANCH  17  18
ENDBRANCH  15  17
BRANCH  15  20
ATOM     20  CB  ASN A   1     -36.794  22.640   1.757  0.00  0.00    +0.074 C 
BRANCH  20  23
ATOM     21  OD1 ASN A   1     -38.966  21.701   2.205  0.00  0.00    -0.275 OA
ATOM     22  ND2 ASN A   1     -37.162  20.276   2.131  0.00  0.00    -0.329 N 
ATOM     23  CG  ASN A   1     -37.763  21.510   2.046  0.00  0.00    +0.218 C 
ATOM     24 HD21 ASN A   1     -37.705  19.476   2.316  0.00  0.00    +0.145 HD
ATOM     25 HD22 ASN A   1     -36.189  20.191   2.007  0.00  0.00    +0.145 HD
ENDBRANCH  20  23
ENDBRANCH  15  20
ENDBRANCH   1  15
TORSDOF 12
ENDMDL
MODEL 4
REMARK VINA RESULT:      -5.6      1.894      4.125
REMARK  Name = 5487797
REMARK  12 active torsions:
REMARK  status: ('A' for Active; 'I' for Inactive)
REMARK    1  A    between atoms: N_1  and  CA_4
REMARK    2  A    between atoms: N_1  and  CA_15
REMARK    3  A    between atoms: CA_4  and  C_6
REMARK    4  A    between atoms: CA_4  and  CB_9
REMARK    5  A    between atoms: C_6  and  O_7
REMARK    6  A    between atoms: CB_9  and  CG_10
REMARK    7  A    between atoms: CG_10  and  CD_12
REMARK    8  A    between atoms: CD_12  and  OE1_13
REMARK    9  A    between atoms: CA_15  and  C_17
REMARK   10  A    between atoms: CA_15  and  CB_20
REMARK   11  A    between atoms: C_17  and  O_18
REMARK   12  A    between atoms: CB_20  and  CG_23
REMARK                            x       y       z     vdW  Elec       q    Type
REMARK                         _______ _______ _______ _____ _____    ______ ____
ROOT
ATOM      1  N   ASN A   1     -37.548  22.067   3.168  0.00  0.00    +0.401 N 
ATOM      2  H1  ASN A   1     -37.979  21.142   3.177  0.00  0.00    -0.083 HD
ATOM      3  H2  ASN A   1     -37.494  22.443   4.115  0.00  0.00    -0.083 HD
ENDROOT
BRANCH   1   4
ATOM      4  CA  ASN A   1     -38.361  22.967   2.353  0.00  0.00    +0.041 C 
BRANCH   4   6
ATOM      5  OXT ASN A   1     -40.510  22.670   1.232  0.00  0.00    -0.253 OA
ATOM      6  C   ASN A   1     -39.591  22.203   1.892  0.00  0.00    +0.293 C 
BRANCH   6   7
ATOM      7  O   ASN A   1     -39.567  20.907   2.300  0.00  0.00    -0.482 OA
ATOM      8  H   ASN A   1     -40.065  20.642   3.047  0.00  0.00    +0.295 HD
ENDBRANCH   6   7
ENDBRANCH   4   6
BRANCH   4   9
ATOM      9  CB  ASN A   1     -38.727  24.258   3.103  0.00  0.00    +0.001 C 
BRANCH   9  10
ATOM     10  CG  ASN A   1     -38.071  25.544   2.594  0.00  0.00    +0.108 C 
BRANCH  10  12
ATOM     11  OE2 ASN A   1     -35.724  26.079   2.794  0.00  0.00    -0.250 OA
ATOM     12  CD  ASN A   1     -36.811  25.921   3.333  0.00  0.00    +0.314 C 
BRANCH  12  13
ATOM     13  OE1 ASN A   1     -37.013  26.082   4.665  0.00  0.00    -0.480 OA
ATOM     14  HE1 ASN A   1     -37.837  25.851   5.045  0.00  0.00    +0.295 HD
ENDBRANCH  12  13
ENDBRANCH  10  12
ENDBRANCH   9  10
ENDBRANCH   4   9
ENDBRANCH   1   4
BRANCH   1  15
ATOM     15  CA  ASN A   1     -36.201  21.960   2.631  0.00  0.00    +0.050 C 
BRANCH  15  17
ATOM     16  OXT ASN A   1     -34.752  19.995   2.563  0.00  0.00    -0.253 OA
ATOM     17  C   ASN A   1     -35.877  20.477   2.558  0.00  0.00    +0.294 C 
BRANCH  17  18
ATOM     18  O   ASN A   1     -36.998  19.716   2.462  0.00  0.00    -0.482 OA
ATOM     19  H   ASN A   1     -37.409  19.588   1.629  0.00  0.00    +0.295 HD
ENDBRANCH  17  18
ENDBRANCH  15  17
BRANCH  15  20
ATOM     20  CB  ASN A   1     -35.222  22.678   3.563  0.00  0.00    +0.074 C 
BRANCH  20  23
ATOM     21  OD1 ASN A   1     -36.270  23.297   5.641  0.00  0.00    -0.275 OA
ATOM     22  ND2 ASN A   1     -35.122  21.305   5.555  0.00  0.00    -0.329 N 
ATOM     23  CG  ASN A   1     -35.605  22.474   5.016  0.00  0.00    +0.218 C 
ATOM     24 HD21 ASN A   1     -35.315  21.079   6.494  0.00  0.00    +0.145 HD
ATOM     25 HD22 ASN A   1     -34.582  20.694   5.004  0.00  0.00    +0.145 HD
ENDBRANCH  20  23
ENDBRANCH  15  20
ENDBRANCH   1  15
TORSDOF 12
ENDMDL
MODEL 5
REMARK VINA RESULT:      -5.5      2.282      4.238
REMARK  Name = 5487797
REMARK  12 active torsions:
REMARK  status: ('A' for Active; 'I' for Inactive)
REMARK    1  A    between atoms: N_1  and  CA_4
REMARK    2  A    between atoms: N_1  and  CA_15
REMARK    3  A    between atoms: CA_4  and  C_6
REMARK    4  A    between atoms: CA_4  and  CB_9
REMARK    5  A    between atoms: C_6  and  O_7
REMARK    6  A    between atoms: CB_9  and  CG_10
REMARK    7  A    between atoms: CG_10  and  CD_12
REMARK    8  A    between atoms: CD_12  and  OE1_13
REMARK    9  A    between atoms: CA_15  and  C_17
REMARK   10  A    between atoms: CA_15  and  CB_20
REMARK   11  A    between atoms: C_17  and  O_18
REMARK   12  A    between atoms: CB_20  and  CG_23
REMARK                            x       y       z     vdW  Elec       q    Type
REMARK                         _______ _______ _______ _____ _____    ______ ____
ROOT
ATOM      1  N   ASN A   1     -36.180  24.545   3.601  0.00  0.00    +0.401 N 
ATOM      2  H1  ASN A   1     -36.108  25.521   3.313  0.00  0.00    -0.083 HD
ATOM      3  H2  ASN A   1     -35.468  23.984   3.133  0.00  0.00    -0.083 HD
ENDROOT
BRANCH   1   4
ATOM      4  CA  ASN A   1     -37.498  24.032   3.235  0.00  0.00    +0.041 C 
BRANCH   4   6
ATOM      5  OXT ASN A   1     -38.302  26.307   2.862  0.00  0.00    -0.253 OA
ATOM      6  C   ASN A   1     -38.488  25.182   3.307  0.00  0.00    +0.293 C 
BRANCH   6   7
ATOM      7  O   ASN A   1     -39.638  24.824   3.937  0.00  0.00    -0.482 OA
ATOM      8  H   ASN A   1     -40.436  24.758   3.452  0.00  0.00    +0.295 HD
ENDBRANCH   6   7
ENDBRANCH   4   6
BRANCH   4   9
ATOM      9  CB  ASN A   1     -37.493  23.355   1.854  0.00  0.00    +0.001 C 
BRANCH   9  10
ATOM     10  CG  ASN A   1     -37.643  21.832   1.847  0.00  0.00    +0.108 C 
BRANCH  10  12
ATOM     11  OE2 ASN A   1     -35.300  21.589   2.378  0.00  0.00    -0.250 OA
ATOM     12  CD  ASN A   1     -36.418  21.094   2.327  0.00  0.00    +0.314 C 
BRANCH  12  13
ATOM     13  OE1 ASN A   1     -36.689  19.822   2.712  0.00  0.00    -0.480 OA
ATOM     14  HE1 ASN A   1     -36.438  19.104   2.165  0.00  0.00    +0.295 HD
ENDBRANCH  12  13
ENDBRANCH  10  12
ENDBRANCH   9  10
ENDBRANCH   4   9
ENDBRANCH   1   4
BRANCH   1  15
ATOM     15  CA  ASN A   1     -35.973  24.456   5.038  0.00  0.00    +0.050 C 
BRANCH  15  17
ATOM     16  OXT ASN A   1     -34.507  26.213   5.891  0.00  0.00    -0.253 OA
ATOM     17  C   ASN A   1     -35.616  25.854   5.515  0.00  0.00    +0.294 C 
BRANCH  17  18
ATOM     18  O   ASN A   1     -36.689  26.687   5.501  0.00  0.00    -0.482 OA
ATOM     19  H   ASN A   1     -37.399  26.548   6.097  0.00  0.00    +0.295 HD
ENDBRANCH  17  18
ENDBRANCH  15  17
BRANCH  15  20
ATOM     20  CB  ASN A   1     -34.830  23.481   5.329  0.00  0.00    +0.074 C 
BRANCH  20  23
ATOM     21  OD1 ASN A   1     -36.257  22.166   6.756  0.00  0.00    -0.275 OA
ATOM     22  ND2 ASN A   1     -34.714  21.065   5.452  0.00  0.00    -0.329 N 
ATOM     23  CG  ASN A   1     -35.356  22.187   5.922  0.00  0.00    +0.218 C 
ATOM     24 HD21 ASN A   1     -34.982  20.174   5.776  0.00  0.00    +0.145 HD
ATOM     25 HD22 ASN A   1     -33.989  21.151   4.793  0.00  0.00    +0.145 HD
ENDBRANCH  20  23
ENDBRANCH  15  20
ENDBRANCH   1  15
TORSDOF 12
ENDMDL
MODEL 6
REMARK VINA RESULT:      -5.5      2.909      5.247
REMARK  Name = 5487797
REMARK  12 active torsions:
REMARK  status: ('A' for Active; 'I' for Inactive)
REMARK    1  A    between atoms: N_1  and  CA_4
REMARK    2  A    between atoms: N_1  and  CA_15
REMARK    3  A    between atoms: CA_4  and  C_6
REMARK    4  A    between atoms: CA_4  and  CB_9
REMARK    5  A    between atoms: C_6  and  O_7
REMARK    6  A    between atoms: CB_9  and  CG_10
REMARK    7  A    between atoms: CG_10  and  CD_12
REMARK    8  A    between atoms: CD_12  and  OE1_13
REMARK    9  A    between atoms: CA_15  and  C_17
REMARK   10  A    between atoms: CA_15  and  CB_20
REMARK   11  A    between atoms: C_17  and  O_18
REMARK   12  A    between atoms: CB_20  and  CG_23
REMARK                            x       y       z     vdW  Elec       q    Type
REMARK                         _______ _______ _______ _____ _____    ______ ____
ROOT
ATOM      1  N   ASN A   1     -35.464  26.628   4.822  0.00  0.00    +0.401 N 
ATOM      2  H1  ASN A   1     -35.512  27.187   5.674  0.00  0.00    -0.083 HD
ATOM      3  H2  ASN A   1     -36.004  27.068   4.078  0.00  0.00    -0.083 HD
ENDROOT
BRANCH   1   4
ATOM      4  CA  ASN A   1     -36.021  25.303   5.087  0.00  0.00    +0.041 C 
BRANCH   4   6
ATOM      5  OXT ASN A   1     -37.631  24.036   3.758  0.00  0.00    -0.253 OA
ATOM      6  C   ASN A   1     -37.227  25.110   4.184  0.00  0.00    +0.293 C 
BRANCH   6   7
ATOM      7  O   ASN A   1     -37.832  26.291   3.884  0.00  0.00    -0.482 OA
ATOM      8  H   ASN A   1     -38.593  26.301   3.338  0.00  0.00    +0.295 HD
ENDBRANCH   6   7
ENDBRANCH   4   6
BRANCH   4   9
ATOM      9  CB  ASN A   1     -34.977  24.189   4.908  0.00  0.00    +0.001 C 
BRANCH   9  10
ATOM     10  CG  ASN A   1     -35.119  22.975   5.831  0.00  0.00    +0.108 C 
BRANCH  10  12
ATOM     11  OE2 ASN A   1     -35.439  21.582   3.884  0.00  0.00    -0.250 OA
ATOM     12  CD  ASN A   1     -35.322  21.672   5.099  0.00  0.00    +0.314 C 
BRANCH  12  13
ATOM     13  OE1 ASN A   1     -35.347  20.602   5.932  0.00  0.00    -0.480 OA
ATOM     14  HE1 ASN A   1     -35.811  19.826   5.684  0.00  0.00    +0.295 HD
ENDBRANCH  12  13
ENDBRANCH  10  12
ENDBRANCH   9  10
ENDBRANCH   4   9
ENDBRANCH   1   4
BRANCH   1  15
ATOM     15  CA  ASN A   1     -34.077  26.527   4.396  0.00  0.00    +0.050 C 
BRANCH  15  17
ATOM     16  OXT ASN A   1     -32.982  26.660   6.575  0.00  0.00    -0.253 OA
ATOM     17  C   ASN A   1     -33.237  27.166   5.490  0.00  0.00    +0.294 C 
BRANCH  17  18
ATOM     18  O   ASN A   1     -32.802  28.404   5.140  0.00  0.00    -0.482 OA
ATOM     19  H   ASN A   1     -32.817  29.102   5.767  0.00  0.00    +0.295 HD
ENDBRANCH  17  18
ENDBRANCH  15  17
BRANCH  15  20
ATOM     20  CB  ASN A   1     -33.895  27.276   3.073  0.00  0.00    +0.074 C 
BRANCH  20  23
ATOM     21  OD1 ASN A   1     -36.063  27.676   2.104  0.00  0.00    -0.275 OA
ATOM     22  ND2 ASN A   1     -35.042  29.402   3.232  0.00  0.00    -0.329 N 
ATOM     23  CG  ASN A   1     -35.115  28.116   2.751  0.00  0.00    +0.218 C 
ATOM     24 HD21 ASN A   1     -35.785  30.029   3.075  0.00  0.00    +0.145 HD
ATOM     25 HD22 ASN A   1     -34.247  29.698   3.731  0.00  0.00    +0.145 HD
ENDBRANCH  20  23
ENDBRANCH  15  20
ENDBRANCH   1  15
TORSDOF 12
ENDMDL
MODEL 7
REMARK VINA RESULT:      -5.5      2.301      5.588
REMARK  Name = 5487797
REMARK  12 active torsions:
REMARK  status: ('A' for Active; 'I' for Inactive)
REMARK    1  A    between atoms: N_1  and  CA_4
REMARK    2  A    between atoms: N_1  and  CA_15
REMARK    3  A    between atoms: CA_4  and  C_6
REMARK    4  A    between atoms: CA_4  and  CB_9
REMARK    5  A    between atoms: C_6  and  O_7
REMARK    6  A    between atoms: CB_9  and  CG_10
REMARK    7  A    between atoms: CG_10  and  CD_12
REMARK    8  A    between atoms: CD_12  and  OE1_13
REMARK    9  A    between atoms: CA_15  and  C_17
REMARK   10  A    between atoms: CA_15  and  CB_20
REMARK   11  A    between atoms: C_17  and  O_18
REMARK   12  A    between atoms: CB_20  and  CG_23
REMARK                            x       y       z     vdW  Elec       q    Type
REMARK                         _______ _______ _______ _____ _____    ______ ____
ROOT
ATOM      1  N   ASN A   1     -37.078  24.360   4.123  0.00  0.00    +0.401 N 
ATOM      2  H1  ASN A   1     -37.559  24.967   4.788  0.00  0.00    -0.083 HD
ATOM      3  H2  ASN A   1     -36.980  23.421   4.508  0.00  0.00    -0.083 HD
ENDROOT
BRANCH   1   4
ATOM      4  CA  ASN A   1     -35.746  24.900   3.858  0.00  0.00    +0.041 C 
BRANCH   4   6
ATOM      5  OXT ASN A   1     -34.747  27.063   4.392  0.00  0.00    -0.253 OA
ATOM      6  C   ASN A   1     -35.625  26.231   4.579  0.00  0.00    +0.293 C 
BRANCH   6   7
ATOM      7  O   ASN A   1     -36.624  26.412   5.484  0.00  0.00    -0.482 OA
ATOM      8  H   ASN A   1     -37.395  26.885   5.242  0.00  0.00    +0.295 HD
ENDBRANCH   6   7
ENDBRANCH   4   6
BRANCH   4   9
ATOM      9  CB  ASN A   1     -34.633  23.919   4.259  0.00  0.00    +0.001 C 
BRANCH   9  10
ATOM     10  CG  ASN A   1     -34.757  23.287   5.648  0.00  0.00    +0.108 C 
BRANCH  10  12
ATOM     11  OE2 ASN A   1     -35.007  21.022   4.848  0.00  0.00    -0.250 OA
ATOM     12  CD  ASN A   1     -35.339  21.896   5.638  0.00  0.00    +0.314 C 
BRANCH  12  13
ATOM     13  OE1 ASN A   1     -36.267  21.709   6.610  0.00  0.00    -0.480 OA
ATOM     14  HE1 ASN A   1     -36.059  21.188   7.361  0.00  0.00    +0.295 HD
ENDBRANCH  12  13
ENDBRANCH  10  12
ENDBRANCH   9  10
ENDBRANCH   4   9
ENDBRANCH   1   4
BRANCH   1  15
ATOM     15  CA  ASN A   1     -37.857  24.283   2.897  0.00  0.00    +0.050 C 
BRANCH  15  17
ATOM     16  OXT ASN A   1     -40.245  24.782   3.026  0.00  0.00    -0.253 OA
ATOM     17  C   ASN A   1     -39.082  25.159   3.104  0.00  0.00    +0.294 C 
BRANCH  17  18
ATOM     18  O   ASN A   1     -38.747  26.448   3.371  0.00  0.00    -0.482 OA
ATOM     19  H   ASN A   1     -38.854  27.107   2.713  0.00  0.00    +0.295 HD
ENDBRANCH  17  18
ENDBRANCH  15  17
BRANCH  15  20
ATOM     20  CB  ASN A   1     -38.271  22.831   2.647  0.00  0.00    +0.074 C 
BRANCH  20  23
ATOM     21  OD1 ASN A   1     -36.201  22.477   1.470  0.00  0.00    -0.275 OA
ATOM     22  ND2 ASN A   1     -37.141  20.691   2.573  0.00  0.00    -0.329 N 
ATOM     23  CG  ASN A   1     -37.093  22.005   2.169  0.00  0.00    +0.218 C 
ATOM     24 HD21 ASN A   1     -36.422  20.070   2.314  0.00  0.00    +0.145 HD
ATOM     25 HD22 ASN A   1     -37.893  20.370   3.121  0.00  0.00    +0.145 HD
ENDBRANCH  20  23
ENDBRANCH  15  20
ENDBRANCH   1  15
TORSDOF 12
ENDMDL
MODEL 8
REMARK VINA RESULT:      -5.4      2.073      4.906
REMARK  Name = 5487797
REMARK  12 active torsions:
REMARK  status: ('A' for Active; 'I' for Inactive)
REMARK    1  A    between atoms: N_1  and  CA_4
REMARK    2  A    between atoms: N_1  and  CA_15
REMARK    3  A    between atoms: CA_4  and  C_6
REMARK    4  A    between atoms: CA_4  and  CB_9
REMARK    5  A    between atoms: C_6  and  O_7
REMARK    6  A    between atoms: CB_9  and  CG_10
REMARK    7  A    between atoms: CG_10  and  CD_12
REMARK    8  A    between atoms: CD_12  and  OE1_13
REMARK    9  A    between atoms: CA_15  and  C_17
REMARK   10  A    between atoms: CA_15  and  CB_20
REMARK   11  A    between atoms: C_17  and  O_18
REMARK   12  A    between atoms: CB_20  and  CG_23
REMARK                            x       y       z     vdW  Elec       q    Type
REMARK                         _______ _______ _______ _____ _____    ______ ____
ROOT
ATOM      1  N   ASN A   1     -35.834  22.878   3.245  0.00  0.00    +0.401 N 
ATOM      2  H1  ASN A   1     -35.454  21.941   3.106  0.00  0.00    -0.083 HD
ATOM      3  H2  ASN A   1     -35.373  23.544   2.625  0.00  0.00    -0.083 HD
ENDROOT
BRANCH   1   4
ATOM      4  CA  ASN A   1     -35.601  23.288   4.629  0.00  0.00    +0.041 C 
BRANCH   4   6
ATOM      5  OXT ASN A   1     -35.967  22.015   6.680  0.00  0.00    -0.253 OA
ATOM      6  C   ASN A   1     -35.640  22.045   5.501  0.00  0.00    +0.293 C 
BRANCH   6   7
ATOM      7  O   ASN A   1     -35.260  20.933   4.818  0.00  0.00    -0.482 OA
ATOM      8  H   ASN A   1     -34.573  20.391   5.151  0.00  0.00    +0.295 HD
ENDBRANCH   6   7
ENDBRANCH   4   6
BRANCH   4   9
ATOM      9  CB  ASN A   1     -34.287  24.070   4.788  0.00  0.00    +0.001 C 
BRANCH   9  10
ATOM     10  CG  ASN A   1     -34.407  25.482   5.369  0.00  0.00    +0.108 C 
BRANCH  10  12
ATOM     11  OE2 ASN A   1     -35.412  26.743   3.571  0.00  0.00    -0.250 OA
ATOM     12  CD  ASN A   1     -35.477  26.321   4.718  0.00  0.00    +0.314 C 
BRANCH  12  13
ATOM     13  OE1 ASN A   1     -36.534  26.550   5.537  0.00  0.00    -0.480 OA
ATOM     14  HE1 ASN A   1     -36.405  26.981   6.359  0.00  0.00    +0.295 HD
ENDBRANCH  12  13
ENDBRANCH  10  12
ENDBRANCH   9  10
ENDBRANCH   4   9
ENDBRANCH   1   4
BRANCH   1  15
ATOM     15  CA  ASN A   1     -37.257  22.865   2.944  0.00  0.00    +0.050 C 
BRANCH  15  17
ATOM     16  OXT ASN A   1     -37.851  21.837   0.809  0.00  0.00    -0.253 OA
ATOM     17  C   ASN A   1     -37.485  21.719   1.972  0.00  0.00    +0.294 C 
BRANCH  17  18
ATOM     18  O   ASN A   1     -37.257  20.510   2.548  0.00  0.00    -0.482 OA
ATOM     19  H   ASN A   1     -36.456  20.053   2.379  0.00  0.00    +0.295 HD
ENDBRANCH  17  18
ENDBRANCH  15  17
BRANCH  15  20
ATOM     20  CB  ASN A   1     -37.654  24.198   2.305  0.00  0.00    +0.074 C 
BRANCH  20  23
ATOM     21  OD1 ASN A   1     -39.693  24.300   3.581  0.00  0.00    -0.275 OA
ATOM     22  ND2 ASN A   1     -38.504  26.246   3.277  0.00  0.00    -0.329 N 
ATOM     23  CG  ASN A   1     -38.722  24.897   3.123  0.00  0.00    +0.218 C 
ATOM     24 HD21 ASN A   1     -39.142  26.791   3.793  0.00  0.00    +0.145 HD
ATOM     25 HD22 ASN A   1     -37.712  26.667   2.872  0.00  0.00    +0.145 HD
ENDBRANCH  20  23
ENDBRANCH  15  20
ENDBRANCH   1  15
TORSDOF 12
ENDMDL
MODEL 9
REMARK VINA RESULT:      -5.4      1.930      3.530
REMARK  Name = 5487797
REMARK  12 active torsions:
REMARK  status: ('A' for Active; 'I' for Inactive)
REMARK    1  A    between atoms: N_1  and  CA_4
REMARK    2  A    between atoms: N_1  and  CA_15
REMARK    3  A    between atoms: CA_4  and  C_6
REMARK    4  A    between atoms: CA_4  and  CB_9
REMARK    5  A    between atoms: C_6  and  O_7
REMARK    6  A    between atoms: CB_9  and  CG_10
REMARK    7  A    between atoms: CG_10  and  CD_12
REMARK    8  A    between atoms: CD_12  and  OE1_13
REMARK    9  A    between atoms: CA_15  and  C_17
REMARK   10  A    between atoms: CA_15  and  CB_20
REMARK   11  A    between atoms: C_17  and  O_18
REMARK   12  A    between atoms: CB_20  and  CG_23
REMARK                            x       y       z     vdW  Elec       q    Type
REMARK                         _______ _______ _______ _____ _____    ______ ____
ROOT
ATOM      1  N   ASN A   1     -36.498  23.937   4.839  0.00  0.00    +0.401 N 
ATOM      2  H1  ASN A   1     -36.915  23.743   5.751  0.00  0.00    -0.083 HD
ATOM      3  H2  ASN A   1     -37.200  23.854   4.104  0.00  0.00    -0.083 HD
ENDROOT
BRANCH   1   4
ATOM      4  CA  ASN A   1     -35.433  22.969   4.584  0.00  0.00    +0.041 C 
BRANCH   4   6
ATOM      5  OXT ASN A   1     -35.951  22.019   6.773  0.00  0.00    -0.253 OA
ATOM      6  C   ASN A   1     -35.529  21.875   5.633  0.00  0.00    +0.293 C 
BRANCH   6   7
ATOM      7  O   ASN A   1     -35.081  20.680   5.164  0.00  0.00    -0.482 OA
ATOM      8  H   ASN A   1     -34.453  20.190   5.655  0.00  0.00    +0.295 HD
ENDBRANCH   6   7
ENDBRANCH   4   6
BRANCH   4   9
ATOM      9  CB  ASN A   1     -35.491  22.409   3.153  0.00  0.00    +0.001 C 
BRANCH   9  10
ATOM     10  CG  ASN A   1     -36.889  22.225   2.556  0.00  0.00    +0.108 C 
BRANCH  10  12
ATOM     11  OE2 ASN A   1     -37.550  20.720   0.786  0.00  0.00    -0.250 OA
ATOM     12  CD  ASN A   1     -37.107  20.877   1.915  0.00  0.00    +0.314 C 
BRANCH  12  13
ATOM     13  OE1 ASN A   1     -36.744  19.849   2.723  0.00  0.00    -0.480 OA
ATOM     14  HE1 ASN A   1     -36.813  19.937   3.653  0.00  0.00    +0.295 HD
ENDBRANCH  12  13
ENDBRANCH  10  12
ENDBRANCH   9  10
ENDBRANCH   4   9
ENDBRANCH   1   4
BRANCH   1  15
ATOM     15  CA  ASN A   1     -35.974  25.294   4.834  0.00  0.00    +0.050 C 
BRANCH  15  17
ATOM     16  OXT ASN A   1     -35.915  26.342   2.628  0.00  0.00    -0.253 OA
ATOM     17  C   ASN A   1     -36.555  25.980   3.607  0.00  0.00    +0.294 C 
BRANCH  17  18
ATOM     18  O   ASN A   1     -37.894  26.176   3.720  0.00  0.00    -0.482 OA
ATOM     19  H   ASN A   1     -38.260  26.456   4.537  0.00  0.00    +0.295 HD
ENDBRANCH  17  18
ENDBRANCH  15  17
BRANCH  15  20
ATOM     20  CB  ASN A   1     -34.447  25.249   4.752  0.00  0.00    +0.074 C 
BRANCH  20  23
ATOM     21  OD1 ASN A   1     -33.630  26.595   6.574  0.00  0.00    -0.275 OA
ATOM     22  ND2 ASN A   1     -33.553  27.480   4.451  0.00  0.00    -0.329 N 
ATOM     23  CG  ASN A   1     -33.833  26.492   5.367  0.00  0.00    +0.218 C 
ATOM     24 HD21 ASN A   1     -33.152  28.328   4.751  0.00  0.00    +0.145 HD
ATOM     25 HD22 ASN A   1     -33.754  27.340   3.498  0.00  0.00    +0.145 HD
ENDBRANCH  20  23
ENDBRANCH  15  20
ENDBRANCH   1  15
TORSDOF 12
ENDMDL
