MODEL 1
REMARK VINA RESULT:      -6.2      0.000      0.000
REMARK  Name = 5488504
REMARK  6 active torsions:
REMARK  status: ('A' for Active; 'I' for Inactive)
REMARK    1  A    between atoms: C_5  and  C_12
REMARK    2  A    between atoms: C_7  and  O_22
REMARK    3  A    between atoms: C_8  and  O_24
REMARK    4  A    between atoms: C_9  and  O_26
REMARK    5  A    between atoms: C_10  and  O_20
REMARK    6  A    between atoms: C_17  and  O_18
REMARK                            x       y       z     vdW  Elec       q    Type
REMARK                         _______ _______ _______ _____ _____    ______ ____
ROOT
ATOM      1  O   UNL     1     -34.793  20.910   1.678  0.00  0.00    -0.447 OA
ATOM      2  O   UNL     1     -37.937  19.066  -0.143  0.00  0.00    -0.283 OA
ATOM      3  C   UNL     1     -37.185  20.782   1.289  0.00  0.00    +0.113 A 
ATOM      4  C   UNL     1     -36.069  21.367   1.883  0.00  0.00    +0.188 A 
ATOM      5  C   UNL     1     -34.605  19.827   0.834  0.00  0.00    +0.182 A 
ATOM      6  C   UNL     1     -36.995  19.624   0.402  0.00  0.00    +0.238 A 
ATOM      7  C   UNL     1     -35.598  19.168   0.207  0.00  0.00    +0.208 A 
ATOM      8  C   UNL     1     -36.224  22.465   2.730  0.00  0.00    +0.203 C 
ATOM      9  C   UNL     1     -38.463  21.290   1.535  0.00  0.00    +0.143 C 
ATOM     10  C   UNL     1     -37.498  22.976   2.978  0.00  0.00    +0.178 C 
ATOM     11  C   UNL     1     -38.616  22.389   2.383  0.00  0.00    +0.077 C 
ENDROOT
BRANCH   5  12
ATOM     12  C   UNL     1     -33.190  19.439   0.702  0.00  0.00    +0.038 C 
ATOM     13  C   UNL     1     -32.319  20.220  -0.059  0.00  0.00    +0.006 C 
ATOM     14  C   UNL     1     -32.721  18.289   1.338  0.00  0.00    +0.006 C 
ATOM     15  C   UNL     1     -30.980  19.852  -0.183  0.00  0.00    +0.037 C 
ATOM     16  C   UNL     1     -31.381  17.922   1.214  0.00  0.00    +0.037 C 
ATOM     17  C   UNL     1     -30.510  18.703   0.454  0.00  0.00    +0.139 C 
BRANCH  17  18
ATOM     18  O   UNL     1     -29.203  18.345   0.332  0.00  0.00    -0.471 OA
ATOM     19  C   UNL     1     -28.707  17.376   1.255  0.00  0.00    +0.252 C 
ENDBRANCH  17  18
ENDBRANCH   5  12
BRANCH  10  20
ATOM     20  O   UNL     1     -37.666  24.047   3.803  0.00  0.00    -0.468 OA
ATOM     21  C   UNL     1     -38.383  25.162   3.279  0.00  0.00    +0.253 C 
ENDBRANCH  10  20
BRANCH   7  22
ATOM     22  O   UNL     1     -35.379  18.073  -0.602  0.00  0.00    -0.501 OA
ATOM     23  H   UNL     1     -35.908  17.941  -1.364  0.00  0.00    +0.292 HD
ENDBRANCH   7  22
BRANCH   8  24
ATOM     24  O   UNL     1     -35.136  23.042   3.315  0.00  0.00    -0.501 OA
ATOM     25  H   UNL     1     -34.735  23.792   2.923  0.00  0.00    +0.292 HD
ENDBRANCH   8  24
BRANCH   9  26
ATOM     26  O   UNL     1     -39.586  20.757   0.979  0.00  0.00    -0.505 OA
ATOM     27  H   UNL     1     -39.758  20.875   0.065  0.00  0.00    +0.292 HD
ENDBRANCH   9  26
TORSDOF 6
ENDMDL
MODEL 2
REMARK VINA RESULT:      -6.1      7.669     10.513
REMARK  Name = 5488504
REMARK  6 active torsions:
REMARK  status: ('A' for Active; 'I' for Inactive)
REMARK    1  A    between atoms: C_5  and  C_12
REMARK    2  A    between atoms: C_7  and  O_22
REMARK    3  A    between atoms: C_8  and  O_24
REMARK    4  A    between atoms: C_9  and  O_26
REMARK    5  A    between atoms: C_10  and  O_20
REMARK    6  A    between atoms: C_17  and  O_18
REMARK                            x       y       z     vdW  Elec       q    Type
REMARK                         _______ _______ _______ _____ _____    ______ ____
ROOT
ATOM      1  O   UNL     1     -31.677  27.503   5.379  0.00  0.00    -0.447 OA
ATOM      2  O   UNL     1     -32.668  30.892   3.347  0.00  0.00    -0.283 OA
ATOM      3  C   UNL     1     -31.108  29.765   4.711  0.00  0.00    +0.113 A 
ATOM      4  C   UNL     1     -30.829  28.580   5.386  0.00  0.00    +0.188 A 
ATOM      5  C   UNL     1     -32.858  27.594   4.659  0.00  0.00    +0.182 A 
ATOM      6  C   UNL     1     -32.366  29.875   3.955  0.00  0.00    +0.238 A 
ATOM      7  C   UNL     1     -33.249  28.684   3.973  0.00  0.00    +0.208 A 
ATOM      8  C   UNL     1     -29.644  28.453   6.111  0.00  0.00    +0.203 C 
ATOM      9  C   UNL     1     -30.207  30.832   4.753  0.00  0.00    +0.143 C 
ATOM     10  C   UNL     1     -28.741  29.515   6.157  0.00  0.00    +0.178 C 
ATOM     11  C   UNL     1     -29.022  30.703   5.480  0.00  0.00    +0.077 C 
ENDROOT
BRANCH   5  12
ATOM     12  C   UNL     1     -33.675  26.370   4.736  0.00  0.00    +0.038 C 
ATOM     13  C   UNL     1     -33.703  25.480   3.662  0.00  0.00    +0.006 C 
ATOM     14  C   UNL     1     -34.421  26.102   5.884  0.00  0.00    +0.006 C 
ATOM     15  C   UNL     1     -34.476  24.322   3.736  0.00  0.00    +0.037 C 
ATOM     16  C   UNL     1     -35.193  24.943   5.958  0.00  0.00    +0.037 C 
ATOM     17  C   UNL     1     -35.222  24.053   4.885  0.00  0.00    +0.139 C 
BRANCH  17  18
ATOM     18  O   UNL     1     -35.976  22.923   4.956  0.00  0.00    -0.471 OA
ATOM     19  C   UNL     1     -35.550  21.915   5.871  0.00  0.00    +0.252 C 
ENDBRANCH  17  18
ENDBRANCH   5  12
BRANCH  10  20
ATOM     20  O   UNL     1     -27.579  29.406   6.860  0.00  0.00    -0.468 OA
ATOM     21  C   UNL     1     -27.372  30.340   7.917  0.00  0.00    +0.253 C 
ENDBRANCH  10  20
BRANCH   7  22
ATOM     22  O   UNL     1     -34.446  28.754   3.293  0.00  0.00    -0.501 OA
ATOM     23  H   UNL     1     -35.085  28.076   3.397  0.00  0.00    +0.292 HD
ENDBRANCH   7  22
BRANCH   8  24
ATOM     24  O   UNL     1     -29.364  27.295   6.776  0.00  0.00    -0.501 OA
ATOM     25  H   UNL     1     -28.913  26.601   6.337  0.00  0.00    +0.292 HD
ENDBRANCH   8  24
BRANCH   9  26
ATOM     26  O   UNL     1     -30.432  32.011   4.110  0.00  0.00    -0.505 OA
ATOM     27  H   UNL     1     -29.720  32.466   3.704  0.00  0.00    +0.292 HD
ENDBRANCH   9  26
TORSDOF 6
ENDMDL
MODEL 3
REMARK VINA RESULT:      -5.9      3.509      6.637
REMARK  Name = 5488504
REMARK  6 active torsions:
REMARK  status: ('A' for Active; 'I' for Inactive)
REMARK    1  A    between atoms: C_5  and  C_12
REMARK    2  A    between atoms: C_7  and  O_22
REMARK    3  A    between atoms: C_8  and  O_24
REMARK    4  A    between atoms: C_9  and  O_26
REMARK    5  A    between atoms: C_10  and  O_20
REMARK    6  A    between atoms: C_17  and  O_18
REMARK                            x       y       z     vdW  Elec       q    Type
REMARK                         _______ _______ _______ _____ _____    ______ ____
ROOT
ATOM      1  O   UNL     1     -36.378  22.691   2.317  0.00  0.00    -0.447 OA
ATOM      2  O   UNL     1     -40.431  23.092   2.218  0.00  0.00    -0.283 OA
ATOM      3  C   UNL     1     -38.523  21.909   1.496  0.00  0.00    +0.113 A 
ATOM      4  C   UNL     1     -37.135  21.826   1.570  0.00  0.00    +0.188 A 
ATOM      5  C   UNL     1     -37.023  23.683   3.039  0.00  0.00    +0.182 A 
ATOM      6  C   UNL     1     -39.215  22.967   2.249  0.00  0.00    +0.238 A 
ATOM      7  C   UNL     1     -38.355  23.876   3.046  0.00  0.00    +0.208 A 
ATOM      8  C   UNL     1     -36.456  20.833   0.863  0.00  0.00    +0.203 C 
ATOM      9  C   UNL     1     -39.244  21.000   0.717  0.00  0.00    +0.143 C 
ATOM     10  C   UNL     1     -37.172  19.924   0.085  0.00  0.00    +0.178 C 
ATOM     11  C   UNL     1     -38.563  20.007   0.011  0.00  0.00    +0.077 C 
ENDROOT
BRANCH   5  12
ATOM     12  C   UNL     1     -36.095  24.541   3.795  0.00  0.00    +0.038 C 
ATOM     13  C   UNL     1     -35.682  24.167   5.074  0.00  0.00    +0.006 C 
ATOM     14  C   UNL     1     -35.628  25.729   3.232  0.00  0.00    +0.006 C 
ATOM     15  C   UNL     1     -34.803  24.979   5.790  0.00  0.00    +0.037 C 
ATOM     16  C   UNL     1     -34.748  26.541   3.947  0.00  0.00    +0.037 C 
ATOM     17  C   UNL     1     -34.335  26.167   5.226  0.00  0.00    +0.139 C 
BRANCH  17  18
ATOM     18  O   UNL     1     -33.478  26.959   5.924  0.00  0.00    -0.471 OA
ATOM     19  C   UNL     1     -32.562  27.750   5.168  0.00  0.00    +0.252 C 
ENDBRANCH  17  18
ENDBRANCH   5  12
BRANCH  10  20
ATOM     20  O   UNL     1     -36.523  18.948  -0.611  0.00  0.00    -0.468 OA
ATOM     21  C   UNL     1     -36.939  17.604  -0.382  0.00  0.00    +0.253 C 
ENDBRANCH  10  20
BRANCH   7  22
ATOM     22  O   UNL     1     -38.964  24.893   3.750  0.00  0.00    -0.501 OA
ATOM     23  H   UNL     1     -38.617  25.762   3.712  0.00  0.00    +0.292 HD
ENDBRANCH   7  22
BRANCH   8  24
ATOM     24  O   UNL     1     -35.097  20.747   0.931  0.00  0.00    -0.501 OA
ATOM     25  H   UNL     1     -34.678  20.582   1.752  0.00  0.00    +0.292 HD
ENDBRANCH   8  24
BRANCH   9  26
ATOM     26  O   UNL     1     -40.601  21.037   0.612  0.00  0.00    -0.505 OA
ATOM     27  H   UNL     1     -41.134  20.733   1.321  0.00  0.00    +0.292 HD
ENDBRANCH   9  26
TORSDOF 6
ENDMDL
MODEL 4
REMARK VINA RESULT:      -5.9      4.831      9.341
REMARK  Name = 5488504
REMARK  6 active torsions:
REMARK  status: ('A' for Active; 'I' for Inactive)
REMARK    1  A    between atoms: C_5  and  C_12
REMARK    2  A    between atoms: C_7  and  O_22
REMARK    3  A    between atoms: C_8  and  O_24
REMARK    4  A    between atoms: C_9  and  O_26
REMARK    5  A    between atoms: C_10  and  O_20
REMARK    6  A    between atoms: C_17  and  O_18
REMARK                            x       y       z     vdW  Elec       q    Type
REMARK                         _______ _______ _______ _____ _____    ______ ____
ROOT
ATOM      1  O   UNL     1     -38.553  25.581   3.595  0.00  0.00    -0.447 OA
ATOM      2  O   UNL     1     -38.344  21.771   2.166  0.00  0.00    -0.283 OA
ATOM      3  C   UNL     1     -37.340  23.485   3.438  0.00  0.00    +0.113 A 
ATOM      4  C   UNL     1     -37.471  24.795   3.894  0.00  0.00    +0.188 A 
ATOM      5  C   UNL     1     -39.567  25.045   2.816  0.00  0.00    +0.182 A 
ATOM      6  C   UNL     1     -38.406  22.913   2.600  0.00  0.00    +0.238 A 
ATOM      7  C   UNL     1     -39.558  23.799   2.307  0.00  0.00    +0.208 A 
ATOM      8  C   UNL     1     -36.473  25.359   4.688  0.00  0.00    +0.203 C 
ATOM      9  C   UNL     1     -36.214  22.730   3.773  0.00  0.00    +0.143 C 
ATOM     10  C   UNL     1     -35.346  24.609   5.025  0.00  0.00    +0.178 C 
ATOM     11  C   UNL     1     -35.216  23.297   4.568  0.00  0.00    +0.077 C 
ENDROOT
BRANCH   5  12
ATOM     12  C   UNL     1     -40.667  25.993   2.571  0.00  0.00    +0.038 C 
ATOM     13  C   UNL     1     -40.858  26.529   1.298  0.00  0.00    +0.006 C 
ATOM     14  C   UNL     1     -41.519  26.357   3.615  0.00  0.00    +0.006 C 
ATOM     15  C   UNL     1     -41.900  27.427   1.067  0.00  0.00    +0.037 C 
ATOM     16  C   UNL     1     -42.562  27.254   3.384  0.00  0.00    +0.037 C 
ATOM     17  C   UNL     1     -42.753  27.789   2.110  0.00  0.00    +0.139 C 
BRANCH  17  18
ATOM     18  O   UNL     1     -43.769  28.665   1.885  0.00  0.00    -0.471 OA
ATOM     19  C   UNL     1     -44.109  29.553   2.948  0.00  0.00    +0.252 C 
ENDBRANCH  17  18
ENDBRANCH   5  12
BRANCH  10  20
ATOM     20  O   UNL     1     -34.363  25.147   5.801  0.00  0.00    -0.468 OA
ATOM     21  C   UNL     1     -33.577  26.185   5.222  0.00  0.00    +0.253 C 
ENDBRANCH  10  20
BRANCH   7  22
ATOM     22  O   UNL     1     -40.568  23.307   1.508  0.00  0.00    -0.501 OA
ATOM     23  H   UNL     1     -41.179  23.895   1.109  0.00  0.00    +0.292 HD
ENDBRANCH   7  22
BRANCH   8  24
ATOM     24  O   UNL     1     -36.594  26.641   5.138  0.00  0.00    -0.501 OA
ATOM     25  H   UNL     1     -36.713  27.342   4.528  0.00  0.00    +0.292 HD
ENDBRANCH   8  24
BRANCH   9  26
ATOM     26  O   UNL     1     -36.039  21.446   3.355  0.00  0.00    -0.505 OA
ATOM     27  H   UNL     1     -35.336  20.931   3.701  0.00  0.00    +0.292 HD
ENDBRANCH   9  26
TORSDOF 6
ENDMDL
MODEL 5
REMARK VINA RESULT:      -5.9      3.632      6.792
REMARK  Name = 5488504
REMARK  6 active torsions:
REMARK  status: ('A' for Active; 'I' for Inactive)
REMARK    1  A    between atoms: C_5  and  C_12
REMARK    2  A    between atoms: C_7  and  O_22
REMARK    3  A    between atoms: C_8  and  O_24
REMARK    4  A    between atoms: C_9  and  O_26
REMARK    5  A    between atoms: C_10  and  O_20
REMARK    6  A    between atoms: C_17  and  O_18
REMARK                            x       y       z     vdW  Elec       q    Type
REMARK                         _______ _______ _______ _____ _____    ______ ____
ROOT
ATOM      1  O   UNL     1     -35.825  23.425   2.955  0.00  0.00    -0.447 OA
ATOM      2  O   UNL     1     -39.756  24.484   2.804  0.00  0.00    -0.283 OA
ATOM      3  C   UNL     1     -38.094  22.897   2.275  0.00  0.00    +0.113 A 
ATOM      4  C   UNL     1     -36.737  22.594   2.358  0.00  0.00    +0.188 A 
ATOM      5  C   UNL     1     -36.275  24.612   3.511  0.00  0.00    +0.182 A 
ATOM      6  C   UNL     1     -38.577  24.162   2.851  0.00  0.00    +0.238 A 
ATOM      7  C   UNL     1     -37.556  25.026   3.491  0.00  0.00    +0.208 A 
ATOM      8  C   UNL     1     -36.255  21.402   1.817  0.00  0.00    +0.203 C 
ATOM      9  C   UNL     1     -38.979  22.013   1.653  0.00  0.00    +0.143 C 
ATOM     10  C   UNL     1     -37.134  20.516   1.195  0.00  0.00    +0.178 C 
ATOM     11  C   UNL     1     -38.494  20.821   1.112  0.00  0.00    +0.077 C 
ENDROOT
BRANCH   5  12
ATOM     12  C   UNL     1     -35.195  25.409   4.119  0.00  0.00    +0.038 C 
ATOM     13  C   UNL     1     -34.363  26.186   3.314  0.00  0.00    +0.006 C 
ATOM     14  C   UNL     1     -35.005  25.384   5.501  0.00  0.00    +0.006 C 
ATOM     15  C   UNL     1     -33.340  26.940   3.890  0.00  0.00    +0.037 C 
ATOM     16  C   UNL     1     -33.983  26.139   6.077  0.00  0.00    +0.037 C 
ATOM     17  C   UNL     1     -33.151  26.917   5.273  0.00  0.00    +0.139 C 
BRANCH  17  18
ATOM     18  O   UNL     1     -32.153  27.652   5.834  0.00  0.00    -0.471 OA
ATOM     19  C   UNL     1     -31.918  28.950   5.291  0.00  0.00    +0.252 C 
ENDBRANCH  17  18
ENDBRANCH   5  12
BRANCH  10  20
ATOM     20  O   UNL     1     -36.678  19.348   0.662  0.00  0.00    -0.468 OA
ATOM     21  C   UNL     1     -37.513  18.703  -0.297  0.00  0.00    +0.253 C 
ENDBRANCH  10  20
BRANCH   7  22
ATOM     22  O   UNL     1     -37.966  26.228   4.025  0.00  0.00    -0.501 OA
ATOM     23  H   UNL     1     -37.389  26.967   4.014  0.00  0.00    +0.292 HD
ENDBRANCH   7  22
BRANCH   8  24
ATOM     24  O   UNL     1     -34.927  21.099   1.894  0.00  0.00    -0.501 OA
ATOM     25  H   UNL     1     -34.644  20.209   1.818  0.00  0.00    +0.292 HD
ENDBRANCH   8  24
BRANCH   9  26
ATOM     26  O   UNL     1     -40.314  22.261   1.547  0.00  0.00    -0.505 OA
ATOM     27  H   UNL     1     -40.909  21.899   2.174  0.00  0.00    +0.292 HD
ENDBRANCH   9  26
TORSDOF 6
ENDMDL
MODEL 6
REMARK VINA RESULT:      -5.9      2.475      6.349
REMARK  Name = 5488504
REMARK  6 active torsions:
REMARK  status: ('A' for Active; 'I' for Inactive)
REMARK    1  A    between atoms: C_5  and  C_12
REMARK    2  A    between atoms: C_7  and  O_22
REMARK    3  A    between atoms: C_8  and  O_24
REMARK    4  A    between atoms: C_9  and  O_26
REMARK    5  A    between atoms: C_10  and  O_20
REMARK    6  A    between atoms: C_17  and  O_18
REMARK                            x       y       z     vdW  Elec       q    Type
REMARK                         _______ _______ _______ _____ _____    ______ ____
ROOT
ATOM      1  O   UNL     1     -35.172  21.684   2.257  0.00  0.00    -0.447 OA
ATOM      2  O   UNL     1     -39.146  21.250   1.470  0.00  0.00    -0.283 OA
ATOM      3  C   UNL     1     -36.949  20.456   1.150  0.00  0.00    +0.113 A 
ATOM      4  C   UNL     1     -35.605  20.659   1.456  0.00  0.00    +0.188 A 
ATOM      5  C   UNL     1     -36.114  22.547   2.795  0.00  0.00    +0.182 A 
ATOM      6  C   UNL     1     -37.953  21.375   1.707  0.00  0.00    +0.238 A 
ATOM      7  C   UNL     1     -37.439  22.466   2.571  0.00  0.00    +0.208 A 
ATOM      8  C   UNL     1     -34.634  19.802   0.938  0.00  0.00    +0.203 C 
ATOM      9  C   UNL     1     -37.333  19.394   0.327  0.00  0.00    +0.143 C 
ATOM     10  C   UNL     1     -35.013  18.741   0.116  0.00  0.00    +0.178 C 
ATOM     11  C   UNL     1     -36.359  18.538  -0.190  0.00  0.00    +0.077 C 
ENDROOT
BRANCH   5  12
ATOM     12  C   UNL     1     -35.516  23.601   3.634  0.00  0.00    +0.038 C 
ATOM     13  C   UNL     1     -34.969  24.739   3.042  0.00  0.00    +0.006 C 
ATOM     14  C   UNL     1     -35.497  23.459   5.022  0.00  0.00    +0.006 C 
ATOM     15  C   UNL     1     -34.403  25.736   3.837  0.00  0.00    +0.037 C 
ATOM     16  C   UNL     1     -34.932  24.456   5.817  0.00  0.00    +0.037 C 
ATOM     17  C   UNL     1     -34.385  25.594   5.225  0.00  0.00    +0.139 C 
BRANCH  17  18
ATOM     18  O   UNL     1     -33.833  26.567   6.000  0.00  0.00    -0.471 OA
ATOM     19  C   UNL     1     -32.821  27.376   5.404  0.00  0.00    +0.252 C 
ENDBRANCH  17  18
ENDBRANCH   5  12
BRANCH  10  20
ATOM     20  O   UNL     1     -34.076  17.895  -0.397  0.00  0.00    -0.468 OA
ATOM     21  C   UNL     1     -34.151  16.528  -0.001  0.00  0.00    +0.253 C 
ENDBRANCH  10  20
BRANCH   7  22
ATOM     22  O   UNL     1     -38.346  23.360   3.096  0.00  0.00    -0.501 OA
ATOM     23  H   UNL     1     -38.138  23.835   3.876  0.00  0.00    +0.292 HD
ENDBRANCH   7  22
BRANCH   8  24
ATOM     24  O   UNL     1     -33.317  19.996   1.232  0.00  0.00    -0.501 OA
ATOM     25  H   UNL     1     -32.711  20.208   0.550  0.00  0.00    +0.292 HD
ENDBRANCH   8  24
BRANCH   9  26
ATOM     26  O   UNL     1     -38.632  19.150  -0.000  0.00  0.00    -0.505 OA
ATOM     27  H   UNL     1     -39.316  19.366   0.603  0.00  0.00    +0.292 HD
ENDBRANCH   9  26
TORSDOF 6
ENDMDL
MODEL 7
REMARK VINA RESULT:      -5.7      2.814      4.804
REMARK  Name = 5488504
REMARK  6 active torsions:
REMARK  status: ('A' for Active; 'I' for Inactive)
REMARK    1  A    between atoms: C_5  and  C_12
REMARK    2  A    between atoms: C_7  and  O_22
REMARK    3  A    between atoms: C_8  and  O_24
REMARK    4  A    between atoms: C_9  and  O_26
REMARK    5  A    between atoms: C_10  and  O_20
REMARK    6  A    between atoms: C_17  and  O_18
REMARK                            x       y       z     vdW  Elec       q    Type
REMARK                         _______ _______ _______ _____ _____    ______ ____
ROOT
ATOM      1  O   UNL     1     -35.383  23.051   1.655  0.00  0.00    -0.447 OA
ATOM      2  O   UNL     1     -35.898  23.167   5.695  0.00  0.00    -0.283 OA
ATOM      3  C   UNL     1     -35.680  24.364   3.674  0.00  0.00    +0.113 A 
ATOM      4  C   UNL     1     -35.501  24.256   2.297  0.00  0.00    +0.188 A 
ATOM      5  C   UNL     1     -35.458  21.889   2.407  0.00  0.00    +0.182 A 
ATOM      6  C   UNL     1     -35.747  23.136   4.481  0.00  0.00    +0.238 A 
ATOM      7  C   UNL     1     -35.619  21.856   3.743  0.00  0.00    +0.208 A 
ATOM      8  C   UNL     1     -35.432  25.407   1.511  0.00  0.00    +0.203 C 
ATOM      9  C   UNL     1     -35.793  25.620   4.276  0.00  0.00    +0.143 C 
ATOM     10  C   UNL     1     -35.544  26.663   2.107  0.00  0.00    +0.178 C 
ATOM     11  C   UNL     1     -35.723  26.769   3.487  0.00  0.00    +0.077 C 
ENDROOT
BRANCH   5  12
ATOM     12  C   UNL     1     -35.316  20.668   1.595  0.00  0.00    +0.038 C 
ATOM     13  C   UNL     1     -34.075  20.042   1.485  0.00  0.00    +0.006 C 
ATOM     14  C   UNL     1     -36.426  20.138   0.936  0.00  0.00    +0.006 C 
ATOM     15  C   UNL     1     -33.942  18.885   0.717  0.00  0.00    +0.037 C 
ATOM     16  C   UNL     1     -36.293  18.981   0.168  0.00  0.00    +0.037 C 
ATOM     17  C   UNL     1     -35.052  18.354   0.058  0.00  0.00    +0.139 C 
BRANCH  17  18
ATOM     18  O   UNL     1     -34.922  17.227  -0.691  0.00  0.00    -0.471 OA
ATOM     19  C   UNL     1     -34.289  16.106  -0.075  0.00  0.00    +0.252 C 
ENDBRANCH  17  18
ENDBRANCH   5  12
BRANCH  10  20
ATOM     20  O   UNL     1     -35.479  27.795   1.352  0.00  0.00    -0.468 OA
ATOM     21  C   UNL     1     -35.267  29.023   2.044  0.00  0.00    +0.253 C 
ENDBRANCH  10  20
BRANCH   7  22
ATOM     22  O   UNL     1     -35.658  20.683   4.466  0.00  0.00    -0.501 OA
ATOM     23  H   UNL     1     -35.396  19.877   4.066  0.00  0.00    +0.292 HD
ENDBRANCH   7  22
BRANCH   8  24
ATOM     24  O   UNL     1     -35.256  25.309   0.162  0.00  0.00    -0.501 OA
ATOM     25  H   UNL     1     -34.424  25.513  -0.218  0.00  0.00    +0.292 HD
ENDBRANCH   8  24
BRANCH   9  26
ATOM     26  O   UNL     1     -35.971  25.779   5.616  0.00  0.00    -0.505 OA
ATOM     27  H   UNL     1     -36.196  25.043   6.150  0.00  0.00    +0.292 HD
ENDBRANCH   9  26
TORSDOF 6
ENDMDL
MODEL 8
REMARK VINA RESULT:      -5.6      6.375      9.763
REMARK  Name = 5488504
REMARK  6 active torsions:
REMARK  status: ('A' for Active; 'I' for Inactive)
REMARK    1  A    between atoms: C_5  and  C_12
REMARK    2  A    between atoms: C_7  and  O_22
REMARK    3  A    between atoms: C_8  and  O_24
REMARK    4  A    between atoms: C_9  and  O_26
REMARK    5  A    between atoms: C_10  and  O_20
REMARK    6  A    between atoms: C_17  and  O_18
REMARK                            x       y       z     vdW  Elec       q    Type
REMARK                         _______ _______ _______ _____ _____    ______ ____
ROOT
ATOM      1  O   UNL     1     -34.910  28.549   3.266  0.00  0.00    -0.447 OA
ATOM      2  O   UNL     1     -31.231  29.910   4.367  0.00  0.00    -0.283 OA
ATOM      3  C   UNL     1     -33.281  30.348   3.287  0.00  0.00    +0.113 A 
ATOM      4  C   UNL     1     -34.523  29.823   2.938  0.00  0.00    +0.188 A 
ATOM      5  C   UNL     1     -34.031  27.755   3.985  0.00  0.00    +0.182 A 
ATOM      6  C   UNL     1     -32.337  29.506   4.039  0.00  0.00    +0.238 A 
ATOM      7  C   UNL     1     -32.801  28.138   4.374  0.00  0.00    +0.208 A 
ATOM      8  C   UNL     1     -35.434  30.601   2.223  0.00  0.00    +0.203 C 
ATOM      9  C   UNL     1     -32.939  31.654   2.925  0.00  0.00    +0.143 C 
ATOM     10  C   UNL     1     -35.097  31.905   1.860  0.00  0.00    +0.178 C 
ATOM     11  C   UNL     1     -33.852  32.430   2.209  0.00  0.00    +0.077 C 
ENDROOT
BRANCH   5  12
ATOM     12  C   UNL     1     -34.569  26.413   4.270  0.00  0.00    +0.038 C 
ATOM     13  C   UNL     1     -34.113  25.309   3.550  0.00  0.00    +0.006 C 
ATOM     14  C   UNL     1     -35.537  26.247   5.261  0.00  0.00    +0.006 C 
ATOM     15  C   UNL     1     -34.623  24.040   3.820  0.00  0.00    +0.037 C 
ATOM     16  C   UNL     1     -36.047  24.977   5.532  0.00  0.00    +0.037 C 
ATOM     17  C   UNL     1     -35.591  23.873   4.812  0.00  0.00    +0.139 C 
BRANCH  17  18
ATOM     18  O   UNL     1     -36.088  22.635   5.075  0.00  0.00    -0.471 OA
ATOM     19  C   UNL     1     -35.269  21.756   5.844  0.00  0.00    +0.252 C 
ENDBRANCH  17  18
ENDBRANCH   5  12
BRANCH  10  20
ATOM     20  O   UNL     1     -35.976  32.677   1.162  0.00  0.00    -0.468 OA
ATOM     21  C   UNL     1     -35.454  33.844   0.531  0.00  0.00    +0.253 C 
ENDBRANCH  10  20
BRANCH   7  22
ATOM     22  O   UNL     1     -31.938  27.311   5.061  0.00  0.00    -0.501 OA
ATOM     23  H   UNL     1     -31.576  27.588   5.880  0.00  0.00    +0.292 HD
ENDBRANCH   7  22
BRANCH   8  24
ATOM     24  O   UNL     1     -36.651  30.093   1.878  0.00  0.00    -0.501 OA
ATOM     25  H   UNL     1     -36.790  29.167   1.878  0.00  0.00    +0.292 HD
ENDBRANCH   8  24
BRANCH   9  26
ATOM     26  O   UNL     1     -31.740  32.215   3.242  0.00  0.00    -0.505 OA
ATOM     27  H   UNL     1     -31.248  31.888   3.970  0.00  0.00    +0.292 HD
ENDBRANCH   9  26
TORSDOF 6
ENDMDL
MODEL 9
REMARK VINA RESULT:      -5.6      3.484      8.253
REMARK  Name = 5488504
REMARK  6 active torsions:
REMARK  status: ('A' for Active; 'I' for Inactive)
REMARK    1  A    between atoms: C_5  and  C_12
REMARK    2  A    between atoms: C_7  and  O_22
REMARK    3  A    between atoms: C_8  and  O_24
REMARK    4  A    between atoms: C_9  and  O_26
REMARK    5  A    between atoms: C_10  and  O_20
REMARK    6  A    between atoms: C_17  and  O_18
REMARK                            x       y       z     vdW  Elec       q    Type
REMARK                         _______ _______ _______ _____ _____    ______ ____
ROOT
ATOM      1  O   UNL     1     -35.430  24.685   1.966  0.00  0.00    -0.447 OA
ATOM      2  O   UNL     1     -36.183  23.515   5.795  0.00  0.00    -0.283 OA
ATOM      3  C   UNL     1     -35.576  22.898   3.601  0.00  0.00    +0.113 A 
ATOM      4  C   UNL     1     -35.333  23.362   2.310  0.00  0.00    +0.188 A 
ATOM      5  C   UNL     1     -35.773  25.602   2.947  0.00  0.00    +0.182 A 
ATOM      6  C   UNL     1     -35.953  23.863   4.645  0.00  0.00    +0.238 A 
ATOM      7  C   UNL     1     -36.041  25.283   4.227  0.00  0.00    +0.208 A 
ATOM      8  C   UNL     1     -34.976  22.466   1.303  0.00  0.00    +0.203 C 
ATOM      9  C   UNL     1     -35.462  21.537   3.895  0.00  0.00    +0.143 C 
ATOM     10  C   UNL     1     -34.862  21.106   1.592  0.00  0.00    +0.178 C 
ATOM     11  C   UNL     1     -35.105  20.642   2.885  0.00  0.00    +0.077 C 
ENDROOT
BRANCH   5  12
ATOM     12  C   UNL     1     -35.843  26.985   2.444  0.00  0.00    +0.038 C 
ATOM     13  C   UNL     1     -34.964  27.952   2.933  0.00  0.00    +0.006 C 
ATOM     14  C   UNL     1     -36.789  27.328   1.477  0.00  0.00    +0.006 C 
ATOM     15  C   UNL     1     -35.030  29.260   2.455  0.00  0.00    +0.037 C 
ATOM     16  C   UNL     1     -36.855  28.636   1.000  0.00  0.00    +0.037 C 
ATOM     17  C   UNL     1     -35.976  29.603   1.488  0.00  0.00    +0.139 C 
BRANCH  17  18
ATOM     18  O   UNL     1     -36.040  30.880   1.023  0.00  0.00    -0.471 OA
ATOM     19  C   UNL     1     -36.762  31.823   1.813  0.00  0.00    +0.252 C 
ENDBRANCH  17  18
ENDBRANCH   5  12
BRANCH  10  20
ATOM     20  O   UNL     1     -34.514  20.219   0.618  0.00  0.00    -0.468 OA
ATOM     21  C   UNL     1     -33.551  19.225   0.961  0.00  0.00    +0.253 C 
ENDBRANCH  10  20
BRANCH   7  22
ATOM     22  O   UNL     1     -36.411  26.216   5.172  0.00  0.00    -0.501 OA
ATOM     23  H   UNL     1     -37.245  26.639   5.112  0.00  0.00    +0.292 HD
ENDBRANCH   7  22
BRANCH   8  24
ATOM     24  O   UNL     1     -34.738  22.913   0.036  0.00  0.00    -0.501 OA
ATOM     25  H   UNL     1     -35.396  23.398  -0.421  0.00  0.00    +0.292 HD
ENDBRANCH   8  24
BRANCH   9  26
ATOM     26  O   UNL     1     -35.686  21.033   5.140  0.00  0.00    -0.505 OA
ATOM     27  H   UNL     1     -36.054  21.578   5.808  0.00  0.00    +0.292 HD
ENDBRANCH   9  26
TORSDOF 6
ENDMDL
