MODEL 1
REMARK VINA RESULT:      -7.6      0.000      0.000
REMARK  Name = 56927659
REMARK  4 active torsions:
REMARK  status: ('A' for Active; 'I' for Inactive)
REMARK    1  A    between atoms: C_3  and  C_34
REMARK    2  A    between atoms: C_3  and  C_39
REMARK    3  A    between atoms: C_4  and  C_19
REMARK    4  A    between atoms: C_20  and  C_25
REMARK                            x       y       z     vdW  Elec       q    Type
REMARK                         _______ _______ _______ _____ _____    ______ ____
ROOT
ATOM      1  N   UNL     1     -36.967  22.875   1.740  0.00  0.00    +0.405 N 
ATOM      2  N   UNL     1     -36.263  19.841  -0.364  0.00  0.00    -0.357 N 
ATOM      3  C   UNL     1     -37.188  22.107   0.462  0.00  0.00    +0.102 C 
ATOM      4  C   UNL     1     -35.549  23.098   2.106  0.00  0.00    -0.017 C 
ATOM      5  C   UNL     1     -36.224  20.925   0.476  0.00  0.00    +0.029 A 
ATOM      6  C   UNL     1     -35.146  20.760   1.323  0.00  0.00    -0.012 A 
ATOM      7  C   UNL     1     -34.821  21.756   2.379  0.00  0.00    +0.010 C 
ATOM      8  C   UNL     1     -34.511  19.531   0.992  0.00  0.00    +0.013 A 
ATOM      9  C   UNL     1     -35.231  18.977  -0.070  0.00  0.00    +0.056 A 
ATOM     10  C   UNL     1     -33.393  18.833   1.490  0.00  0.00    +0.001 C 
ATOM     11  C   UNL     1     -34.883  17.757  -0.661  0.00  0.00    +0.017 C 
ATOM     12  C   UNL     1     -33.036  17.612   0.910  0.00  0.00    +0.000 C 
ATOM     13  C   UNL     1     -33.770  17.083  -0.150  0.00  0.00    +0.001 C 
ATOM     14  H   UNL     1     -37.411  22.358   2.499  0.00  0.00    -0.081 HD
ATOM     15  H   UNL     1     -37.367  23.800   1.586  0.00  0.00    -0.081 HD
ATOM     16  H   UNL     1     -36.932  19.699  -1.073  0.00  0.00    +0.166 HD
ENDROOT
BRANCH   4  19
ATOM     17  N   UNL     1     -34.416  24.811   3.507  0.00  0.00    -0.320 N 
ATOM     18  N   UNL     1     -36.364  24.064   4.268  0.00  0.00    -0.319 N 
ATOM     19  C   UNL     1     -35.477  23.974   3.301  0.00  0.00    +0.124 C 
ATOM     20  C   UNL     1     -34.640  25.476   4.679  0.00  0.00    +0.060 C 
ATOM     21  C   UNL     1     -35.848  24.998   5.129  0.00  0.00    +0.074 C 
ATOM     22  H   UNL     1     -33.634  24.915   2.918  0.00  0.00    +0.148 HD
ATOM     23  H   UNL     1     -37.212  23.569   4.353  0.00  0.00    +0.148 HD
BRANCH  20  25
ATOM     24  F   UNL     1     -31.120  29.237   6.792  0.00  0.00    -0.204 F 
ATOM     25  C   UNL     1     -33.730  26.448   5.225  0.00  0.00    +0.015 C 
ATOM     26  C   UNL     1     -33.459  26.459   6.593  0.00  0.00    +0.004 C 
ATOM     27  C   UNL     1     -33.119  27.380   4.386  0.00  0.00    +0.004 C 
ATOM     28  C   UNL     1     -32.577  27.400   7.122  0.00  0.00    +0.030 C 
ATOM     29  C   UNL     1     -32.237  28.323   4.915  0.00  0.00    +0.030 C 
ATOM     30  C   UNL     1     -31.967  28.333   6.284  0.00  0.00    +0.140 C 
ENDBRANCH  20  25
ENDBRANCH   4  19
BRANCH   3  34
ATOM     31  O   UNL     1     -36.257  23.753  -2.568  0.00  0.00    -0.316 OA
ATOM     32  N   UNL     1     -37.350  24.307  -0.692  0.00  0.00    -0.318 NA
ATOM     33  N   UNL     1     -36.266  22.603  -1.768  0.00  0.00    -0.013 NA
ATOM     34  C   UNL     1     -36.929  23.010  -0.680  0.00  0.00    +0.093 C 
ATOM     35  C   UNL     1     -36.914  24.708  -1.860  0.00  0.00    +0.294 C 
ATOM     36  C   UNL     1     -37.040  26.026  -2.498  0.00  0.00    +0.114 C 
ENDBRANCH   3  34
BRANCH   3  39
ATOM     37  N   UNL     1     -40.613  21.064  -0.145  0.00  0.00    -0.209 N 
ATOM     38  N   UNL     1     -40.661  21.025   1.197  0.00  0.00    -0.177 NA
ATOM     39  C   UNL     1     -38.602  21.672   0.451  0.00  0.00    +0.016 C 
ATOM     40  C   UNL     1     -39.401  21.446  -0.642  0.00  0.00    +0.081 C 
ATOM     41  C   UNL     1     -39.429  21.397   1.556  0.00  0.00    +0.114 C 
ATOM     42  C   UNL     1     -41.784  20.718  -0.914  0.00  0.00    +0.140 C 
ENDBRANCH   3  39
TORSDOF 4
ENDMDL
MODEL 2
REMARK VINA RESULT:      -7.5      5.218     11.040
REMARK  Name = 56927659
REMARK  4 active torsions:
REMARK  status: ('A' for Active; 'I' for Inactive)
REMARK    1  A    between atoms: C_3  and  C_34
REMARK    2  A    between atoms: C_3  and  C_39
REMARK    3  A    between atoms: C_4  and  C_19
REMARK    4  A    between atoms: C_20  and  C_25
REMARK                            x       y       z     vdW  Elec       q    Type
REMARK                         _______ _______ _______ _____ _____    ______ ____
ROOT
ATOM      1  N   UNL     1     -32.290  28.714   3.939  0.00  0.00    +0.405 N 
ATOM      2  N   UNL     1     -30.953  32.187   3.413  0.00  0.00    -0.357 N 
ATOM      3  C   UNL     1     -31.107  29.640   3.812  0.00  0.00    +0.102 C 
ATOM      4  C   UNL     1     -33.280  28.799   2.842  0.00  0.00    -0.017 C 
ATOM      5  C   UNL     1     -31.648  31.005   3.396  0.00  0.00    +0.029 A 
ATOM      6  C   UNL     1     -32.916  31.270   2.921  0.00  0.00    -0.012 A 
ATOM      7  C   UNL     1     -33.943  30.201   2.789  0.00  0.00    +0.010 C 
ATOM      8  C   UNL     1     -32.999  32.662   2.644  0.00  0.00    +0.013 A 
ATOM      9  C   UNL     1     -31.754  33.212   2.960  0.00  0.00    +0.056 A 
ATOM     10  C   UNL     1     -34.012  33.512   2.155  0.00  0.00    +0.001 C 
ATOM     11  C   UNL     1     -31.472  34.575   2.806  0.00  0.00    +0.017 C 
ATOM     12  C   UNL     1     -33.742  34.876   1.998  0.00  0.00    +0.000 C 
ATOM     13  C   UNL     1     -32.491  35.397   2.318  0.00  0.00    +0.001 C 
ATOM     14  H   UNL     1     -32.768  28.933   4.814  0.00  0.00    -0.081 HD
ATOM     15  H   UNL     1     -31.912  27.767   3.905  0.00  0.00    -0.081 HD
ATOM     16  H   UNL     1     -30.019  32.290   3.706  0.00  0.00    +0.166 HD
ENDROOT
BRANCH   4  19
ATOM     17  N   UNL     1     -34.027  26.572   3.656  0.00  0.00    -0.320 N 
ATOM     18  N   UNL     1     -35.564  27.798   2.622  0.00  0.00    -0.319 N 
ATOM     19  C   UNL     1     -34.312  27.750   3.022  0.00  0.00    +0.124 C 
ATOM     20  C   UNL     1     -35.170  25.823   3.662  0.00  0.00    +0.060 C 
ATOM     21  C   UNL     1     -36.104  26.600   3.018  0.00  0.00    +0.074 C 
ATOM     22  H   UNL     1     -33.159  26.313   4.039  0.00  0.00    +0.148 HD
ATOM     23  H   UNL     1     -36.014  28.532   2.145  0.00  0.00    +0.148 HD
BRANCH  20  25
ATOM     24  F   UNL     1     -35.492  20.747   5.926  0.00  0.00    -0.204 F 
ATOM     25  C   UNL     1     -35.254  24.511   4.247  0.00  0.00    +0.015 C 
ATOM     26  C   UNL     1     -35.107  24.351   5.625  0.00  0.00    +0.004 C 
ATOM     27  C   UNL     1     -35.482  23.399   3.437  0.00  0.00    +0.004 C 
ATOM     28  C   UNL     1     -35.188  23.080   6.192  0.00  0.00    +0.030 C 
ATOM     29  C   UNL     1     -35.562  22.127   4.003  0.00  0.00    +0.030 C 
ATOM     30  C   UNL     1     -35.414  21.967   5.382  0.00  0.00    +0.140 C 
ENDBRANCH  20  25
ENDBRANCH   4  19
BRANCH   3  34
ATOM     31  O   UNL     1     -28.867  28.931   1.123  0.00  0.00    -0.316 OA
ATOM     32  N   UNL     1     -29.809  27.776   2.795  0.00  0.00    -0.318 NA
ATOM     33  N   UNL     1     -29.662  29.843   1.828  0.00  0.00    -0.013 NA
ATOM     34  C   UNL     1     -30.184  29.087   2.799  0.00  0.00    +0.093 C 
ATOM     35  C   UNL     1     -29.011  27.738   1.757  0.00  0.00    +0.294 C 
ATOM     36  C   UNL     1     -28.263  26.604   1.197  0.00  0.00    +0.114 C 
ENDBRANCH   3  34
BRANCH   3  39
ATOM     37  N   UNL     1     -28.982  29.841   6.750  0.00  0.00    -0.209 N 
ATOM     38  N   UNL     1     -30.141  29.625   7.395  0.00  0.00    -0.177 NA
ATOM     39  C   UNL     1     -30.441  29.684   5.132  0.00  0.00    +0.016 C 
ATOM     40  C   UNL     1     -29.108  29.884   5.392  0.00  0.00    +0.081 C 
ATOM     41  C   UNL     1     -31.029  29.530   6.401  0.00  0.00    +0.114 C 
ATOM     42  C   UNL     1     -27.762  29.999   7.503  0.00  0.00    +0.140 C 
ENDBRANCH   3  39
TORSDOF 4
ENDMDL
MODEL 3
REMARK VINA RESULT:      -7.5      4.673     10.493
REMARK  Name = 56927659
REMARK  4 active torsions:
REMARK  status: ('A' for Active; 'I' for Inactive)
REMARK    1  A    between atoms: C_3  and  C_34
REMARK    2  A    between atoms: C_3  and  C_39
REMARK    3  A    between atoms: C_4  and  C_19
REMARK    4  A    between atoms: C_20  and  C_25
REMARK                            x       y       z     vdW  Elec       q    Type
REMARK                         _______ _______ _______ _____ _____    ______ ____
ROOT
ATOM      1  N   UNL     1     -33.249  27.813   4.276  0.00  0.00    +0.405 N 
ATOM      2  N   UNL     1     -31.945  31.083   2.959  0.00  0.00    -0.357 N 
ATOM      3  C   UNL     1     -32.077  28.668   3.868  0.00  0.00    +0.102 C 
ATOM      4  C   UNL     1     -34.331  27.702   3.272  0.00  0.00    -0.017 C 
ATOM      5  C   UNL     1     -32.645  29.936   3.237  0.00  0.00    +0.029 A 
ATOM      6  C   UNL     1     -33.949  30.131   2.827  0.00  0.00    -0.012 A 
ATOM      7  C   UNL     1     -34.988  29.080   2.998  0.00  0.00    +0.010 C 
ATOM      8  C   UNL     1     -34.049  31.443   2.287  0.00  0.00    +0.013 A 
ATOM      9  C   UNL     1     -32.778  32.016   2.381  0.00  0.00    +0.056 A 
ATOM     10  C   UNL     1     -35.095  32.202   1.727  0.00  0.00    +0.001 C 
ATOM     11  C   UNL     1     -32.503  33.315   1.937  0.00  0.00    +0.017 C 
ATOM     12  C   UNL     1     -34.834  33.501   1.281  0.00  0.00    +0.000 C 
ATOM     13  C   UNL     1     -33.556  34.048   1.384  0.00  0.00    +0.001 C 
ATOM     14  H   UNL     1     -33.647  28.211   5.127  0.00  0.00    -0.081 HD
ATOM     15  H   UNL     1     -32.880  26.870   4.399  0.00  0.00    -0.081 HD
ATOM     16  H   UNL     1     -30.989  31.221   3.146  0.00  0.00    +0.166 HD
ENDROOT
BRANCH   4  19
ATOM     17  N   UNL     1     -35.960  25.866   2.880  0.00  0.00    -0.320 N 
ATOM     18  N   UNL     1     -35.779  26.578   4.977  0.00  0.00    -0.319 N 
ATOM     19  C   UNL     1     -35.348  26.732   3.743  0.00  0.00    +0.124 C 
ATOM     20  C   UNL     1     -36.837  25.112   3.609  0.00  0.00    +0.060 C 
ATOM     21  C   UNL     1     -36.706  25.569   4.899  0.00  0.00    +0.074 C 
ATOM     22  H   UNL     1     -35.799  25.798   1.912  0.00  0.00    +0.148 HD
ATOM     23  H   UNL     1     -35.497  27.076   5.778  0.00  0.00    +0.148 HD
BRANCH  20  25
ATOM     24  F   UNL     1     -40.049  21.143   1.390  0.00  0.00    -0.204 F 
ATOM     25  C   UNL     1     -37.667  24.086   3.035  0.00  0.00    +0.015 C 
ATOM     26  C   UNL     1     -39.018  24.336   2.793  0.00  0.00    +0.004 C 
ATOM     27  C   UNL     1     -37.121  22.842   2.720  0.00  0.00    +0.004 C 
ATOM     28  C   UNL     1     -39.822  23.342   2.237  0.00  0.00    +0.030 C 
ATOM     29  C   UNL     1     -37.926  21.847   2.164  0.00  0.00    +0.030 C 
ATOM     30  C   UNL     1     -39.277  22.097   1.923  0.00  0.00    +0.140 C 
ENDBRANCH  20  25
ENDBRANCH   4  19
BRANCH   3  34
ATOM     31  O   UNL     1     -30.267  26.292   1.911  0.00  0.00    -0.316 OA
ATOM     32  N   UNL     1     -30.578  28.510   1.888  0.00  0.00    -0.318 NA
ATOM     33  N   UNL     1     -31.111  26.579   2.991  0.00  0.00    -0.013 NA
ATOM     34  C   UNL     1     -31.248  27.906   2.910  0.00  0.00    +0.093 C 
ATOM     35  C   UNL     1     -30.000  27.483   1.316  0.00  0.00    +0.294 C 
ATOM     36  C   UNL     1     -29.121  27.446   0.139  0.00  0.00    +0.114 C 
ENDBRANCH   3  34
BRANCH   3  39
ATOM     37  N   UNL     1     -29.702  29.205   6.562  0.00  0.00    -0.209 N 
ATOM     38  N   UNL     1     -30.802  29.593   7.229  0.00  0.00    -0.177 NA
ATOM     39  C   UNL     1     -31.298  28.958   5.091  0.00  0.00    +0.016 C 
ATOM     40  C   UNL     1     -29.945  28.814   5.278  0.00  0.00    +0.081 C 
ATOM     41  C   UNL     1     -31.774  29.439   6.325  0.00  0.00    +0.114 C 
ATOM     42  C   UNL     1     -28.419  29.229   7.222  0.00  0.00    +0.140 C 
ENDBRANCH   3  39
TORSDOF 4
ENDMDL
MODEL 4
REMARK VINA RESULT:      -7.4      4.470      6.979
REMARK  Name = 56927659
REMARK  4 active torsions:
REMARK  status: ('A' for Active; 'I' for Inactive)
REMARK    1  A    between atoms: C_3  and  C_34
REMARK    2  A    between atoms: C_3  and  C_39
REMARK    3  A    between atoms: C_4  and  C_19
REMARK    4  A    between atoms: C_20  and  C_25
REMARK                            x       y       z     vdW  Elec       q    Type
REMARK                         _______ _______ _______ _____ _____    ______ ____
ROOT
ATOM      1  N   UNL     1     -37.803  23.971   1.542  0.00  0.00    +0.405 N 
ATOM      2  N   UNL     1     -35.386  21.133   1.063  0.00  0.00    -0.357 N 
ATOM      3  C   UNL     1     -36.467  23.345   1.847  0.00  0.00    +0.102 C 
ATOM      4  C   UNL     1     -38.977  23.095   1.757  0.00  0.00    -0.017 C 
ATOM      5  C   UNL     1     -36.477  21.946   1.238  0.00  0.00    +0.029 A 
ATOM      6  C   UNL     1     -37.586  21.264   0.778  0.00  0.00    -0.012 A 
ATOM      7  C   UNL     1     -38.945  21.869   0.806  0.00  0.00    +0.010 C 
ATOM      8  C   UNL     1     -37.155  19.995   0.302  0.00  0.00    +0.013 A 
ATOM      9  C   UNL     1     -35.773  19.939   0.494  0.00  0.00    +0.056 A 
ATOM     10  C   UNL     1     -37.805  18.885  -0.276  0.00  0.00    +0.001 C 
ATOM     11  C   UNL     1     -35.007  18.822   0.139  0.00  0.00    +0.017 C 
ATOM     12  C   UNL     1     -37.051  17.764  -0.636  0.00  0.00    +0.000 C 
ATOM     13  C   UNL     1     -35.673  17.734  -0.431  0.00  0.00    +0.001 C 
ATOM     14  H   UNL     1     -37.799  24.260   0.564  0.00  0.00    -0.081 HD
ATOM     15  H   UNL     1     -37.907  24.747   2.197  0.00  0.00    -0.081 HD
ATOM     16  H   UNL     1     -34.462  21.367   1.307  0.00  0.00    +0.166 HD
ENDROOT
BRANCH   4  19
ATOM     17  N   UNL     1     -40.483  25.003   2.275  0.00  0.00    -0.320 N 
ATOM     18  N   UNL     1     -41.188  23.604   0.700  0.00  0.00    -0.319 N 
ATOM     19  C   UNL     1     -40.222  23.873   1.551  0.00  0.00    +0.124 C 
ATOM     20  C   UNL     1     -41.693  25.485   1.859  0.00  0.00    +0.060 C 
ATOM     21  C   UNL     1     -42.107  24.605   0.888  0.00  0.00    +0.074 C 
ATOM     22  H   UNL     1     -39.906  25.397   2.968  0.00  0.00    +0.148 HD
ATOM     23  H   UNL     1     -41.239  22.851   0.068  0.00  0.00    +0.148 HD
BRANCH  20  25
ATOM     24  F   UNL     1     -44.046  30.074   3.956  0.00  0.00    -0.204 F 
ATOM     25  C   UNL     1     -42.301  26.672   2.401  0.00  0.00    +0.015 C 
ATOM     26  C   UNL     1     -41.967  27.103   3.685  0.00  0.00    +0.004 C 
ATOM     27  C   UNL     1     -43.224  27.391   1.642  0.00  0.00    +0.004 C 
ATOM     28  C   UNL     1     -42.556  28.252   4.210  0.00  0.00    +0.030 C 
ATOM     29  C   UNL     1     -43.815  28.540   2.168  0.00  0.00    +0.030 C 
ATOM     30  C   UNL     1     -43.481  28.971   3.452  0.00  0.00    +0.140 C 
ENDBRANCH  20  25
ENDBRANCH   4  19
BRANCH   3  34
ATOM     31  O   UNL     1     -36.375  23.818   5.386  0.00  0.00    -0.316 OA
ATOM     32  N   UNL     1     -35.657  22.266   3.939  0.00  0.00    -0.318 NA
ATOM     33  N   UNL     1     -36.750  24.268   4.113  0.00  0.00    -0.013 NA
ATOM     34  C   UNL     1     -36.292  23.298   3.315  0.00  0.00    +0.093 C 
ATOM     35  C   UNL     1     -35.737  22.635   5.193  0.00  0.00    +0.294 C 
ATOM     36  C   UNL     1     -35.241  21.954   6.397  0.00  0.00    +0.114 C 
ENDBRANCH   3  34
BRANCH   3  39
ATOM     37  N   UNL     1     -33.610  25.349   0.842  0.00  0.00    -0.209 N 
ATOM     38  N   UNL     1     -34.366  25.576  -0.246  0.00  0.00    -0.177 NA
ATOM     39  C   UNL     1     -35.429  24.207   1.242  0.00  0.00    +0.016 C 
ATOM     40  C   UNL     1     -34.202  24.536   1.764  0.00  0.00    +0.081 C 
ATOM     41  C   UNL     1     -35.476  24.875   0.005  0.00  0.00    +0.114 C 
ATOM     42  C   UNL     1     -32.304  25.953   0.946  0.00  0.00    +0.140 C 
ENDBRANCH   3  39
TORSDOF 4
ENDMDL
MODEL 5
REMARK VINA RESULT:      -7.4      3.390      7.644
REMARK  Name = 56927659
REMARK  4 active torsions:
REMARK  status: ('A' for Active; 'I' for Inactive)
REMARK    1  A    between atoms: C_3  and  C_34
REMARK    2  A    between atoms: C_3  and  C_39
REMARK    3  A    between atoms: C_4  and  C_19
REMARK    4  A    between atoms: C_20  and  C_25
REMARK                            x       y       z     vdW  Elec       q    Type
REMARK                         _______ _______ _______ _____ _____    ______ ____
ROOT
ATOM      1  N   UNL     1     -36.374  20.981   0.020  0.00  0.00    +0.405 N 
ATOM      2  N   UNL     1     -37.193  23.915   2.222  0.00  0.00    -0.357 N 
ATOM      3  C   UNL     1     -37.265  22.156   0.331  0.00  0.00    +0.102 C 
ATOM      4  C   UNL     1     -36.143  20.047   1.145  0.00  0.00    -0.017 C 
ATOM      5  C   UNL     1     -36.824  22.709   1.683  0.00  0.00    +0.029 A 
ATOM      6  C   UNL     1     -35.995  22.080   2.591  0.00  0.00    -0.012 A 
ATOM      7  C   UNL     1     -35.398  20.746   2.313  0.00  0.00    +0.010 C 
ATOM      8  C   UNL     1     -35.851  22.934   3.719  0.00  0.00    +0.013 A 
ATOM      9  C   UNL     1     -36.613  24.076   3.461  0.00  0.00    +0.056 A 
ATOM     10  C   UNL     1     -35.145  22.850   4.936  0.00  0.00    +0.001 C 
ATOM     11  C   UNL     1     -36.707  25.139   4.367  0.00  0.00    +0.017 C 
ATOM     12  C   UNL     1     -35.230  23.907   5.849  0.00  0.00    +0.000 C 
ATOM     13  C   UNL     1     -36.000  25.033   5.567  0.00  0.00    +0.001 C 
ATOM     14  H   UNL     1     -35.469  21.344  -0.281  0.00  0.00    -0.081 HD
ATOM     15  H   UNL     1     -36.858  20.443  -0.699  0.00  0.00    -0.081 HD
ATOM     16  H   UNL     1     -37.785  24.570   1.787  0.00  0.00    +0.166 HD
ENDROOT
BRANCH   4  19
ATOM     17  N   UNL     1     -34.015  18.794   0.855  0.00  0.00    -0.320 N 
ATOM     18  N   UNL     1     -35.838  17.822   0.038  0.00  0.00    -0.319 N 
ATOM     19  C   UNL     1     -35.367  18.877   0.668  0.00  0.00    +0.124 C 
ATOM     20  C   UNL     1     -33.597  17.612   0.310  0.00  0.00    +0.060 C 
ATOM     21  C   UNL     1     -34.740  17.031  -0.187  0.00  0.00    +0.074 C 
ATOM     22  H   UNL     1     -33.447  19.463   1.301  0.00  0.00    +0.148 HD
ATOM     23  H   UNL     1     -36.772  17.642  -0.214  0.00  0.00    +0.148 HD
BRANCH  20  25
ATOM     24  F   UNL     1     -28.289  15.932   0.335  0.00  0.00    -0.204 F 
ATOM     25  C   UNL     1     -32.225  17.179   0.316  0.00  0.00    +0.015 C 
ATOM     26  C   UNL     1     -31.884  15.936  -0.219  0.00  0.00    +0.004 C 
ATOM     27  C   UNL     1     -31.236  18.000   0.857  0.00  0.00    +0.004 C 
ATOM     28  C   UNL     1     -30.555  15.516  -0.213  0.00  0.00    +0.030 C 
ATOM     29  C   UNL     1     -29.906  17.579   0.864  0.00  0.00    +0.030 C 
ATOM     30  C   UNL     1     -29.566  16.336   0.330  0.00  0.00    +0.140 C 
ENDBRANCH  20  25
ENDBRANCH   4  19
BRANCH   3  34
ATOM     31  O   UNL     1     -40.603  21.128   1.073  0.00  0.00    -0.316 OA
ATOM     32  N   UNL     1     -39.337  21.320  -0.765  0.00  0.00    -0.318 NA
ATOM     33  N   UNL     1     -39.357  21.600   1.505  0.00  0.00    -0.013 NA
ATOM     34  C   UNL     1     -38.667  21.688   0.364  0.00  0.00    +0.093 C 
ATOM     35  C   UNL     1     -40.506  20.989  -0.275  0.00  0.00    +0.294 C 
ATOM     36  C   UNL     1     -41.704  20.501  -0.972  0.00  0.00    +0.114 C 
ENDBRANCH   3  34
BRANCH   3  39
ATOM     37  N   UNL     1     -36.380  24.244  -2.505  0.00  0.00    -0.209 N 
ATOM     38  N   UNL     1     -37.423  24.975  -2.077  0.00  0.00    -0.177 NA
ATOM     39  C   UNL     1     -37.087  23.142  -0.757  0.00  0.00    +0.016 C 
ATOM     40  C   UNL     1     -36.136  23.136  -1.748  0.00  0.00    +0.081 C 
ATOM     41  C   UNL     1     -37.851  24.297  -1.009  0.00  0.00    +0.114 C 
ATOM     42  C   UNL     1     -35.638  24.667  -3.668  0.00  0.00    +0.140 C 
ENDBRANCH   3  39
TORSDOF 4
ENDMDL
MODEL 6
REMARK VINA RESULT:      -7.4      9.565     11.729
REMARK  Name = 56927659
REMARK  4 active torsions:
REMARK  status: ('A' for Active; 'I' for Inactive)
REMARK    1  A    between atoms: C_3  and  C_34
REMARK    2  A    between atoms: C_3  and  C_39
REMARK    3  A    between atoms: C_4  and  C_19
REMARK    4  A    between atoms: C_20  and  C_25
REMARK                            x       y       z     vdW  Elec       q    Type
REMARK                         _______ _______ _______ _____ _____    ______ ____
ROOT
ATOM      1  N   UNL     1     -44.073  28.454   2.935  0.00  0.00    +0.405 N 
ATOM      2  N   UNL     1     -45.240  25.121   1.646  0.00  0.00    -0.357 N 
ATOM      3  C   UNL     1     -43.893  27.300   1.982  0.00  0.00    +0.102 C 
ATOM      4  C   UNL     1     -44.202  28.082   4.362  0.00  0.00    -0.017 C 
ATOM      5  C   UNL     1     -44.894  26.222   2.388  0.00  0.00    +0.029 A 
ATOM      6  C   UNL     1     -45.601  26.169   3.572  0.00  0.00    -0.012 A 
ATOM      7  C   UNL     1     -45.473  27.228   4.609  0.00  0.00    +0.010 C 
ATOM      8  C   UNL     1     -46.410  24.999   3.549  0.00  0.00    +0.013 A 
ATOM      9  C   UNL     1     -46.163  24.361   2.331  0.00  0.00    +0.056 A 
ATOM     10  C   UNL     1     -47.331  24.419   4.444  0.00  0.00    +0.001 C 
ATOM     11  C   UNL     1     -46.791  23.164   1.966  0.00  0.00    +0.017 C 
ATOM     12  C   UNL     1     -47.967  23.224   4.090  0.00  0.00    +0.000 C 
ATOM     13  C   UNL     1     -47.699  22.607   2.870  0.00  0.00    +0.001 C 
ATOM     14  H   UNL     1     -44.918  28.957   2.662  0.00  0.00    -0.081 HD
ATOM     15  H   UNL     1     -43.224  29.013   2.864  0.00  0.00    -0.081 HD
ATOM     16  H   UNL     1     -44.883  24.905   0.755  0.00  0.00    +0.166 HD
ENDROOT
BRANCH   4  19
ATOM     17  N   UNL     1     -45.367  30.074   5.286  0.00  0.00    -0.320 N 
ATOM     18  N   UNL     1     -43.253  29.804   5.912  0.00  0.00    -0.319 N 
ATOM     19  C   UNL     1     -44.237  29.309   5.194  0.00  0.00    +0.124 C 
ATOM     20  C   UNL     1     -45.085  31.123   6.116  0.00  0.00    +0.060 C 
ATOM     21  C   UNL     1     -43.775  30.934   6.489  0.00  0.00    +0.074 C 
ATOM     22  H   UNL     1     -46.226  29.901   4.838  0.00  0.00    +0.148 HD
ATOM     23  H   UNL     1     -42.343  29.442   6.013  0.00  0.00    +0.148 HD
BRANCH  20  25
ATOM     24  F   UNL     1     -48.780  35.080   7.414  0.00  0.00    -0.204 F 
ATOM     25  C   UNL     1     -46.040  32.146   6.451  0.00  0.00    +0.015 C 
ATOM     26  C   UNL     1     -46.817  32.024   7.604  0.00  0.00    +0.004 C 
ATOM     27  C   UNL     1     -46.188  33.260   5.625  0.00  0.00    +0.004 C 
ATOM     28  C   UNL     1     -47.742  33.015   7.929  0.00  0.00    +0.030 C 
ATOM     29  C   UNL     1     -47.114  34.251   5.949  0.00  0.00    +0.030 C 
ATOM     30  C   UNL     1     -47.892  34.128   7.102  0.00  0.00    +0.140 C 
ENDBRANCH  20  25
ENDBRANCH   4  19
BRANCH   3  34
ATOM     31  O   UNL     1     -40.371  26.785   2.273  0.00  0.00    -0.316 OA
ATOM     32  N   UNL     1     -42.187  25.489   2.074  0.00  0.00    -0.318 NA
ATOM     33  N   UNL     1     -41.465  27.656   2.203  0.00  0.00    -0.013 NA
ATOM     34  C   UNL     1     -42.499  26.817   2.087  0.00  0.00    +0.093 C 
ATOM     35  C   UNL     1     -40.883  25.530   2.189  0.00  0.00    +0.294 C 
ATOM     36  C   UNL     1     -39.918  24.423   2.241  0.00  0.00    +0.114 C 
ENDBRANCH   3  34
BRANCH   3  39
ATOM     37  N   UNL     1     -44.875  28.939  -1.106  0.00  0.00    -0.209 N 
ATOM     38  N   UNL     1     -44.050  28.030  -1.653  0.00  0.00    -0.177 NA
ATOM     39  C   UNL     1     -44.149  27.811   0.619  0.00  0.00    +0.016 C 
ATOM     40  C   UNL     1     -44.970  28.849   0.252  0.00  0.00    +0.081 C 
ATOM     41  C   UNL     1     -43.610  27.344  -0.594  0.00  0.00    +0.114 C 
ATOM     42  C   UNL     1     -45.561  29.885  -1.952  0.00  0.00    +0.140 C 
ENDBRANCH   3  39
TORSDOF 4
ENDMDL
MODEL 7
REMARK VINA RESULT:      -7.3      5.017     10.618
REMARK  Name = 56927659
REMARK  4 active torsions:
REMARK  status: ('A' for Active; 'I' for Inactive)
REMARK    1  A    between atoms: C_3  and  C_34
REMARK    2  A    between atoms: C_3  and  C_39
REMARK    3  A    between atoms: C_4  and  C_19
REMARK    4  A    between atoms: C_20  and  C_25
REMARK                            x       y       z     vdW  Elec       q    Type
REMARK                         _______ _______ _______ _____ _____    ______ ____
ROOT
ATOM      1  N   UNL     1     -33.181  28.746   3.211  0.00  0.00    +0.405 N 
ATOM      2  N   UNL     1     -32.305  32.315   2.419  0.00  0.00    -0.357 N 
ATOM      3  C   UNL     1     -32.130  29.785   2.913  0.00  0.00    +0.102 C 
ATOM      4  C   UNL     1     -34.296  28.679   2.239  0.00  0.00    -0.017 C 
ATOM      5  C   UNL     1     -32.862  31.066   2.524  0.00  0.00    +0.029 A 
ATOM      6  C   UNL     1     -34.199  31.175   2.197  0.00  0.00    -0.012 A 
ATOM      7  C   UNL     1     -35.110  29.999   2.224  0.00  0.00    +0.010 C 
ATOM      8  C   UNL     1     -34.467  32.537   1.889  0.00  0.00    +0.013 A 
ATOM      9  C   UNL     1     -33.261  33.229   2.035  0.00  0.00    +0.056 A 
ATOM     10  C   UNL     1     -35.617  33.254   1.500  0.00  0.00    +0.001 C 
ATOM     11  C   UNL     1     -33.150  34.605   1.806  0.00  0.00    +0.017 C 
ATOM     12  C   UNL     1     -35.519  34.630   1.270  0.00  0.00    +0.000 C 
ATOM     13  C   UNL     1     -34.303  35.294   1.420  0.00  0.00    +0.001 C 
ATOM     14  H   UNL     1     -33.574  28.952   4.129  0.00  0.00    -0.081 HD
ATOM     15  H   UNL     1     -32.707  27.844   3.160  0.00  0.00    -0.081 HD
ATOM     16  H   UNL     1     -31.360  32.529   2.594  0.00  0.00    +0.166 HD
ENDROOT
BRANCH   4  19
ATOM     17  N   UNL     1     -34.702  26.442   3.245  0.00  0.00    -0.320 N 
ATOM     18  N   UNL     1     -36.457  27.417   2.294  0.00  0.00    -0.319 N 
ATOM     19  C   UNL     1     -35.178  27.535   2.575  0.00  0.00    +0.124 C 
ATOM     20  C   UNL     1     -35.745  25.571   3.401  0.00  0.00    +0.060 C 
ATOM     21  C   UNL     1     -36.816  26.195   2.806  0.00  0.00    +0.074 C 
ATOM     22  H   UNL     1     -33.779  26.307   3.557  0.00  0.00    +0.148 HD
ATOM     23  H   UNL     1     -37.030  28.063   1.822  0.00  0.00    +0.148 HD
BRANCH  20  25
ATOM     24  F   UNL     1     -35.274  20.652   5.966  0.00  0.00    -0.204 F 
ATOM     25  C   UNL     1     -35.622  24.300   4.064  0.00  0.00    +0.015 C 
ATOM     26  C   UNL     1     -35.739  23.118   3.333  0.00  0.00    +0.004 C 
ATOM     27  C   UNL     1     -35.387  24.250   5.438  0.00  0.00    +0.004 C 
ATOM     28  C   UNL     1     -35.621  21.886   3.975  0.00  0.00    +0.030 C 
ATOM     29  C   UNL     1     -35.270  23.017   6.081  0.00  0.00    +0.030 C 
ATOM     30  C   UNL     1     -35.387  21.835   5.349  0.00  0.00    +0.140 C 
ENDBRANCH  20  25
ENDBRANCH   4  19
BRANCH   3  34
ATOM     31  O   UNL     1     -30.127  29.210   0.012  0.00  0.00    -0.316 OA
ATOM     32  N   UNL     1     -30.811  28.008   1.775  0.00  0.00    -0.318 NA
ATOM     33  N   UNL     1     -30.910  30.071   0.792  0.00  0.00    -0.013 NA
ATOM     34  C   UNL     1     -31.276  29.289   1.813  0.00  0.00    +0.093 C 
ATOM     35  C   UNL     1     -30.121  28.017   0.661  0.00  0.00    +0.294 C 
ATOM     36  C   UNL     1     -29.354  26.933   0.032  0.00  0.00    +0.114 C 
ENDBRANCH   3  34
BRANCH   3  39
ATOM     37  N   UNL     1     -29.702  30.299   5.564  0.00  0.00    -0.209 N 
ATOM     38  N   UNL     1     -30.768  30.081   6.352  0.00  0.00    -0.177 NA
ATOM     39  C   UNL     1     -31.323  29.958   4.140  0.00  0.00    +0.016 C 
ATOM     40  C   UNL     1     -29.981  30.235   4.230  0.00  0.00    +0.081 C 
ATOM     41  C   UNL     1     -31.755  29.873   5.477  0.00  0.00    +0.114 C 
ATOM     42  C   UNL     1     -28.414  30.567   6.158  0.00  0.00    +0.140 C 
ENDBRANCH   3  39
TORSDOF 4
ENDMDL
MODEL 8
REMARK VINA RESULT:      -7.3      7.369     10.317
REMARK  Name = 56927659
REMARK  4 active torsions:
REMARK  status: ('A' for Active; 'I' for Inactive)
REMARK    1  A    between atoms: C_3  and  C_34
REMARK    2  A    between atoms: C_3  and  C_39
REMARK    3  A    between atoms: C_4  and  C_19
REMARK    4  A    between atoms: C_20  and  C_25
REMARK                            x       y       z     vdW  Elec       q    Type
REMARK                         _______ _______ _______ _____ _____    ______ ____
ROOT
ATOM      1  N   UNL     1     -42.714  27.030   1.804  0.00  0.00    +0.405 N 
ATOM      2  N   UNL     1     -45.389  29.029   3.530  0.00  0.00    -0.357 N 
ATOM      3  C   UNL     1     -44.175  27.357   1.979  0.00  0.00    +0.102 C 
ATOM      4  C   UNL     1     -41.986  26.703   3.051  0.00  0.00    -0.017 C 
ATOM      5  C   UNL     1     -44.285  28.295   3.177  0.00  0.00    +0.029 A 
ATOM      6  C   UNL     1     -43.300  28.545   4.112  0.00  0.00    -0.012 A 
ATOM      7  C   UNL     1     -41.955  27.915   4.019  0.00  0.00    +0.010 C 
ATOM      8  C   UNL     1     -43.819  29.467   5.061  0.00  0.00    +0.013 A 
ATOM      9  C   UNL     1     -45.130  29.752   4.673  0.00  0.00    +0.056 A 
ATOM     10  C   UNL     1     -43.303  30.091   6.215  0.00  0.00    +0.001 C 
ATOM     11  C   UNL     1     -45.954  30.630   5.388  0.00  0.00    +0.017 C 
ATOM     12  C   UNL     1     -44.115  30.971   6.937  0.00  0.00    +0.000 C 
ATOM     13  C   UNL     1     -45.420  31.235   6.529  0.00  0.00    +0.001 C 
ATOM     14  H   UNL     1     -42.261  27.837   1.375  0.00  0.00    -0.081 HD
ATOM     15  H   UNL     1     -42.681  26.188   1.229  0.00  0.00    -0.081 HD
ATOM     16  H   UNL     1     -46.242  29.039   3.037  0.00  0.00    +0.166 HD
ENDROOT
BRANCH   4  19
ATOM     17  N   UNL     1     -39.819  25.637   3.641  0.00  0.00    -0.320 N 
ATOM     18  N   UNL     1     -39.982  26.434   1.574  0.00  0.00    -0.319 N 
ATOM     19  C   UNL     1     -40.606  26.274   2.721  0.00  0.00    +0.124 C 
ATOM     20  C   UNL     1     -38.619  25.375   3.042  0.00  0.00    +0.060 C 
ATOM     21  C   UNL     1     -38.744  25.876   1.768  0.00  0.00    +0.074 C 
ATOM     22  H   UNL     1     -40.072  25.409   4.564  0.00  0.00    +0.148 HD
ATOM     23  H   UNL     1     -40.329  26.860   0.757  0.00  0.00    +0.148 HD
BRANCH  20  25
ATOM     24  F   UNL     1     -34.409  22.800   5.620  0.00  0.00    -0.204 F 
ATOM     25  C   UNL     1     -37.530  24.710   3.708  0.00  0.00    +0.015 C 
ATOM     26  C   UNL     1     -37.199  23.398   3.366  0.00  0.00    +0.004 C 
ATOM     27  C   UNL     1     -36.806  25.376   4.697  0.00  0.00    +0.004 C 
ATOM     28  C   UNL     1     -36.145  22.754   4.011  0.00  0.00    +0.030 C 
ATOM     29  C   UNL     1     -35.751  24.731   5.343  0.00  0.00    +0.030 C 
ATOM     30  C   UNL     1     -35.421  23.419   5.001  0.00  0.00    +0.140 C 
ENDBRANCH  20  25
ENDBRANCH   4  19
BRANCH   3  34
ATOM     31  O   UNL     1     -45.597  24.081   2.009  0.00  0.00    -0.316 OA
ATOM     32  N   UNL     1     -45.856  25.971   3.183  0.00  0.00    -0.318 NA
ATOM     33  N   UNL     1     -44.705  25.008   1.456  0.00  0.00    -0.013 NA
ATOM     34  C   UNL     1     -44.916  26.097   2.203  0.00  0.00    +0.093 C 
ATOM     35  C   UNL     1     -46.235  24.728   3.018  0.00  0.00    +0.294 C 
ATOM     36  C   UNL     1     -47.237  23.953   3.764  0.00  0.00    +0.114 C 
ENDBRANCH   3  34
BRANCH   3  39
ATOM     37  N   UNL     1     -44.748  29.092  -1.159  0.00  0.00    -0.209 N 
ATOM     38  N   UNL     1     -46.015  28.695  -0.953  0.00  0.00    -0.177 NA
ATOM     39  C   UNL     1     -44.635  27.998   0.728  0.00  0.00    +0.016 C 
ATOM     40  C   UNL     1     -43.882  28.700  -0.181  0.00  0.00    +0.081 C 
ATOM     41  C   UNL     1     -45.940  28.027   0.202  0.00  0.00    +0.114 C 
ATOM     42  C   UNL     1     -44.420  29.861  -2.335  0.00  0.00    +0.140 C 
ENDBRANCH   3  39
TORSDOF 4
ENDMDL
MODEL 9
REMARK VINA RESULT:      -7.3      5.510      8.560
REMARK  Name = 56927659
REMARK  4 active torsions:
REMARK  status: ('A' for Active; 'I' for Inactive)
REMARK    1  A    between atoms: C_3  and  C_34
REMARK    2  A    between atoms: C_3  and  C_39
REMARK    3  A    between atoms: C_4  and  C_19
REMARK    4  A    between atoms: C_20  and  C_25
REMARK                            x       y       z     vdW  Elec       q    Type
REMARK                         _______ _______ _______ _____ _____    ______ ____
ROOT
ATOM      1  N   UNL     1     -33.821  28.358   1.815  0.00  0.00    +0.405 N 
ATOM      2  N   UNL     1     -33.860  24.848   3.161  0.00  0.00    -0.357 N 
ATOM      3  C   UNL     1     -33.158  27.277   2.629  0.00  0.00    +0.102 C 
ATOM      4  C   UNL     1     -35.234  28.634   2.162  0.00  0.00    -0.017 C 
ATOM      5  C   UNL     1     -34.145  26.118   2.728  0.00  0.00    +0.029 A 
ATOM      6  C   UNL     1     -35.489  26.162   2.414  0.00  0.00    -0.012 A 
ATOM      7  C   UNL     1     -36.132  27.399   1.894  0.00  0.00    +0.010 C 
ATOM      8  C   UNL     1     -36.039  24.873   2.658  0.00  0.00    +0.013 A 
ATOM      9  C   UNL     1     -34.996  24.071   3.127  0.00  0.00    +0.056 A 
ATOM     10  C   UNL     1     -37.324  24.308   2.527  0.00  0.00    +0.001 C 
ATOM     11  C   UNL     1     -35.177  22.727   3.475  0.00  0.00    +0.017 C 
ATOM     12  C   UNL     1     -37.517  22.966   2.870  0.00  0.00    +0.000 C 
ATOM     13  C   UNL     1     -36.460  22.189   3.337  0.00  0.00    +0.001 C 
ATOM     14  H   UNL     1     -33.786  28.078   0.834  0.00  0.00    -0.081 HD
ATOM     15  H   UNL     1     -33.308  29.216   2.013  0.00  0.00    -0.081 HD
ATOM     16  H   UNL     1     -32.972  24.537   3.452  0.00  0.00    +0.166 HD
ENDROOT
BRANCH   4  19
ATOM     17  N   UNL     1     -36.189  30.924   2.002  0.00  0.00    -0.320 N 
ATOM     18  N   UNL     1     -35.759  29.910   0.073  0.00  0.00    -0.319 N 
ATOM     19  C   UNL     1     -35.717  29.800   1.383  0.00  0.00    +0.124 C 
ATOM     20  C   UNL     1     -36.555  31.807   1.026  0.00  0.00    +0.060 C 
ATOM     21  C   UNL     1     -36.280  31.159  -0.155  0.00  0.00    +0.074 C 
ATOM     22  H   UNL     1     -36.254  31.070   2.973  0.00  0.00    +0.148 HD
ATOM     23  H   UNL     1     -35.477  29.244  -0.595  0.00  0.00    +0.148 HD
BRANCH  20  25
ATOM     24  F   UNL     1     -38.673  36.846   2.084  0.00  0.00    -0.204 F 
ATOM     25  C   UNL     1     -37.102  33.109   1.300  0.00  0.00    +0.015 C 
ATOM     26  C   UNL     1     -38.359  33.227   1.895  0.00  0.00    +0.004 C 
ATOM     27  C   UNL     1     -36.377  34.254   0.970  0.00  0.00    +0.004 C 
ATOM     28  C   UNL     1     -38.888  34.489   2.160  0.00  0.00    +0.030 C 
ATOM     29  C   UNL     1     -36.907  35.517   1.235  0.00  0.00    +0.030 C 
ATOM     30  C   UNL     1     -38.164  35.634   1.830  0.00  0.00    +0.140 C 
ENDBRANCH  20  25
ENDBRANCH   4  19
BRANCH   3  34
ATOM     31  O   UNL     1     -32.600  28.023   6.077  0.00  0.00    -0.316 OA
ATOM     32  N   UNL     1     -32.275  29.064   4.120  0.00  0.00    -0.318 NA
ATOM     33  N   UNL     1     -33.054  27.143   5.087  0.00  0.00    -0.013 NA
ATOM     34  C   UNL     1     -32.828  27.828   3.962  0.00  0.00    +0.093 C 
ATOM     35  C   UNL     1     -32.159  29.129   5.423  0.00  0.00    +0.294 C 
ATOM     36  C   UNL     1     -31.625  30.214   6.258  0.00  0.00    +0.114 C 
ENDBRANCH   3  34
BRANCH   3  39
ATOM     37  N   UNL     1     -30.445  26.320   0.412  0.00  0.00    -0.209 N 
ATOM     38  N   UNL     1     -29.728  26.359   1.549  0.00  0.00    -0.177 NA
ATOM     39  C   UNL     1     -31.918  26.892   1.921  0.00  0.00    +0.016 C 
ATOM     40  C   UNL     1     -31.763  26.631   0.582  0.00  0.00    +0.081 C 
ATOM     41  C   UNL     1     -30.634  26.708   2.467  0.00  0.00    +0.114 C 
ATOM     42  C   UNL     1     -29.801  25.970  -0.830  0.00  0.00    +0.140 C 
ENDBRANCH   3  39
TORSDOF 4
ENDMDL
