MODEL 1
REMARK VINA RESULT:      -5.9      0.000      0.000
REMARK  Name = 196034
REMARK  8 active torsions:
REMARK  status: ('A' for Active; 'I' for Inactive)
REMARK    1  A    between atoms: O_1  and  P_2
REMARK    2  A    between atoms: O_1  and  C_13
REMARK    3  A    between atoms: P_2  and  O_4
REMARK    4  A    between atoms: P_2  and  O_6
REMARK    5  A    between atoms: O_6  and  P_7
REMARK    6  A    between atoms: P_7  and  O_9
REMARK    7  A    between atoms: P_7  and  O_11
REMARK    8  A    between atoms: C_13  and  C_18
REMARK                            x       y       z     vdW  Elec       q    Type
REMARK                         _______ _______ _______ _____ _____    ______ ____
ROOT
ATOM      1  O   UNL     1     -34.978  25.416   5.665  0.00  0.00    -0.268 OA
ENDROOT
BRANCH   1   2
ATOM      2  P   UNL     1     -34.017  26.403   4.815  0.00  0.00    +0.484 P 
ATOM      3  O   UNL     1     -33.134  25.713   3.817  0.00  0.00    -0.227 OA
BRANCH   2   4
ATOM      4  O   UNL     1     -35.025  27.493   4.172  0.00  0.00    -0.302 OA
ATOM      5  H   UNL     1     -34.677  27.789   3.316  0.00  0.00    +0.222 HD
ENDBRANCH   2   4
BRANCH   2   6
ATOM      6  O   UNL     1     -33.217  27.253   5.933  0.00  0.00    -0.186 OA
BRANCH   6   7
ATOM      7  P   UNL     1     -31.934  28.228   5.807  0.00  0.00    +0.481 P 
ATOM      8  O   UNL     1     -32.225  29.680   6.044  0.00  0.00    -0.227 OA
BRANCH   7   9
ATOM      9  O   UNL     1     -31.345  27.872   4.344  0.00  0.00    -0.302 OA
ATOM     10  H   UNL     1     -30.524  27.366   4.441  0.00  0.00    +0.222 HD
ENDBRANCH   7   9
BRANCH   7  11
ATOM     11  O   UNL     1     -30.860  27.565   6.818  0.00  0.00    -0.302 OA
ATOM     12  H   UNL     1     -30.471  26.779   6.405  0.00  0.00    +0.222 HD
ENDBRANCH   7  11
ENDBRANCH   6   7
ENDBRANCH   2   6
ENDBRANCH   1   2
BRANCH   1  13
ATOM     13  C   UNL     1     -36.180  24.930   5.092  0.00  0.00    +0.186 C 
BRANCH  13  18
ATOM     14  O   UNL     1     -35.814  22.446   6.432  0.00  0.00    -0.270 OA
ATOM     15  O   UNL     1     -35.233  20.082   2.512  0.00  0.00    -0.252 OA
ATOM     16  N   UNL     1     -35.524  21.252   4.480  0.00  0.00    -0.236 N 
ATOM     17  N   UNL     1     -35.618  22.348   2.417  0.00  0.00    -0.267 N 
ATOM     18  C   UNL     1     -35.929  23.647   4.385  0.00  0.00    +0.076 C 
ATOM     19  C   UNL     1     -35.755  22.413   5.206  0.00  0.00    +0.252 C 
ATOM     20  C   UNL     1     -35.850  23.537   3.053  0.00  0.00    +0.068 C 
ATOM     21  C   UNL     1     -35.443  21.149   3.089  0.00  0.00    +0.310 C 
ATOM     22  H   UNL     1     -35.407  20.421   4.995  0.00  0.00    +0.159 HD
ATOM     23  H   UNL     1     -35.572  22.345   1.434  0.00  0.00    +0.156 HD
ENDBRANCH  13  18
ENDBRANCH   1  13
TORSDOF 8
ENDMDL
MODEL 2
REMARK VINA RESULT:      -5.9      1.276      2.082
REMARK  Name = 196034
REMARK  8 active torsions:
REMARK  status: ('A' for Active; 'I' for Inactive)
REMARK    1  A    between atoms: O_1  and  P_2
REMARK    2  A    between atoms: O_1  and  C_13
REMARK    3  A    between atoms: P_2  and  O_4
REMARK    4  A    between atoms: P_2  and  O_6
REMARK    5  A    between atoms: O_6  and  P_7
REMARK    6  A    between atoms: P_7  and  O_9
REMARK    7  A    between atoms: P_7  and  O_11
REMARK    8  A    between atoms: C_13  and  C_18
REMARK                            x       y       z     vdW  Elec       q    Type
REMARK                         _______ _______ _______ _____ _____    ______ ____
ROOT
ATOM      1  O   UNL     1     -34.508  26.323   5.774  0.00  0.00    -0.268 OA
ENDROOT
BRANCH   1   2
ATOM      2  P   UNL     1     -33.793  26.995   4.488  0.00  0.00    +0.484 P 
ATOM      3  O   UNL     1     -32.966  26.052   3.665  0.00  0.00    -0.227 OA
BRANCH   2   4
ATOM      4  O   UNL     1     -35.001  27.704   3.678  0.00  0.00    -0.302 OA
ATOM      5  H   UNL     1     -35.278  28.506   4.148  0.00  0.00    +0.222 HD
ENDBRANCH   2   4
BRANCH   2   6
ATOM      6  O   UNL     1     -32.967  28.247   5.091  0.00  0.00    -0.186 OA
BRANCH   6   7
ATOM      7  P   UNL     1     -31.811  28.311   6.219  0.00  0.00    +0.481 P 
ATOM      8  O   UNL     1     -30.467  27.822   5.766  0.00  0.00    -0.227 OA
BRANCH   7   9
ATOM      9  O   UNL     1     -32.460  27.497   7.456  0.00  0.00    -0.302 OA
ATOM     10  H   UNL     1     -33.314  27.125   7.185  0.00  0.00    +0.222 HD
ENDBRANCH   7   9
BRANCH   7  11
ATOM     11  O   UNL     1     -31.856  29.850   6.714  0.00  0.00    -0.302 OA
ATOM     12  H   UNL     1     -32.740  30.052   7.059  0.00  0.00    +0.222 HD
ENDBRANCH   7  11
ENDBRANCH   6   7
ENDBRANCH   2   6
ENDBRANCH   1   2
BRANCH   1  13
ATOM     13  C   UNL     1     -35.799  25.750   5.648  0.00  0.00    +0.186 C 
BRANCH  13  18
ATOM     14  O   UNL     1     -36.543  25.076   2.985  0.00  0.00    -0.270 OA
ATOM     15  O   UNL     1     -35.455  20.620   3.498  0.00  0.00    -0.252 OA
ATOM     16  N   UNL     1     -36.001  22.847   3.228  0.00  0.00    -0.236 N 
ATOM     17  N   UNL     1     -35.166  22.064   5.266  0.00  0.00    -0.267 N 
ATOM     18  C   UNL     1     -35.699  24.376   5.093  0.00  0.00    +0.076 C 
ATOM     19  C   UNL     1     -36.121  24.154   3.679  0.00  0.00    +0.252 C 
ATOM     20  C   UNL     1     -35.251  23.324   5.791  0.00  0.00    +0.068 C 
ATOM     21  C   UNL     1     -35.533  21.757   3.965  0.00  0.00    +0.310 C 
ATOM     22  H   UNL     1     -36.271  22.670   2.297  0.00  0.00    +0.159 HD
ATOM     23  H   UNL     1     -34.827  21.340   5.840  0.00  0.00    +0.156 HD
ENDBRANCH  13  18
ENDBRANCH   1  13
TORSDOF 8
ENDMDL
MODEL 3
REMARK VINA RESULT:      -5.8      2.128      3.107
REMARK  Name = 196034
REMARK  8 active torsions:
REMARK  status: ('A' for Active; 'I' for Inactive)
REMARK    1  A    between atoms: O_1  and  P_2
REMARK    2  A    between atoms: O_1  and  C_13
REMARK    3  A    between atoms: P_2  and  O_4
REMARK    4  A    between atoms: P_2  and  O_6
REMARK    5  A    between atoms: O_6  and  P_7
REMARK    6  A    between atoms: P_7  and  O_9
REMARK    7  A    between atoms: P_7  and  O_11
REMARK    8  A    between atoms: C_13  and  C_18
REMARK                            x       y       z     vdW  Elec       q    Type
REMARK                         _______ _______ _______ _____ _____    ______ ____
ROOT
ATOM      1  O   UNL     1     -36.680  26.533   2.566  0.00  0.00    -0.268 OA
ENDROOT
BRANCH   1   2
ATOM      2  P   UNL     1     -35.147  27.039   2.683  0.00  0.00    +0.484 P 
ATOM      3  O   UNL     1     -34.388  27.046   1.388  0.00  0.00    -0.227 OA
BRANCH   2   4
ATOM      4  O   UNL     1     -35.251  28.483   3.403  0.00  0.00    -0.302 OA
ATOM      5  H   UNL     1     -35.127  28.377   4.359  0.00  0.00    +0.222 HD
ENDBRANCH   2   4
BRANCH   2   6
ATOM      6  O   UNL     1     -34.497  26.100   3.827  0.00  0.00    -0.186 OA
BRANCH   6   7
ATOM      7  P   UNL     1     -34.864  25.927   5.391  0.00  0.00    +0.481 P 
ATOM      8  O   UNL     1     -33.882  26.549   6.339  0.00  0.00    -0.227 OA
BRANCH   7   9
ATOM      9  O   UNL     1     -35.055  24.329   5.548  0.00  0.00    -0.302 OA
ATOM     10  H   UNL     1     -34.775  24.055   6.435  0.00  0.00    +0.222 HD
ENDBRANCH   7   9
BRANCH   7  11
ATOM     11  O   UNL     1     -36.374  26.499   5.486  0.00  0.00    -0.302 OA
ATOM     12  H   UNL     1     -36.498  27.192   4.820  0.00  0.00    +0.222 HD
ENDBRANCH   7  11
ENDBRANCH   6   7
ENDBRANCH   2   6
ENDBRANCH   1   2
BRANCH   1  13
ATOM     13  C   UNL     1     -37.026  25.533   1.623  0.00  0.00    +0.186 C 
BRANCH  13  18
ATOM     14  O   UNL     1     -37.986  24.308   4.006  0.00  0.00    -0.270 OA
ATOM     15  O   UNL     1     -35.372  20.542   3.471  0.00  0.00    -0.252 OA
ATOM     16  N   UNL     1     -36.686  22.419   3.749  0.00  0.00    -0.236 N 
ATOM     17  N   UNL     1     -35.262  22.225   1.906  0.00  0.00    -0.267 N 
ATOM     18  C   UNL     1     -36.573  24.200   2.098  0.00  0.00    +0.076 C 
ATOM     19  C   UNL     1     -37.156  23.668   3.365  0.00  0.00    +0.252 C 
ATOM     20  C   UNL     1     -35.670  23.450   1.454  0.00  0.00    +0.068 C 
ATOM     21  C   UNL     1     -35.744  21.645   3.069  0.00  0.00    +0.310 C 
ATOM     22  H   UNL     1     -37.054  22.041   4.581  0.00  0.00    +0.159 HD
ATOM     23  H   UNL     1     -34.594  21.730   1.378  0.00  0.00    +0.156 HD
ENDBRANCH  13  18
ENDBRANCH   1  13
TORSDOF 8
ENDMDL
MODEL 4
REMARK VINA RESULT:      -5.7      2.895      3.925
REMARK  Name = 196034
REMARK  8 active torsions:
REMARK  status: ('A' for Active; 'I' for Inactive)
REMARK    1  A    between atoms: O_1  and  P_2
REMARK    2  A    between atoms: O_1  and  C_13
REMARK    3  A    between atoms: P_2  and  O_4
REMARK    4  A    between atoms: P_2  and  O_6
REMARK    5  A    between atoms: O_6  and  P_7
REMARK    6  A    between atoms: P_7  and  O_9
REMARK    7  A    between atoms: P_7  and  O_11
REMARK    8  A    between atoms: C_13  and  C_18
REMARK                            x       y       z     vdW  Elec       q    Type
REMARK                         _______ _______ _______ _____ _____    ______ ____
ROOT
ATOM      1  O   UNL     1     -37.056  23.996   4.531  0.00  0.00    -0.268 OA
ENDROOT
BRANCH   1   2
ATOM      2  P   UNL     1     -35.706  23.475   5.256  0.00  0.00    +0.484 P 
ATOM      3  O   UNL     1     -35.913  22.369   6.249  0.00  0.00    -0.227 OA
BRANCH   2   4
ATOM      4  O   UNL     1     -34.712  23.098   4.037  0.00  0.00    -0.302 OA
ATOM      5  H   UNL     1     -35.189  23.177   3.195  0.00  0.00    +0.222 HD
ENDBRANCH   2   4
BRANCH   2   6
ATOM      6  O   UNL     1     -35.039  24.809   5.879  0.00  0.00    -0.186 OA
BRANCH   6   7
ATOM      7  P   UNL     1     -34.299  26.057   5.166  0.00  0.00    +0.481 P 
ATOM      8  O   UNL     1     -35.208  26.965   4.392  0.00  0.00    -0.227 OA
BRANCH   7   9
ATOM      9  O   UNL     1     -33.134  25.346   4.300  0.00  0.00    -0.302 OA
ATOM     10  H   UNL     1     -33.490  25.077   3.439  0.00  0.00    +0.222 HD
ENDBRANCH   7   9
BRANCH   7  11
ATOM     11  O   UNL     1     -33.493  26.757   6.381  0.00  0.00    -0.302 OA
ATOM     12  H   UNL     1     -33.711  26.309   7.213  0.00  0.00    +0.222 HD
ENDBRANCH   7  11
ENDBRANCH   6   7
ENDBRANCH   2   6
ENDBRANCH   1   2
BRANCH   1  13
ATOM     13  C   UNL     1     -37.080  24.178   3.125  0.00  0.00    +0.186 C 
BRANCH  13  18
ATOM     14  O   UNL     1     -36.499  21.523   2.282  0.00  0.00    -0.270 OA
ATOM     15  O   UNL     1     -40.799  20.741   0.800  0.00  0.00    -0.252 OA
ATOM     16  N   UNL     1     -38.645  21.119   1.539  0.00  0.00    -0.236 N 
ATOM     17  N   UNL     1     -40.275  22.785   1.717  0.00  0.00    -0.267 N 
ATOM     18  C   UNL     1     -38.086  23.277   2.508  0.00  0.00    +0.076 C 
ATOM     19  C   UNL     1     -37.654  21.905   2.110  0.00  0.00    +0.252 C 
ATOM     20  C   UNL     1     -39.360  23.627   2.288  0.00  0.00    +0.068 C 
ATOM     21  C   UNL     1     -39.972  21.494   1.314  0.00  0.00    +0.310 C 
ATOM     22  H   UNL     1     -38.390  20.207   1.267  0.00  0.00    +0.159 HD
ATOM     23  H   UNL     1     -41.194  23.113   1.586  0.00  0.00    +0.156 HD
ENDBRANCH  13  18
ENDBRANCH   1  13
TORSDOF 8
ENDMDL
MODEL 5
REMARK VINA RESULT:      -5.7      3.405      6.592
REMARK  Name = 196034
REMARK  8 active torsions:
REMARK  status: ('A' for Active; 'I' for Inactive)
REMARK    1  A    between atoms: O_1  and  P_2
REMARK    2  A    between atoms: O_1  and  C_13
REMARK    3  A    between atoms: P_2  and  O_4
REMARK    4  A    between atoms: P_2  and  O_6
REMARK    5  A    between atoms: O_6  and  P_7
REMARK    6  A    between atoms: P_7  and  O_9
REMARK    7  A    between atoms: P_7  and  O_11
REMARK    8  A    between atoms: C_13  and  C_18
REMARK                            x       y       z     vdW  Elec       q    Type
REMARK                         _______ _______ _______ _____ _____    ______ ____
ROOT
ATOM      1  O   UNL     1     -34.656  23.575   4.493  0.00  0.00    -0.268 OA
ENDROOT
BRANCH   1   2
ATOM      2  P   UNL     1     -35.713  22.394   4.818  0.00  0.00    +0.484 P 
ATOM      3  O   UNL     1     -35.933  22.132   6.279  0.00  0.00    -0.227 OA
BRANCH   2   4
ATOM      4  O   UNL     1     -37.048  22.811   4.006  0.00  0.00    -0.302 OA
ATOM      5  H   UNL     1     -37.739  22.146   4.157  0.00  0.00    +0.222 HD
ENDBRANCH   2   4
BRANCH   2   6
ATOM      6  O   UNL     1     -35.161  21.118   3.992  0.00  0.00    -0.186 OA
BRANCH   6   7
ATOM      7  P   UNL     1     -35.468  20.616   2.487  0.00  0.00    +0.481 P 
ATOM      8  O   UNL     1     -35.466  21.702   1.451  0.00  0.00    -0.227 OA
BRANCH   7   9
ATOM      9  O   UNL     1     -36.864  19.816   2.645  0.00  0.00    -0.302 OA
ATOM     10  H   UNL     1     -37.406  19.953   1.852  0.00  0.00    +0.222 HD
ENDBRANCH   7   9
BRANCH   7  11
ATOM     11  O   UNL     1     -34.382  19.440   2.257  0.00  0.00    -0.302 OA
ATOM     12  H   UNL     1     -34.779  18.734   1.723  0.00  0.00    +0.222 HD
ENDBRANCH   7  11
ENDBRANCH   6   7
ENDBRANCH   2   6
ENDBRANCH   1   2
BRANCH   1  13
ATOM     13  C   UNL     1     -34.609  24.729   5.316  0.00  0.00    +0.186 C 
BRANCH  13  18
ATOM     14  O   UNL     1     -32.681  26.823   5.289  0.00  0.00    -0.270 OA
ATOM     15  O   UNL     1     -35.045  29.358   2.243  0.00  0.00    -0.252 OA
ATOM     16  N   UNL     1     -33.852  28.099   3.766  0.00  0.00    -0.236 N 
ATOM     17  N   UNL     1     -35.892  27.330   2.923  0.00  0.00    -0.267 N 
ATOM     18  C   UNL     1     -34.744  25.956   4.488  0.00  0.00    +0.076 C 
ATOM     19  C   UNL     1     -33.660  26.979   4.564  0.00  0.00    +0.252 C 
ATOM     20  C   UNL     1     -35.783  26.195   3.678  0.00  0.00    +0.068 C 
ATOM     21  C   UNL     1     -34.940  28.337   2.924  0.00  0.00    +0.310 C 
ATOM     22  H   UNL     1     -33.152  28.792   3.794  0.00  0.00    +0.159 HD
ATOM     23  H   UNL     1     -36.686  27.437   2.351  0.00  0.00    +0.156 HD
ENDBRANCH  13  18
ENDBRANCH   1  13
TORSDOF 8
ENDMDL
MODEL 6
REMARK VINA RESULT:      -5.7      3.493      6.366
REMARK  Name = 196034
REMARK  8 active torsions:
REMARK  status: ('A' for Active; 'I' for Inactive)
REMARK    1  A    between atoms: O_1  and  P_2
REMARK    2  A    between atoms: O_1  and  C_13
REMARK    3  A    between atoms: P_2  and  O_4
REMARK    4  A    between atoms: P_2  and  O_6
REMARK    5  A    between atoms: O_6  and  P_7
REMARK    6  A    between atoms: P_7  and  O_9
REMARK    7  A    between atoms: P_7  and  O_11
REMARK    8  A    between atoms: C_13  and  C_18
REMARK                            x       y       z     vdW  Elec       q    Type
REMARK                         _______ _______ _______ _____ _____    ______ ____
ROOT
ATOM      1  O   UNL     1     -37.539  24.169   2.104  0.00  0.00    -0.268 OA
ENDROOT
BRANCH   1   2
ATOM      2  P   UNL     1     -37.555  22.603   1.698  0.00  0.00    +0.484 P 
ATOM      3  O   UNL     1     -38.678  21.810   2.299  0.00  0.00    -0.227 OA
BRANCH   2   4
ATOM      4  O   UNL     1     -37.529  22.604   0.081  0.00  0.00    -0.302 OA
ATOM      5  H   UNL     1     -38.420  22.789  -0.256  0.00  0.00    +0.222 HD
ENDBRANCH   2   4
BRANCH   2   6
ATOM      6  O   UNL     1     -36.081  22.067   2.092  0.00  0.00    -0.186 OA
BRANCH   6   7
ATOM      7  P   UNL     1     -35.570  20.601   2.541  0.00  0.00    +0.481 P 
ATOM      8  O   UNL     1     -34.379  20.094   1.784  0.00  0.00    -0.227 OA
BRANCH   7   9
ATOM      9  O   UNL     1     -36.903  19.695   2.418  0.00  0.00    -0.302 OA
ATOM     10  H   UNL     1     -36.669  18.823   2.065  0.00  0.00    +0.222 HD
ENDBRANCH   7   9
BRANCH   7  11
ATOM     11  O   UNL     1     -35.362  20.751   4.138  0.00  0.00    -0.302 OA
ATOM     12  H   UNL     1     -34.497  20.388   4.385  0.00  0.00    +0.222 HD
ENDBRANCH   7  11
ENDBRANCH   6   7
ENDBRANCH   2   6
ENDBRANCH   1   2
BRANCH   1  13
ATOM     13  C   UNL     1     -37.866  24.562   3.427  0.00  0.00    +0.186 C 
BRANCH  13  18
ATOM     14  O   UNL     1     -36.276  23.137   5.308  0.00  0.00    -0.270 OA
ATOM     15  O   UNL     1     -33.391  26.674   5.989  0.00  0.00    -0.252 OA
ATOM     16  N   UNL     1     -34.825  24.896   5.656  0.00  0.00    -0.236 N 
ATOM     17  N   UNL     1     -35.140  26.911   4.513  0.00  0.00    -0.267 N 
ATOM     18  C   UNL     1     -36.675  25.143   4.099  0.00  0.00    +0.076 C 
ATOM     19  C   UNL     1     -35.925  24.289   5.066  0.00  0.00    +0.252 C 
ATOM     20  C   UNL     1     -36.238  26.391   3.886  0.00  0.00    +0.068 C 
ATOM     21  C   UNL     1     -34.378  26.199   5.426  0.00  0.00    +0.310 C 
ATOM     22  H   UNL     1     -34.309  24.357   6.299  0.00  0.00    +0.159 HD
ATOM     23  H   UNL     1     -34.878  27.838   4.307  0.00  0.00    +0.156 HD
ENDBRANCH  13  18
ENDBRANCH   1  13
TORSDOF 8
ENDMDL
MODEL 7
REMARK VINA RESULT:      -5.6      2.314      3.382
REMARK  Name = 196034
REMARK  8 active torsions:
REMARK  status: ('A' for Active; 'I' for Inactive)
REMARK    1  A    between atoms: O_1  and  P_2
REMARK    2  A    between atoms: O_1  and  C_13
REMARK    3  A    between atoms: P_2  and  O_4
REMARK    4  A    between atoms: P_2  and  O_6
REMARK    5  A    between atoms: O_6  and  P_7
REMARK    6  A    between atoms: P_7  and  O_9
REMARK    7  A    between atoms: P_7  and  O_11
REMARK    8  A    between atoms: C_13  and  C_18
REMARK                            x       y       z     vdW  Elec       q    Type
REMARK                         _______ _______ _______ _____ _____    ______ ____
ROOT
ATOM      1  O   UNL     1     -32.989  26.842   5.081  0.00  0.00    -0.268 OA
ENDROOT
BRANCH   1   2
ATOM      2  P   UNL     1     -32.210  28.165   5.594  0.00  0.00    +0.484 P 
ATOM      3  O   UNL     1     -32.783  29.462   5.103  0.00  0.00    -0.227 OA
BRANCH   2   4
ATOM      4  O   UNL     1     -32.178  28.016   7.204  0.00  0.00    -0.302 OA
ATOM      5  H   UNL     1     -32.789  28.657   7.600  0.00  0.00    +0.222 HD
ENDBRANCH   2   4
BRANCH   2   6
ATOM      6  O   UNL     1     -30.670  27.918   5.168  0.00  0.00    -0.186 OA
BRANCH   6   7
ATOM      7  P   UNL     1     -29.290  28.261   5.936  0.00  0.00    +0.481 P 
ATOM      8  O   UNL     1     -28.088  28.374   5.044  0.00  0.00    -0.227 OA
BRANCH   7   9
ATOM      9  O   UNL     1     -29.203  27.109   7.067  0.00  0.00    -0.302 OA
ATOM     10  H   UNL     1     -28.273  26.907   7.252  0.00  0.00    +0.222 HD
ENDBRANCH   7   9
BRANCH   7  11
ATOM     11  O   UNL     1     -29.651  29.592   6.779  0.00  0.00    -0.302 OA
ATOM     12  H   UNL     1     -30.308  29.375   7.459  0.00  0.00    +0.222 HD
ENDBRANCH   7  11
ENDBRANCH   6   7
ENDBRANCH   2   6
ENDBRANCH   1   2
BRANCH   1  13
ATOM     13  C   UNL     1     -33.788  26.096   5.984  0.00  0.00    +0.186 C 
BRANCH  13  18
ATOM     14  O   UNL     1     -34.665  23.390   5.886  0.00  0.00    -0.270 OA
ATOM     15  O   UNL     1     -38.494  24.411   3.521  0.00  0.00    -0.252 OA
ATOM     16  N   UNL     1     -36.583  23.887   4.706  0.00  0.00    -0.236 N 
ATOM     17  N   UNL     1     -37.043  26.099   4.104  0.00  0.00    -0.267 N 
ATOM     18  C   UNL     1     -35.047  25.667   5.323  0.00  0.00    +0.076 C 
ATOM     19  C   UNL     1     -35.394  24.216   5.343  0.00  0.00    +0.252 C 
ATOM     20  C   UNL     1     -35.888  26.510   4.709  0.00  0.00    +0.068 C 
ATOM     21  C   UNL     1     -37.453  24.775   4.069  0.00  0.00    +0.310 C 
ATOM     22  H   UNL     1     -36.840  22.936   4.703  0.00  0.00    +0.159 HD
ATOM     23  H   UNL     1     -37.612  26.777   3.672  0.00  0.00    +0.156 HD
ENDBRANCH  13  18
ENDBRANCH   1  13
TORSDOF 8
ENDMDL
MODEL 8
REMARK VINA RESULT:      -5.6      3.503      6.841
REMARK  Name = 196034
REMARK  8 active torsions:
REMARK  status: ('A' for Active; 'I' for Inactive)
REMARK    1  A    between atoms: O_1  and  P_2
REMARK    2  A    between atoms: O_1  and  C_13
REMARK    3  A    between atoms: P_2  and  O_4
REMARK    4  A    between atoms: P_2  and  O_6
REMARK    5  A    between atoms: O_6  and  P_7
REMARK    6  A    between atoms: P_7  and  O_9
REMARK    7  A    between atoms: P_7  and  O_11
REMARK    8  A    between atoms: C_13  and  C_18
REMARK                            x       y       z     vdW  Elec       q    Type
REMARK                         _______ _______ _______ _____ _____    ______ ____
ROOT
ATOM      1  O   UNL     1     -34.936  23.884   3.827  0.00  0.00    -0.268 OA
ENDROOT
BRANCH   1   2
ATOM      2  P   UNL     1     -35.835  22.710   4.486  0.00  0.00    +0.484 P 
ATOM      3  O   UNL     1     -35.901  22.736   5.984  0.00  0.00    -0.227 OA
BRANCH   2   4
ATOM      4  O   UNL     1     -37.271  22.841   3.752  0.00  0.00    -0.302 OA
ATOM      5  H   UNL     1     -37.275  22.293   2.951  0.00  0.00    +0.222 HD
ENDBRANCH   2   4
BRANCH   2   6
ATOM      6  O   UNL     1     -35.229  21.343   3.872  0.00  0.00    -0.186 OA
BRANCH   6   7
ATOM      7  P   UNL     1     -35.452  20.634   2.437  0.00  0.00    +0.481 P 
ATOM      8  O   UNL     1     -34.311  19.774   1.979  0.00  0.00    -0.227 OA
BRANCH   7   9
ATOM      9  O   UNL     1     -35.813  21.875   1.467  0.00  0.00    -0.302 OA
ATOM     10  H   UNL     1     -35.414  22.686   1.818  0.00  0.00    +0.222 HD
ENDBRANCH   7   9
BRANCH   7  11
ATOM     11  O   UNL     1     -36.866  19.869   2.614  0.00  0.00    -0.302 OA
ATOM     12  H   UNL     1     -37.055  19.352   1.815  0.00  0.00    +0.222 HD
ENDBRANCH   7  11
ENDBRANCH   6   7
ENDBRANCH   2   6
ENDBRANCH   1   2
BRANCH   1  13
ATOM     13  C   UNL     1     -35.399  25.224   3.843  0.00  0.00    +0.186 C 
BRANCH  13  18
ATOM     14  O   UNL     1     -33.946  27.350   2.629  0.00  0.00    -0.270 OA
ATOM     15  O   UNL     1     -31.796  28.506   6.546  0.00  0.00    -0.252 OA
ATOM     16  N   UNL     1     -32.867  27.939   4.581  0.00  0.00    -0.236 N 
ATOM     17  N   UNL     1     -33.288  26.755   6.551  0.00  0.00    -0.267 N 
ATOM     18  C   UNL     1     -34.443  26.089   4.582  0.00  0.00    +0.076 C 
ATOM     19  C   UNL     1     -33.745  27.172   3.828  0.00  0.00    +0.252 C 
ATOM     20  C   UNL     1     -34.172  25.951   5.886  0.00  0.00    +0.068 C 
ATOM     21  C   UNL     1     -32.592  27.786   5.942  0.00  0.00    +0.310 C 
ATOM     22  H   UNL     1     -32.391  28.663   4.111  0.00  0.00    +0.159 HD
ATOM     23  H   UNL     1     -33.140  26.593   7.511  0.00  0.00    +0.156 HD
ENDBRANCH  13  18
ENDBRANCH   1  13
TORSDOF 8
ENDMDL
MODEL 9
REMARK VINA RESULT:      -5.6      2.424      3.810
REMARK  Name = 196034
REMARK  8 active torsions:
REMARK  status: ('A' for Active; 'I' for Inactive)
REMARK    1  A    between atoms: O_1  and  P_2
REMARK    2  A    between atoms: O_1  and  C_13
REMARK    3  A    between atoms: P_2  and  O_4
REMARK    4  A    between atoms: P_2  and  O_6
REMARK    5  A    between atoms: O_6  and  P_7
REMARK    6  A    between atoms: P_7  and  O_9
REMARK    7  A    between atoms: P_7  and  O_11
REMARK    8  A    between atoms: C_13  and  C_18
REMARK                            x       y       z     vdW  Elec       q    Type
REMARK                         _______ _______ _______ _____ _____    ______ ____
ROOT
ATOM      1  O   UNL     1     -35.305  23.625   2.965  0.00  0.00    -0.268 OA
ENDROOT
BRANCH   1   2
ATOM      2  P   UNL     1     -36.111  23.823   4.354  0.00  0.00    +0.484 P 
ATOM      3  O   UNL     1     -37.434  24.518   4.218  0.00  0.00    -0.227 OA
BRANCH   2   4
ATOM      4  O   UNL     1     -36.201  22.336   4.984  0.00  0.00    -0.302 OA
ATOM      5  H   UNL     1     -35.888  21.689   4.332  0.00  0.00    +0.222 HD
ENDBRANCH   2   4
BRANCH   2   6
ATOM      6  O   UNL     1     -35.064  24.576   5.327  0.00  0.00    -0.186 OA
BRANCH   6   7
ATOM      7  P   UNL     1     -34.329  26.009   5.189  0.00  0.00    +0.481 P 
ATOM      8  O   UNL     1     -33.732  26.533   6.462  0.00  0.00    -0.227 OA
BRANCH   7   9
ATOM      9  O   UNL     1     -35.470  26.944   4.528  0.00  0.00    -0.302 OA
ATOM     10  H   UNL     1     -36.342  26.553   4.689  0.00  0.00    +0.222 HD
ENDBRANCH   7   9
BRANCH   7  11
ATOM     11  O   UNL     1     -33.282  25.777   3.979  0.00  0.00    -0.302 OA
ATOM     12  H   UNL     1     -32.775  24.967   4.143  0.00  0.00    +0.222 HD
ENDBRANCH   7  11
ENDBRANCH   6   7
ENDBRANCH   2   6
ENDBRANCH   1   2
BRANCH   1  13
ATOM     13  C   UNL     1     -35.874  22.857   1.918  0.00  0.00    +0.186 C 
BRANCH  13  18
ATOM     14  O   UNL     1     -35.988  20.230   3.008  0.00  0.00    -0.270 OA
ATOM     15  O   UNL     1     -32.436  18.712   0.482  0.00  0.00    -0.252 OA
ATOM     16  N   UNL     1     -34.215  19.458   1.750  0.00  0.00    -0.236 N 
ATOM     17  N   UNL     1     -33.128  20.895   0.261  0.00  0.00    -0.267 N 
ATOM     18  C   UNL     1     -34.948  21.765   1.521  0.00  0.00    +0.076 C 
ATOM     19  C   UNL     1     -35.114  20.430   2.168  0.00  0.00    +0.252 C 
ATOM     20  C   UNL     1     -33.972  21.911   0.615  0.00  0.00    +0.068 C 
ATOM     21  C   UNL     1     -33.201  19.622   0.804  0.00  0.00    +0.310 C 
ATOM     22  H   UNL     1     -34.301  18.566   2.158  0.00  0.00    +0.159 HD
ATOM     23  H   UNL     1     -32.433  21.078  -0.413  0.00  0.00    +0.156 HD
ENDBRANCH  13  18
ENDBRANCH   1  13
TORSDOF 8
ENDMDL
