MODEL 1
REMARK VINA RESULT:      -5.4      0.000      0.000
REMARK  Name = 20849107
REMARK  15 active torsions:
REMARK  status: ('A' for Active; 'I' for Inactive)
REMARK    1  A    between atoms: C_1  and  C_20
REMARK    2  A    between atoms: C_2  and  C_10
REMARK    3  A    between atoms: C_3  and  O_6
REMARK    4  A    between atoms: C_4  and  O_8
REMARK    5  A    between atoms: C_11  and  C_12
REMARK    6  A    between atoms: C_12  and  O_13
REMARK    7  A    between atoms: C_12  and  C_15
REMARK    8  A    between atoms: C_15  and  C_16
REMARK    9  A    between atoms: C_16  and  C_17
REMARK   10  A    between atoms: C_17  and  C_18
REMARK   11  A    between atoms: C_20  and  C_21
REMARK   12  A    between atoms: C_22  and  C_23
REMARK   13  A    between atoms: C_23  and  C_24
REMARK   14  A    between atoms: C_24  and  C_25
REMARK   15  A    between atoms: C_25  and  C_28
REMARK                            x       y       z     vdW  Elec       q    Type
REMARK                         _______ _______ _______ _____ _____    ______ ____
ROOT
ATOM      1  C   UNL     1     -36.496  21.969   1.948  0.00  0.00    +0.038 C 
ATOM      2  C   UNL     1     -37.852  22.323   2.584  0.00  0.00    +0.051 C 
ATOM      3  C   UNL     1     -36.754  20.571   1.377  0.00  0.00    +0.114 C 
ATOM      4  C   UNL     1     -38.881  21.751   1.590  0.00  0.00    +0.117 C 
ATOM      5  C   UNL     1     -38.144  20.693   0.754  0.00  0.00    +0.059 C 
ENDROOT
BRANCH   3   6
ATOM      6  O   UNL     1     -36.750  19.562   2.380  0.00  0.00    -0.384 OA
ATOM      7  H   UNL     1     -35.953  19.016   2.285  0.00  0.00    +0.210 HD
ENDBRANCH   3   6
BRANCH   4   8
ATOM      8  O   UNL     1     -39.956  21.139   2.294  0.00  0.00    -0.384 OA
ATOM      9  H   UNL     1     -40.686  20.965   1.680  0.00  0.00    +0.210 HD
ENDBRANCH   4   8
BRANCH   2  10
ATOM     10  C   UNL     1     -38.043  23.785   2.817  0.00  0.00    -0.026 C 
ATOM     11  C   UNL     1     -38.067  24.700   1.837  0.00  0.00    -0.002 C 
BRANCH  11  12
ATOM     12  C   UNL     1     -38.257  26.171   2.076  0.00  0.00    +0.132 C 
BRANCH  12  13
ATOM     13  O   UNL     1     -38.671  26.357   3.431  0.00  0.00    -0.380 OA
ATOM     14  H   UNL     1     -39.016  27.257   3.543  0.00  0.00    +0.211 HD
ENDBRANCH  12  13
BRANCH  12  15
ATOM     15  C   UNL     1     -36.969  26.981   1.872  0.00  0.00    +0.034 C 
BRANCH  15  16
ATOM     16  C   UNL     1     -36.035  26.374   0.821  0.00  0.00    +0.003 C 
BRANCH  16  17
ATOM     17  C   UNL     1     -34.821  25.662   1.428  0.00  0.00    +0.000 C 
BRANCH  17  18
ATOM     18  C   UNL     1     -34.201  24.616   0.500  0.00  0.00    +0.000 C 
ATOM     19  C   UNL     1     -35.186  24.172  -0.570  0.00  0.00    +0.000 C 
ENDBRANCH  17  18
ENDBRANCH  16  17
ENDBRANCH  15  16
ENDBRANCH  12  15
ENDBRANCH  11  12
ENDBRANCH   2  10
BRANCH   1  20
ATOM     20  C   UNL     1     -35.333  22.020   2.933  0.00  0.00    +0.028 C 
BRANCH  20  21
ATOM     21  C   UNL     1     -35.780  21.674   4.321  0.00  0.00    -0.031 C 
ATOM     22  C   UNL     1     -35.547  22.447   5.392  0.00  0.00    -0.031 C 
BRANCH  22  23
ATOM     23  C   UNL     1     -34.810  23.754   5.334  0.00  0.00    +0.026 C 
BRANCH  23  24
ATOM     24  C   UNL     1     -35.771  24.936   5.495  0.00  0.00    +0.016 C 
BRANCH  24  25
ATOM     25  C   UNL     1     -35.187  26.234   4.944  0.00  0.00    +0.114 C 
BRANCH  25  28
ATOM     26  O   UNL     1     -32.907  26.462   4.305  0.00  0.00    -0.246 OA
ATOM     27  O   UNL     1     -33.500  26.795   6.485  0.00  0.00    -0.246 OA
ATOM     28  C   UNL     1     -33.717  26.519   5.270  0.00  0.00    +0.365 C 
ENDBRANCH  25  28
ENDBRANCH  24  25
ENDBRANCH  23  24
ENDBRANCH  22  23
ENDBRANCH  20  21
ENDBRANCH   1  20
TORSDOF 15
ENDMDL
MODEL 2
REMARK VINA RESULT:      -5.4      3.240      5.340
REMARK  Name = 20849107
REMARK  15 active torsions:
REMARK  status: ('A' for Active; 'I' for Inactive)
REMARK    1  A    between atoms: C_1  and  C_20
REMARK    2  A    between atoms: C_2  and  C_10
REMARK    3  A    between atoms: C_3  and  O_6
REMARK    4  A    between atoms: C_4  and  O_8
REMARK    5  A    between atoms: C_11  and  C_12
REMARK    6  A    between atoms: C_12  and  O_13
REMARK    7  A    between atoms: C_12  and  C_15
REMARK    8  A    between atoms: C_15  and  C_16
REMARK    9  A    between atoms: C_16  and  C_17
REMARK   10  A    between atoms: C_17  and  C_18
REMARK   11  A    between atoms: C_20  and  C_21
REMARK   12  A    between atoms: C_22  and  C_23
REMARK   13  A    between atoms: C_23  and  C_24
REMARK   14  A    between atoms: C_24  and  C_25
REMARK   15  A    between atoms: C_25  and  C_28
REMARK                            x       y       z     vdW  Elec       q    Type
REMARK                         _______ _______ _______ _____ _____    ______ ____
ROOT
ATOM      1  C   UNL     1     -36.798  21.767   1.334  0.00  0.00    +0.038 C 
ATOM      2  C   UNL     1     -37.937  22.012   2.341  0.00  0.00    +0.051 C 
ATOM      3  C   UNL     1     -37.323  20.576   0.526  0.00  0.00    +0.114 C 
ATOM      4  C   UNL     1     -39.214  21.763   1.515  0.00  0.00    +0.117 C 
ATOM      5  C   UNL     1     -38.795  20.920   0.300  0.00  0.00    +0.059 C 
ENDROOT
BRANCH   3   6
ATOM      6  O   UNL     1     -37.207  19.345   1.229  0.00  0.00    -0.384 OA
ATOM      7  H   UNL     1     -38.088  18.954   1.343  0.00  0.00    +0.210 HD
ENDBRANCH   3   6
BRANCH   4   8
ATOM      8  O   UNL     1     -40.167  21.044   2.290  0.00  0.00    -0.384 OA
ATOM      9  H   UNL     1     -39.820  20.910   3.185  0.00  0.00    +0.210 HD
ENDBRANCH   4   8
BRANCH   2  10
ATOM     10  C   UNL     1     -37.915  23.373   2.953  0.00  0.00    -0.026 C 
ATOM     11  C   UNL     1     -37.276  24.422   2.416  0.00  0.00    -0.002 C 
BRANCH  11  12
ATOM     12  C   UNL     1     -37.254  25.791   3.037  0.00  0.00    +0.132 C 
BRANCH  12  13
ATOM     13  O   UNL     1     -38.604  26.209   3.250  0.00  0.00    -0.380 OA
ATOM     14  H   UNL     1     -39.107  25.484   3.652  0.00  0.00    +0.211 HD
ENDBRANCH  12  13
BRANCH  12  15
ATOM     15  C   UNL     1     -36.543  25.818   4.397  0.00  0.00    +0.034 C 
BRANCH  15  16
ATOM     16  C   UNL     1     -35.117  25.264   4.343  0.00  0.00    +0.003 C 
BRANCH  16  17
ATOM     17  C   UNL     1     -34.781  24.338   5.517  0.00  0.00    +0.000 C 
BRANCH  17  18
ATOM     18  C   UNL     1     -34.992  22.856   5.204  0.00  0.00    +0.000 C 
ATOM     19  C   UNL     1     -35.520  22.104   6.416  0.00  0.00    +0.000 C 
ENDBRANCH  17  18
ENDBRANCH  16  17
ENDBRANCH  15  16
ENDBRANCH  12  15
ENDBRANCH  11  12
ENDBRANCH   2  10
BRANCH   1  20
ATOM     20  C   UNL     1     -35.450  21.508   1.995  0.00  0.00    +0.028 C 
BRANCH  20  21
ATOM     21  C   UNL     1     -34.343  21.491   0.986  0.00  0.00    -0.031 C 
ATOM     22  C   UNL     1     -33.592  20.411   0.722  0.00  0.00    -0.031 C 
BRANCH  22  23
ATOM     23  C   UNL     1     -33.768  19.086   1.406  0.00  0.00    +0.026 C 
BRANCH  23  24
ATOM     24  C   UNL     1     -32.482  18.256   1.339  0.00  0.00    +0.016 C 
BRANCH  24  25
ATOM     25  C   UNL     1     -31.374  18.967   0.567  0.00  0.00    +0.114 C 
BRANCH  25  28
ATOM     26  O   UNL     1     -29.847  17.259   1.207  0.00  0.00    -0.246 OA
ATOM     27  O   UNL     1     -29.339  18.616  -0.558  0.00  0.00    -0.246 OA
ATOM     28  C   UNL     1     -30.056  18.204   0.398  0.00  0.00    +0.365 C 
ENDBRANCH  25  28
ENDBRANCH  24  25
ENDBRANCH  23  24
ENDBRANCH  22  23
ENDBRANCH  20  21
ENDBRANCH   1  20
TORSDOF 15
ENDMDL
MODEL 3
REMARK VINA RESULT:      -5.2      1.542      2.197
REMARK  Name = 20849107
REMARK  15 active torsions:
REMARK  status: ('A' for Active; 'I' for Inactive)
REMARK    1  A    between atoms: C_1  and  C_20
REMARK    2  A    between atoms: C_2  and  C_10
REMARK    3  A    between atoms: C_3  and  O_6
REMARK    4  A    between atoms: C_4  and  O_8
REMARK    5  A    between atoms: C_11  and  C_12
REMARK    6  A    between atoms: C_12  and  O_13
REMARK    7  A    between atoms: C_12  and  C_15
REMARK    8  A    between atoms: C_15  and  C_16
REMARK    9  A    between atoms: C_16  and  C_17
REMARK   10  A    between atoms: C_17  and  C_18
REMARK   11  A    between atoms: C_20  and  C_21
REMARK   12  A    between atoms: C_22  and  C_23
REMARK   13  A    between atoms: C_23  and  C_24
REMARK   14  A    between atoms: C_24  and  C_25
REMARK   15  A    between atoms: C_25  and  C_28
REMARK                            x       y       z     vdW  Elec       q    Type
REMARK                         _______ _______ _______ _____ _____    ______ ____
ROOT
ATOM      1  C   UNL     1     -36.700  22.203   1.923  0.00  0.00    +0.038 C 
ATOM      2  C   UNL     1     -38.075  22.413   2.583  0.00  0.00    +0.051 C 
ATOM      3  C   UNL     1     -36.788  20.755   1.432  0.00  0.00    +0.114 C 
ATOM      4  C   UNL     1     -39.045  21.660   1.653  0.00  0.00    +0.117 C 
ATOM      5  C   UNL     1     -38.198  20.662   0.848  0.00  0.00    +0.059 C 
ENDROOT
BRANCH   3   6
ATOM      6  O   UNL     1     -36.627  19.810   2.483  0.00  0.00    -0.384 OA
ATOM      7  H   UNL     1     -35.993  20.155   3.132  0.00  0.00    +0.210 HD
ENDBRANCH   3   6
BRANCH   4   8
ATOM      8  O   UNL     1     -40.013  20.954   2.421  0.00  0.00    -0.384 OA
ATOM      9  H   UNL     1     -40.029  20.025   2.144  0.00  0.00    +0.210 HD
ENDBRANCH   4   8
BRANCH   2  10
ATOM     10  C   UNL     1     -38.449  23.848   2.748  0.00  0.00    -0.026 C 
ATOM     11  C   UNL     1     -39.714  24.289   2.795  0.00  0.00    -0.002 C 
BRANCH  11  12
ATOM     12  C   UNL     1     -40.086  25.736   2.960  0.00  0.00    +0.132 C 
BRANCH  12  13
ATOM     13  O   UNL     1     -38.915  26.462   3.336  0.00  0.00    -0.380 OA
ATOM     14  H   UNL     1     -39.157  27.170   3.953  0.00  0.00    +0.211 HD
ENDBRANCH  12  13
BRANCH  12  15
ATOM     15  C   UNL     1     -40.623  26.365   1.667  0.00  0.00    +0.034 C 
BRANCH  15  16
ATOM     16  C   UNL     1     -39.521  26.727   0.668  0.00  0.00    +0.003 C 
BRANCH  16  17
ATOM     17  C   UNL     1     -39.662  26.009  -0.678  0.00  0.00    +0.000 C 
BRANCH  17  18
ATOM     18  C   UNL     1     -38.753  24.787  -0.816  0.00  0.00    +0.000 C 
ATOM     19  C   UNL     1     -37.314  25.125  -0.460  0.00  0.00    +0.000 C 
ENDBRANCH  17  18
ENDBRANCH  16  17
ENDBRANCH  15  16
ENDBRANCH  12  15
ENDBRANCH  11  12
ENDBRANCH   2  10
BRANCH   1  20
ATOM     20  C   UNL     1     -35.530  22.457   2.866  0.00  0.00    +0.028 C 
BRANCH  20  21
ATOM     21  C   UNL     1     -35.941  22.301   4.298  0.00  0.00    -0.031 C 
ATOM     22  C   UNL     1     -35.414  23.012   5.306  0.00  0.00    -0.031 C 
BRANCH  22  23
ATOM     23  C   UNL     1     -34.347  24.052   5.125  0.00  0.00    +0.026 C 
BRANCH  23  24
ATOM     24  C   UNL     1     -34.745  25.373   5.791  0.00  0.00    +0.016 C 
BRANCH  24  25
ATOM     25  C   UNL     1     -35.850  26.096   5.026  0.00  0.00    +0.114 C 
BRANCH  25  28
ATOM     26  O   UNL     1     -36.001  26.330   2.664  0.00  0.00    -0.246 OA
ATOM     27  O   UNL     1     -34.611  27.707   3.842  0.00  0.00    -0.246 OA
ATOM     28  C   UNL     1     -35.449  26.769   3.710  0.00  0.00    +0.365 C 
ENDBRANCH  25  28
ENDBRANCH  24  25
ENDBRANCH  23  24
ENDBRANCH  22  23
ENDBRANCH  20  21
ENDBRANCH   1  20
TORSDOF 15
ENDMDL
MODEL 4
REMARK VINA RESULT:      -5.1      2.432      3.929
REMARK  Name = 20849107
REMARK  15 active torsions:
REMARK  status: ('A' for Active; 'I' for Inactive)
REMARK    1  A    between atoms: C_1  and  C_20
REMARK    2  A    between atoms: C_2  and  C_10
REMARK    3  A    between atoms: C_3  and  O_6
REMARK    4  A    between atoms: C_4  and  O_8
REMARK    5  A    between atoms: C_11  and  C_12
REMARK    6  A    between atoms: C_12  and  O_13
REMARK    7  A    between atoms: C_12  and  C_15
REMARK    8  A    between atoms: C_15  and  C_16
REMARK    9  A    between atoms: C_16  and  C_17
REMARK   10  A    between atoms: C_17  and  C_18
REMARK   11  A    between atoms: C_20  and  C_21
REMARK   12  A    between atoms: C_22  and  C_23
REMARK   13  A    between atoms: C_23  and  C_24
REMARK   14  A    between atoms: C_24  and  C_25
REMARK   15  A    between atoms: C_25  and  C_28
REMARK                            x       y       z     vdW  Elec       q    Type
REMARK                         _______ _______ _______ _____ _____    ______ ____
ROOT
ATOM      1  C   UNL     1     -36.709  22.216   1.858  0.00  0.00    +0.038 C 
ATOM      2  C   UNL     1     -38.084  22.440   2.513  0.00  0.00    +0.051 C 
ATOM      3  C   UNL     1     -36.787  20.750   1.420  0.00  0.00    +0.114 C 
ATOM      4  C   UNL     1     -39.050  21.646   1.613  0.00  0.00    +0.117 C 
ATOM      5  C   UNL     1     -38.197  20.626   0.843  0.00  0.00    +0.059 C 
ENDROOT
BRANCH   3   6
ATOM      6  O   UNL     1     -36.618  19.845   2.505  0.00  0.00    -0.384 OA
ATOM      7  H   UNL     1     -35.985  20.218   3.140  0.00  0.00    +0.210 HD
ENDBRANCH   3   6
BRANCH   4   8
ATOM      8  O   UNL     1     -40.012  20.962   2.408  0.00  0.00    -0.384 OA
ATOM      9  H   UNL     1     -40.874  21.396   2.316  0.00  0.00    +0.210 HD
ENDBRANCH   4   8
BRANCH   2  10
ATOM     10  C   UNL     1     -38.468  23.877   2.627  0.00  0.00    -0.026 C 
ATOM     11  C   UNL     1     -39.716  24.299   2.876  0.00  0.00    -0.002 C 
BRANCH  11  12
ATOM     12  C   UNL     1     -40.099  25.748   2.988  0.00  0.00    +0.132 C 
BRANCH  12  13
ATOM     13  O   UNL     1     -38.941  26.491   3.373  0.00  0.00    -0.380 OA
ATOM     14  H   UNL     1     -38.149  26.068   3.006  0.00  0.00    +0.211 HD
ENDBRANCH  12  13
BRANCH  12  15
ATOM     15  C   UNL     1     -40.604  26.336   1.662  0.00  0.00    +0.034 C 
BRANCH  15  16
ATOM     16  C   UNL     1     -41.959  27.037   1.790  0.00  0.00    +0.003 C 
BRANCH  16  17
ATOM     17  C   UNL     1     -42.853  26.434   2.879  0.00  0.00    +0.000 C 
BRANCH  17  18
ATOM     18  C   UNL     1     -43.598  27.483   3.707  0.00  0.00    +0.000 C 
ATOM     19  C   UNL     1     -44.664  26.842   4.582  0.00  0.00    +0.000 C 
ENDBRANCH  17  18
ENDBRANCH  16  17
ENDBRANCH  15  16
ENDBRANCH  12  15
ENDBRANCH  11  12
ENDBRANCH   2  10
BRANCH   1  20
ATOM     20  C   UNL     1     -35.539  22.512   2.789  0.00  0.00    +0.028 C 
BRANCH  20  21
ATOM     21  C   UNL     1     -35.916  22.294   4.223  0.00  0.00    -0.031 C 
ATOM     22  C   UNL     1     -35.387  22.983   5.245  0.00  0.00    -0.031 C 
BRANCH  22  23
ATOM     23  C   UNL     1     -34.352  24.059   5.079  0.00  0.00    +0.026 C 
BRANCH  23  24
ATOM     24  C   UNL     1     -34.768  25.341   5.806  0.00  0.00    +0.016 C 
BRANCH  24  25
ATOM     25  C   UNL     1     -35.847  26.111   5.049  0.00  0.00    +0.114 C 
BRANCH  25  28
ATOM     26  O   UNL     1     -36.002  26.410   2.694  0.00  0.00    -0.246 OA
ATOM     27  O   UNL     1     -34.528  27.677   3.892  0.00  0.00    -0.246 OA
ATOM     28  C   UNL     1     -35.418  26.792   3.745  0.00  0.00    +0.365 C 
ENDBRANCH  25  28
ENDBRANCH  24  25
ENDBRANCH  23  24
ENDBRANCH  22  23
ENDBRANCH  20  21
ENDBRANCH   1  20
TORSDOF 15
ENDMDL
MODEL 5
REMARK VINA RESULT:      -5.1      1.714      6.054
REMARK  Name = 20849107
REMARK  15 active torsions:
REMARK  status: ('A' for Active; 'I' for Inactive)
REMARK    1  A    between atoms: C_1  and  C_20
REMARK    2  A    between atoms: C_2  and  C_10
REMARK    3  A    between atoms: C_3  and  O_6
REMARK    4  A    between atoms: C_4  and  O_8
REMARK    5  A    between atoms: C_11  and  C_12
REMARK    6  A    between atoms: C_12  and  O_13
REMARK    7  A    between atoms: C_12  and  C_15
REMARK    8  A    between atoms: C_15  and  C_16
REMARK    9  A    between atoms: C_16  and  C_17
REMARK   10  A    between atoms: C_17  and  C_18
REMARK   11  A    between atoms: C_20  and  C_21
REMARK   12  A    between atoms: C_22  and  C_23
REMARK   13  A    between atoms: C_23  and  C_24
REMARK   14  A    between atoms: C_24  and  C_25
REMARK   15  A    between atoms: C_25  and  C_28
REMARK                            x       y       z     vdW  Elec       q    Type
REMARK                         _______ _______ _______ _____ _____    ______ ____
ROOT
ATOM      1  C   UNL     1     -36.215  25.127   3.532  0.00  0.00    +0.038 C 
ATOM      2  C   UNL     1     -36.319  23.767   4.247  0.00  0.00    +0.051 C 
ATOM      3  C   UNL     1     -35.574  26.014   4.604  0.00  0.00    +0.114 C 
ATOM      4  C   UNL     1     -35.013  23.681   5.060  0.00  0.00    +0.117 C 
ATOM      5  C   UNL     1     -34.490  25.119   5.205  0.00  0.00    +0.059 C 
ENDROOT
BRANCH   3   6
ATOM      6  O   UNL     1     -36.498  26.411   5.610  0.00  0.00    -0.384 OA
ATOM      7  H   UNL     1     -37.010  27.173   5.295  0.00  0.00    +0.210 HD
ENDBRANCH   3   6
BRANCH   4   8
ATOM      8  O   UNL     1     -35.273  23.135   6.349  0.00  0.00    -0.384 OA
ATOM      9  H   UNL     1     -34.533  23.341   6.941  0.00  0.00    +0.210 HD
ENDBRANCH   4   8
BRANCH   2  10
ATOM     10  C   UNL     1     -36.484  22.611   3.317  0.00  0.00    -0.026 C 
ATOM     11  C   UNL     1     -35.622  21.586   3.241  0.00  0.00    -0.002 C 
BRANCH  11  12
ATOM     12  C   UNL     1     -35.791  20.425   2.302  0.00  0.00    +0.132 C 
BRANCH  12  13
ATOM     13  O   UNL     1     -37.044  19.798   2.581  0.00  0.00    -0.380 OA
ATOM     14  H   UNL     1     -37.107  18.967   2.085  0.00  0.00    +0.211 HD
ENDBRANCH  12  13
BRANCH  12  15
ATOM     15  C   UNL     1     -35.805  20.848   0.826  0.00  0.00    +0.034 C 
BRANCH  15  16
ATOM     16  C   UNL     1     -34.498  21.504   0.373  0.00  0.00    +0.003 C 
BRANCH  16  17
ATOM     17  C   UNL     1     -34.670  22.962  -0.065  0.00  0.00    +0.000 C 
BRANCH  17  18
ATOM     18  C   UNL     1     -34.028  23.966   0.894  0.00  0.00    +0.000 C 
ATOM     19  C   UNL     1     -34.008  25.365   0.298  0.00  0.00    +0.000 C 
ENDBRANCH  17  18
ENDBRANCH  16  17
ENDBRANCH  15  16
ENDBRANCH  12  15
ENDBRANCH  11  12
ENDBRANCH   2  10
BRANCH   1  20
ATOM     20  C   UNL     1     -37.555  25.651   3.029  0.00  0.00    +0.028 C 
BRANCH  20  21
ATOM     21  C   UNL     1     -37.453  26.138   1.616  0.00  0.00    -0.031 C 
ATOM     22  C   UNL     1     -37.745  25.384   0.546  0.00  0.00    -0.031 C 
BRANCH  22  23
ATOM     23  C   UNL     1     -38.210  23.959   0.630  0.00  0.00    +0.026 C 
BRANCH  23  24
ATOM     24  C   UNL     1     -39.740  23.877   0.633  0.00  0.00    +0.016 C 
BRANCH  24  25
ATOM     25  C   UNL     1     -40.247  22.508   0.190  0.00  0.00    +0.114 C 
BRANCH  25  28
ATOM     26  O   UNL     1     -39.227  20.363   0.325  0.00  0.00    -0.246 OA
ATOM     27  O   UNL     1     -39.914  21.402   2.239  0.00  0.00    -0.246 OA
ATOM     28  C   UNL     1     -39.750  21.300   0.989  0.00  0.00    +0.365 C 
ENDBRANCH  25  28
ENDBRANCH  24  25
ENDBRANCH  23  24
ENDBRANCH  22  23
ENDBRANCH  20  21
ENDBRANCH   1  20
TORSDOF 15
ENDMDL
MODEL 6
REMARK VINA RESULT:      -5.1      2.815      5.653
REMARK  Name = 20849107
REMARK  15 active torsions:
REMARK  status: ('A' for Active; 'I' for Inactive)
REMARK    1  A    between atoms: C_1  and  C_20
REMARK    2  A    between atoms: C_2  and  C_10
REMARK    3  A    between atoms: C_3  and  O_6
REMARK    4  A    between atoms: C_4  and  O_8
REMARK    5  A    between atoms: C_11  and  C_12
REMARK    6  A    between atoms: C_12  and  O_13
REMARK    7  A    between atoms: C_12  and  C_15
REMARK    8  A    between atoms: C_15  and  C_16
REMARK    9  A    between atoms: C_16  and  C_17
REMARK   10  A    between atoms: C_17  and  C_18
REMARK   11  A    between atoms: C_20  and  C_21
REMARK   12  A    between atoms: C_22  and  C_23
REMARK   13  A    between atoms: C_23  and  C_24
REMARK   14  A    between atoms: C_24  and  C_25
REMARK   15  A    between atoms: C_25  and  C_28
REMARK                            x       y       z     vdW  Elec       q    Type
REMARK                         _______ _______ _______ _____ _____    ______ ____
ROOT
ATOM      1  C   UNL     1     -34.271  25.367   3.545  0.00  0.00    +0.038 C 
ATOM      2  C   UNL     1     -35.545  24.556   3.244  0.00  0.00    +0.051 C 
ATOM      3  C   UNL     1     -34.769  26.394   4.567  0.00  0.00    +0.114 C 
ATOM      4  C   UNL     1     -36.240  24.445   4.614  0.00  0.00    +0.117 C 
ATOM      5  C   UNL     1     -35.667  25.571   5.490  0.00  0.00    +0.059 C 
ENDROOT
BRANCH   3   6
ATOM      6  O   UNL     1     -35.513  27.447   3.966  0.00  0.00    -0.384 OA
ATOM      7  H   UNL     1     -36.450  27.352   4.197  0.00  0.00    +0.210 HD
ENDBRANCH   3   6
BRANCH   4   8
ATOM      8  O   UNL     1     -37.645  24.622   4.468  0.00  0.00    -0.384 OA
ATOM      9  H   UNL     1     -37.978  25.169   5.195  0.00  0.00    +0.210 HD
ENDBRANCH   4   8
BRANCH   2  10
ATOM     10  C   UNL     1     -35.276  23.220   2.636  0.00  0.00    -0.026 C 
ATOM     11  C   UNL     1     -35.674  22.060   3.178  0.00  0.00    -0.002 C 
BRANCH  11  12
ATOM     12  C   UNL     1     -35.399  20.716   2.564  0.00  0.00    +0.132 C 
BRANCH  12  13
ATOM     13  O   UNL     1     -36.586  19.926   2.661  0.00  0.00    -0.380 OA
ATOM     14  H   UNL     1     -37.348  20.506   2.812  0.00  0.00    +0.211 HD
ENDBRANCH  12  13
BRANCH  12  15
ATOM     15  C   UNL     1     -35.024  20.804   1.078  0.00  0.00    +0.034 C 
BRANCH  15  16
ATOM     16  C   UNL     1     -33.671  20.163   0.758  0.00  0.00    +0.003 C 
BRANCH  16  17
ATOM     17  C   UNL     1     -33.416  18.866   1.534  0.00  0.00    +0.000 C 
BRANCH  17  18
ATOM     18  C   UNL     1     -32.058  18.231   1.231  0.00  0.00    +0.000 C 
ATOM     19  C   UNL     1     -31.730  18.305  -0.252  0.00  0.00    +0.000 C 
ENDBRANCH  17  18
ENDBRANCH  16  17
ENDBRANCH  15  16
ENDBRANCH  12  15
ENDBRANCH  11  12
ENDBRANCH   2  10
BRANCH   1  20
ATOM     20  C   UNL     1     -33.645  25.995   2.306  0.00  0.00    +0.028 C 
BRANCH  20  21
ATOM     21  C   UNL     1     -32.159  26.122   2.451  0.00  0.00    -0.031 C 
ATOM     22  C   UNL     1     -31.538  27.262   2.785  0.00  0.00    -0.031 C 
BRANCH  22  23
ATOM     23  C   UNL     1     -32.254  28.554   3.055  0.00  0.00    +0.026 C 
BRANCH  23  24
ATOM     24  C   UNL     1     -31.396  29.493   3.909  0.00  0.00    +0.016 C 
BRANCH  24  25
ATOM     25  C   UNL     1     -31.861  29.539   5.362  0.00  0.00    +0.114 C 
BRANCH  25  28
ATOM     26  O   UNL     1     -30.435  27.825   6.192  0.00  0.00    -0.246 OA
ATOM     27  O   UNL     1     -32.629  27.866   6.826  0.00  0.00    -0.246 OA
ATOM     28  C   UNL     1     -31.611  28.283   6.204  0.00  0.00    +0.365 C 
ENDBRANCH  25  28
ENDBRANCH  24  25
ENDBRANCH  23  24
ENDBRANCH  22  23
ENDBRANCH  20  21
ENDBRANCH   1  20
TORSDOF 15
ENDMDL
MODEL 7
REMARK VINA RESULT:      -5.1      2.349      4.975
REMARK  Name = 20849107
REMARK  15 active torsions:
REMARK  status: ('A' for Active; 'I' for Inactive)
REMARK    1  A    between atoms: C_1  and  C_20
REMARK    2  A    between atoms: C_2  and  C_10
REMARK    3  A    between atoms: C_3  and  O_6
REMARK    4  A    between atoms: C_4  and  O_8
REMARK    5  A    between atoms: C_11  and  C_12
REMARK    6  A    between atoms: C_12  and  O_13
REMARK    7  A    between atoms: C_12  and  C_15
REMARK    8  A    between atoms: C_15  and  C_16
REMARK    9  A    between atoms: C_16  and  C_17
REMARK   10  A    between atoms: C_17  and  C_18
REMARK   11  A    between atoms: C_20  and  C_21
REMARK   12  A    between atoms: C_22  and  C_23
REMARK   13  A    between atoms: C_23  and  C_24
REMARK   14  A    between atoms: C_24  and  C_25
REMARK   15  A    between atoms: C_25  and  C_28
REMARK                            x       y       z     vdW  Elec       q    Type
REMARK                         _______ _______ _______ _____ _____    ______ ____
ROOT
ATOM      1  C   UNL     1     -36.972  21.742   1.084  0.00  0.00    +0.038 C 
ATOM      2  C   UNL     1     -37.999  21.910   2.218  0.00  0.00    +0.051 C 
ATOM      3  C   UNL     1     -37.619  20.662   0.211  0.00  0.00    +0.114 C 
ATOM      4  C   UNL     1     -39.357  21.792   1.500  0.00  0.00    +0.117 C 
ATOM      5  C   UNL     1     -39.091  21.073   0.168  0.00  0.00    +0.059 C 
ENDROOT
BRANCH   3   6
ATOM      6  O   UNL     1     -37.487  19.359   0.766  0.00  0.00    -0.384 OA
ATOM      7  H   UNL     1     -37.072  19.421   1.641  0.00  0.00    +0.210 HD
ENDBRANCH   3   6
BRANCH   4   8
ATOM      8  O   UNL     1     -40.262  21.023   2.285  0.00  0.00    -0.384 OA
ATOM      9  H   UNL     1     -39.778  20.593   3.007  0.00  0.00    +0.210 HD
ENDBRANCH   4   8
BRANCH   2  10
ATOM     10  C   UNL     1     -37.864  23.195   2.964  0.00  0.00    -0.026 C 
ATOM     11  C   UNL     1     -37.510  24.356   2.394  0.00  0.00    -0.002 C 
BRANCH  11  12
ATOM     12  C   UNL     1     -37.373  25.648   3.150  0.00  0.00    +0.132 C 
BRANCH  12  13
ATOM     13  O   UNL     1     -38.671  26.055   3.585  0.00  0.00    -0.380 OA
ATOM     14  H   UNL     1     -38.586  26.786   4.216  0.00  0.00    +0.211 HD
ENDBRANCH  12  13
BRANCH  12  15
ATOM     15  C   UNL     1     -36.488  25.518   4.397  0.00  0.00    +0.034 C 
BRANCH  15  16
ATOM     16  C   UNL     1     -35.015  25.258   4.068  0.00  0.00    +0.003 C 
BRANCH  16  17
ATOM     17  C   UNL     1     -34.449  24.015   4.763  0.00  0.00    +0.000 C 
BRANCH  17  18
ATOM     18  C   UNL     1     -35.441  23.343   5.714  0.00  0.00    +0.000 C 
ATOM     19  C   UNL     1     -35.210  21.842   5.787  0.00  0.00    +0.000 C 
ENDBRANCH  17  18
ENDBRANCH  16  17
ENDBRANCH  15  16
ENDBRANCH  12  15
ENDBRANCH  11  12
ENDBRANCH   2  10
BRANCH   1  20
ATOM     20  C   UNL     1     -35.578  21.371   1.578  0.00  0.00    +0.028 C 
BRANCH  20  21
ATOM     21  C   UNL     1     -34.598  22.474   1.318  0.00  0.00    -0.031 C 
ATOM     22  C   UNL     1     -33.681  22.439   0.340  0.00  0.00    -0.031 C 
BRANCH  22  23
ATOM     23  C   UNL     1     -33.524  21.293  -0.617  0.00  0.00    +0.026 C 
BRANCH  23  24
ATOM     24  C   UNL     1     -32.067  20.823  -0.681  0.00  0.00    +0.016 C 
BRANCH  24  25
ATOM     25  C   UNL     1     -31.752  19.772   0.379  0.00  0.00    +0.114 C 
BRANCH  25  28
ATOM     26  O   UNL     1     -33.004  17.881  -0.338  0.00  0.00    -0.246 OA
ATOM     27  O   UNL     1     -33.359  18.736   1.749  0.00  0.00    -0.246 OA
ATOM     28  C   UNL     1     -32.812  18.690   0.610  0.00  0.00    +0.365 C 
ENDBRANCH  25  28
ENDBRANCH  24  25
ENDBRANCH  23  24
ENDBRANCH  22  23
ENDBRANCH  20  21
ENDBRANCH   1  20
TORSDOF 15
ENDMDL
MODEL 8
REMARK VINA RESULT:      -5.1      2.451      6.304
REMARK  Name = 20849107
REMARK  15 active torsions:
REMARK  status: ('A' for Active; 'I' for Inactive)
REMARK    1  A    between atoms: C_1  and  C_20
REMARK    2  A    between atoms: C_2  and  C_10
REMARK    3  A    between atoms: C_3  and  O_6
REMARK    4  A    between atoms: C_4  and  O_8
REMARK    5  A    between atoms: C_11  and  C_12
REMARK    6  A    between atoms: C_12  and  O_13
REMARK    7  A    between atoms: C_12  and  C_15
REMARK    8  A    between atoms: C_15  and  C_16
REMARK    9  A    between atoms: C_16  and  C_17
REMARK   10  A    between atoms: C_17  and  C_18
REMARK   11  A    between atoms: C_20  and  C_21
REMARK   12  A    between atoms: C_22  and  C_23
REMARK   13  A    between atoms: C_23  and  C_24
REMARK   14  A    between atoms: C_24  and  C_25
REMARK   15  A    between atoms: C_25  and  C_28
REMARK                            x       y       z     vdW  Elec       q    Type
REMARK                         _______ _______ _______ _____ _____    ______ ____
ROOT
ATOM      1  C   UNL     1     -35.937  25.381   3.349  0.00  0.00    +0.038 C 
ATOM      2  C   UNL     1     -35.829  23.972   3.960  0.00  0.00    +0.051 C 
ATOM      3  C   UNL     1     -35.539  26.281   4.522  0.00  0.00    +0.114 C 
ATOM      4  C   UNL     1     -34.581  24.061   4.861  0.00  0.00    +0.117 C 
ATOM      5  C   UNL     1     -34.345  25.553   5.140  0.00  0.00    +0.059 C 
ENDROOT
BRANCH   3   6
ATOM      6  O   UNL     1     -36.580  26.422   5.481  0.00  0.00    -0.384 OA
ATOM      7  H   UNL     1     -36.586  25.648   6.067  0.00  0.00    +0.210 HD
ENDBRANCH   3   6
BRANCH   4   8
ATOM      8  O   UNL     1     -34.812  23.375   6.087  0.00  0.00    -0.384 OA
ATOM      9  H   UNL     1     -35.752  23.432   6.316  0.00  0.00    +0.210 HD
ENDBRANCH   4   8
BRANCH   2  10
ATOM     10  C   UNL     1     -35.718  22.884   2.945  0.00  0.00    -0.026 C 
ATOM     11  C   UNL     1     -35.923  21.587   3.216  0.00  0.00    -0.002 C 
BRANCH  11  12
ATOM     12  C   UNL     1     -35.809  20.494   2.191  0.00  0.00    +0.132 C 
BRANCH  12  13
ATOM     13  O   UNL     1     -36.844  19.539   2.433  0.00  0.00    -0.380 OA
ATOM     14  H   UNL     1     -36.885  18.913   1.694  0.00  0.00    +0.211 HD
ENDBRANCH  12  13
BRANCH  12  15
ATOM     15  C   UNL     1     -35.979  21.004   0.753  0.00  0.00    +0.034 C 
BRANCH  15  16
ATOM     16  C   UNL     1     -37.430  20.967   0.267  0.00  0.00    +0.003 C 
BRANCH  16  17
ATOM     17  C   UNL     1     -38.028  22.359   0.034  0.00  0.00    +0.000 C 
BRANCH  17  18
ATOM     18  C   UNL     1     -39.391  22.556   0.698  0.00  0.00    +0.000 C 
ATOM     19  C   UNL     1     -39.578  21.608   1.872  0.00  0.00    +0.000 C 
ENDBRANCH  17  18
ENDBRANCH  16  17
ENDBRANCH  15  16
ENDBRANCH  12  15
ENDBRANCH  11  12
ENDBRANCH   2  10
BRANCH   1  20
ATOM     20  C   UNL     1     -37.318  25.692   2.784  0.00  0.00    +0.028 C 
BRANCH  20  21
ATOM     21  C   UNL     1     -38.376  24.860   3.443  0.00  0.00    -0.031 C 
ATOM     22  C   UNL     1     -39.691  25.066   3.285  0.00  0.00    -0.031 C 
BRANCH  22  23
ATOM     23  C   UNL     1     -40.269  26.155   2.427  0.00  0.00    +0.026 C 
BRANCH  23  24
ATOM     24  C   UNL     1     -41.800  26.120   2.447  0.00  0.00    +0.016 C 
BRANCH  24  25
ATOM     25  C   UNL     1     -42.378  26.814   3.677  0.00  0.00    +0.114 C 
BRANCH  25  28
ATOM     26  O   UNL     1     -42.490  28.958   2.653  0.00  0.00    -0.246 OA
ATOM     27  O   UNL     1     -41.936  28.797   4.862  0.00  0.00    -0.246 OA
ATOM     28  C   UNL     1     -42.252  28.340   3.727  0.00  0.00    +0.365 C 
ENDBRANCH  25  28
ENDBRANCH  24  25
ENDBRANCH  23  24
ENDBRANCH  22  23
ENDBRANCH  20  21
ENDBRANCH   1  20
TORSDOF 15
ENDMDL
MODEL 9
REMARK VINA RESULT:      -5.0      2.657      6.500
REMARK  Name = 20849107
REMARK  15 active torsions:
REMARK  status: ('A' for Active; 'I' for Inactive)
REMARK    1  A    between atoms: C_1  and  C_20
REMARK    2  A    between atoms: C_2  and  C_10
REMARK    3  A    between atoms: C_3  and  O_6
REMARK    4  A    between atoms: C_4  and  O_8
REMARK    5  A    between atoms: C_11  and  C_12
REMARK    6  A    between atoms: C_12  and  O_13
REMARK    7  A    between atoms: C_12  and  C_15
REMARK    8  A    between atoms: C_15  and  C_16
REMARK    9  A    between atoms: C_16  and  C_17
REMARK   10  A    between atoms: C_17  and  C_18
REMARK   11  A    between atoms: C_20  and  C_21
REMARK   12  A    between atoms: C_22  and  C_23
REMARK   13  A    between atoms: C_23  and  C_24
REMARK   14  A    between atoms: C_24  and  C_25
REMARK   15  A    between atoms: C_25  and  C_28
REMARK                            x       y       z     vdW  Elec       q    Type
REMARK                         _______ _______ _______ _____ _____    ______ ____
ROOT
ATOM      1  C   UNL     1     -36.025  24.121   3.110  0.00  0.00    +0.038 C 
ATOM      2  C   UNL     1     -36.168  22.723   3.740  0.00  0.00    +0.051 C 
ATOM      3  C   UNL     1     -36.214  25.046   4.316  0.00  0.00    +0.114 C 
ATOM      4  C   UNL     1     -35.457  22.862   5.100  0.00  0.00    +0.117 C 
ATOM      5  C   UNL     1     -35.406  24.364   5.419  0.00  0.00    +0.059 C 
ENDROOT
BRANCH   3   6
ATOM      6  O   UNL     1     -37.577  25.165   4.705  0.00  0.00    -0.384 OA
ATOM      7  H   UNL     1     -37.767  26.089   4.936  0.00  0.00    +0.210 HD
ENDBRANCH   3   6
BRANCH   4   8
ATOM      8  O   UNL     1     -36.194  22.184   6.111  0.00  0.00    -0.384 OA
ATOM      9  H   UNL     1     -36.431  22.810   6.812  0.00  0.00    +0.210 HD
ENDBRANCH   4   8
BRANCH   2  10
ATOM     10  C   UNL     1     -35.590  21.627   2.908  0.00  0.00    -0.026 C 
ATOM     11  C   UNL     1     -36.325  20.680   2.308  0.00  0.00    -0.002 C 
BRANCH  11  12
ATOM     12  C   UNL     1     -35.738  19.576   1.472  0.00  0.00    +0.132 C 
BRANCH  12  13
ATOM     13  O   UNL     1     -36.810  18.859   0.858  0.00  0.00    -0.380 OA
ATOM     14  H   UNL     1     -37.646  19.095   1.289  0.00  0.00    +0.211 HD
ENDBRANCH  12  13
BRANCH  12  15
ATOM     15  C   UNL     1     -34.829  20.097   0.350  0.00  0.00    +0.034 C 
BRANCH  15  16
ATOM     16  C   UNL     1     -33.339  19.882   0.632  0.00  0.00    +0.003 C 
BRANCH  16  17
ATOM     17  C   UNL     1     -33.039  18.545   1.318  0.00  0.00    +0.000 C 
BRANCH  17  18
ATOM     18  C   UNL     1     -31.594  18.077   1.136  0.00  0.00    +0.000 C 
ATOM     19  C   UNL     1     -30.831  18.991   0.189  0.00  0.00    +0.000 C 
ENDBRANCH  17  18
ENDBRANCH  16  17
ENDBRANCH  15  16
ENDBRANCH  12  15
ENDBRANCH  11  12
ENDBRANCH   2  10
BRANCH   1  20
ATOM     20  C   UNL     1     -37.015  24.380   1.981  0.00  0.00    +0.028 C 
BRANCH  20  21
ATOM     21  C   UNL     1     -36.318  24.491   0.659  0.00  0.00    -0.031 C 
ATOM     22  C   UNL     1     -36.561  23.682  -0.381  0.00  0.00    -0.031 C 
BRANCH  22  23
ATOM     23  C   UNL     1     -37.563  22.564  -0.353  0.00  0.00    +0.026 C 
BRANCH  23  24
ATOM     24  C   UNL     1     -38.901  23.006  -0.954  0.00  0.00    +0.016 C 
BRANCH  24  25
ATOM     25  C   UNL     1     -39.984  23.174   0.108  0.00  0.00    +0.114 C 
BRANCH  25  28
ATOM     26  O   UNL     1     -40.570  20.919   0.587  0.00  0.00    -0.246 OA
ATOM     27  O   UNL     1     -39.895  22.288   2.285  0.00  0.00    -0.246 OA
ATOM     28  C   UNL     1     -40.176  22.009   1.084  0.00  0.00    +0.365 C 
ENDBRANCH  25  28
ENDBRANCH  24  25
ENDBRANCH  23  24
ENDBRANCH  22  23
ENDBRANCH  20  21
ENDBRANCH   1  20
TORSDOF 15
ENDMDL
