MODEL 1
REMARK VINA RESULT:      -6.0      0.000      0.000
REMARK  Name = 21249618
REMARK  9 active torsions:
REMARK  status: ('A' for Active; 'I' for Inactive)
REMARK    1  A    between atoms: C_4  and  O_17
REMARK    2  A    between atoms: C_11  and  C_28
REMARK    3  A    between atoms: O_17  and  C_19
REMARK    4  A    between atoms: C_19  and  C_20
REMARK    5  A    between atoms: C_20  and  C_22
REMARK    6  A    between atoms: C_22  and  O_23
REMARK    7  A    between atoms: C_22  and  C_25
REMARK    8  A    between atoms: C_25  and  O_26
REMARK    9  A    between atoms: C_28  and  O_29
REMARK                            x       y       z     vdW  Elec       q    Type
REMARK                         _______ _______ _______ _____ _____    ______ ____
ROOT
ATOM      1  O   UNL     1     -35.612  24.241   5.777  0.00  0.00    -0.444 OA
ATOM      2  O   UNL     1     -35.821  22.136   6.660  0.00  0.00    -0.245 OA
ATOM      3  C   UNL     1     -35.267  23.715   3.456  0.00  0.00    +0.113 C 
ATOM      4  C   UNL     1     -36.310  23.787   2.316  0.00  0.00    +0.181 C 
ATOM      5  C   UNL     1     -35.381  24.847   4.485  0.00  0.00    +0.198 C 
ATOM      6  C   UNL     1     -36.202  25.025   1.401  0.00  0.00    +0.066 C 
ATOM      7  C   UNL     1     -35.412  22.501   4.315  0.00  0.00    +0.060 C 
ATOM      8  C   UNL     1     -34.112  25.657   4.579  0.00  0.00    +0.011 C 
ATOM      9  C   UNL     1     -34.823  25.316   0.856  0.00  0.00    -0.045 C 
ATOM     10  C   UNL     1     -35.641  22.884   5.716  0.00  0.00    +0.338 C 
ATOM     11  C   UNL     1     -33.875  26.870   4.044  0.00  0.00    -0.016 C 
ATOM     12  C   UNL     1     -34.883  27.657   3.242  0.00  0.00    +0.029 C 
ATOM     13  C   UNL     1     -34.603  27.730   1.734  0.00  0.00    +0.030 C 
ATOM     14  C   UNL     1     -34.158  26.474   1.032  0.00  0.00    -0.034 C 
ATOM     15  C   UNL     1     -35.340  21.219   3.947  0.00  0.00    +0.002 C 
ATOM     16  C   UNL     1     -34.211  24.218   0.021  0.00  0.00    +0.026 C 
ENDROOT
BRANCH   4  17
ATOM     17  O   UNL     1     -37.628  23.773   2.877  0.00  0.00    -0.449 OA
BRANCH  17  19
ATOM     18  O   UNL     1     -38.378  21.729   2.140  0.00  0.00    -0.245 OA
ATOM     19  C   UNL     1     -38.517  22.938   2.275  0.00  0.00    +0.339 C 
BRANCH  19  20
ATOM     20  C   UNL     1     -39.705  23.685   1.759  0.00  0.00    +0.082 C 
ATOM     21  C   UNL     1     -40.275  23.342   0.592  0.00  0.00    +0.005 C 
BRANCH  20  22
ATOM     22  C   UNL     1     -40.233  24.844   2.571  0.00  0.00    +0.168 C 
BRANCH  22  23
ATOM     23  O   UNL     1     -39.963  24.612   3.954  0.00  0.00    -0.377 OA
ATOM     24  H   UNL     1     -39.125  25.038   4.195  0.00  0.00    +0.211 HD
ENDBRANCH  22  23
BRANCH  22  25
ATOM     25  C   UNL     1     -39.626  26.182   2.152  0.00  0.00    +0.171 C 
BRANCH  25  26
ATOM     26  O   UNL     1     -38.698  26.596   3.152  0.00  0.00    -0.379 OA
ATOM     27  H   UNL     1     -38.114  27.279   2.788  0.00  0.00    +0.211 HD
ENDBRANCH  25  26
ENDBRANCH  22  25
ENDBRANCH  20  22
ENDBRANCH  19  20
ENDBRANCH  17  19
ENDBRANCH   4  17
BRANCH  11  28
ATOM     28  C   UNL     1     -32.537  27.535   4.229  0.00  0.00    +0.159 C 
BRANCH  28  29
ATOM     29  O   UNL     1     -32.673  28.632   5.111  0.00  0.00    -0.378 OA
ATOM     30  H   UNL     1     -31.901  29.213   5.027  0.00  0.00    +0.211 HD
ENDBRANCH  28  29
ENDBRANCH  11  28
TORSDOF 9
ENDMDL
MODEL 2
REMARK VINA RESULT:      -5.7      2.062      4.249
REMARK  Name = 21249618
REMARK  9 active torsions:
REMARK  status: ('A' for Active; 'I' for Inactive)
REMARK    1  A    between atoms: C_4  and  O_17
REMARK    2  A    between atoms: C_11  and  C_28
REMARK    3  A    between atoms: O_17  and  C_19
REMARK    4  A    between atoms: C_19  and  C_20
REMARK    5  A    between atoms: C_20  and  C_22
REMARK    6  A    between atoms: C_22  and  O_23
REMARK    7  A    between atoms: C_22  and  C_25
REMARK    8  A    between atoms: C_25  and  O_26
REMARK    9  A    between atoms: C_28  and  O_29
REMARK                            x       y       z     vdW  Elec       q    Type
REMARK                         _______ _______ _______ _____ _____    ______ ____
ROOT
ATOM      1  O   UNL     1     -38.507  22.899   2.952  0.00  0.00    -0.444 OA
ATOM      2  O   UNL     1     -39.679  22.281   1.082  0.00  0.00    -0.245 OA
ATOM      3  C   UNL     1     -36.757  24.217   1.962  0.00  0.00    +0.113 C 
ATOM      4  C   UNL     1     -36.669  25.760   1.901  0.00  0.00    +0.181 C 
ATOM      5  C   UNL     1     -37.329  23.672   3.277  0.00  0.00    +0.198 C 
ATOM      6  C   UNL     1     -35.713  26.407   2.926  0.00  0.00    +0.066 C 
ATOM      7  C   UNL     1     -37.693  23.636   0.953  0.00  0.00    +0.060 C 
ATOM      8  C   UNL     1     -36.360  22.755   3.980  0.00  0.00    +0.011 C 
ATOM      9  C   UNL     1     -34.325  25.815   2.990  0.00  0.00    -0.045 C 
ATOM     10  C   UNL     1     -38.751  22.860   1.616  0.00  0.00    +0.338 C 
ATOM     11  C   UNL     1     -35.585  23.045   5.043  0.00  0.00    -0.016 C 
ATOM     12  C   UNL     1     -35.569  24.383   5.743  0.00  0.00    +0.029 C 
ATOM     13  C   UNL     1     -34.311  25.230   5.500  0.00  0.00    +0.030 C 
ATOM     14  C   UNL     1     -33.761  25.302   4.100  0.00  0.00    -0.034 C 
ATOM     15  C   UNL     1     -37.639  23.743  -0.378  0.00  0.00    +0.002 C 
ATOM     16  C   UNL     1     -33.537  25.871   1.705  0.00  0.00    +0.026 C 
ENDROOT
BRANCH   4  17
ATOM     17  O   UNL     1     -37.972  26.318   2.105  0.00  0.00    -0.449 OA
BRANCH  17  19
ATOM     18  O   UNL     1     -37.861  27.988   0.529  0.00  0.00    -0.245 OA
ATOM     19  C   UNL     1     -38.458  27.074   1.084  0.00  0.00    +0.339 C 
BRANCH  19  20
ATOM     20  C   UNL     1     -39.851  26.670   0.721  0.00  0.00    +0.082 C 
ATOM     21  C   UNL     1     -40.352  26.955  -0.491  0.00  0.00    +0.005 C 
BRANCH  20  22
ATOM     22  C   UNL     1     -40.684  25.953   1.758  0.00  0.00    +0.168 C 
BRANCH  22  23
ATOM     23  O   UNL     1     -40.873  26.810   2.885  0.00  0.00    -0.377 OA
ATOM     24  H   UNL     1     -40.100  27.387   2.986  0.00  0.00    +0.211 HD
ENDBRANCH  22  23
BRANCH  22  25
ATOM     25  C   UNL     1     -42.046  25.516   1.219  0.00  0.00    +0.171 C 
BRANCH  25  26
ATOM     26  O   UNL     1     -42.001  24.117   0.947  0.00  0.00    -0.379 OA
ATOM     27  H   UNL     1     -42.361  23.629   1.703  0.00  0.00    +0.211 HD
ENDBRANCH  25  26
ENDBRANCH  22  25
ENDBRANCH  20  22
ENDBRANCH  19  20
ENDBRANCH  17  19
ENDBRANCH   4  17
BRANCH  11  28
ATOM     28  C   UNL     1     -34.659  22.006   5.617  0.00  0.00    +0.159 C 
BRANCH  28  29
ATOM     29  O   UNL     1     -35.325  20.760   5.672  0.00  0.00    -0.378 OA
ATOM     30  H   UNL     1     -36.193  20.874   6.088  0.00  0.00    +0.211 HD
ENDBRANCH  28  29
ENDBRANCH  11  28
TORSDOF 9
ENDMDL
MODEL 3
REMARK VINA RESULT:      -5.5      2.120      4.447
REMARK  Name = 21249618
REMARK  9 active torsions:
REMARK  status: ('A' for Active; 'I' for Inactive)
REMARK    1  A    between atoms: C_4  and  O_17
REMARK    2  A    between atoms: C_11  and  C_28
REMARK    3  A    between atoms: O_17  and  C_19
REMARK    4  A    between atoms: C_19  and  C_20
REMARK    5  A    between atoms: C_20  and  C_22
REMARK    6  A    between atoms: C_22  and  O_23
REMARK    7  A    between atoms: C_22  and  C_25
REMARK    8  A    between atoms: C_25  and  O_26
REMARK    9  A    between atoms: C_28  and  O_29
REMARK                            x       y       z     vdW  Elec       q    Type
REMARK                         _______ _______ _______ _____ _____    ______ ____
ROOT
ATOM      1  O   UNL     1     -37.156  26.392   0.846  0.00  0.00    -0.444 OA
ATOM      2  O   UNL     1     -39.237  25.431   0.845  0.00  0.00    -0.245 OA
ATOM      3  C   UNL     1     -36.395  25.796   3.048  0.00  0.00    +0.113 C 
ATOM      4  C   UNL     1     -35.418  24.657   3.423  0.00  0.00    +0.181 C 
ATOM      5  C   UNL     1     -36.036  26.530   1.750  0.00  0.00    +0.198 C 
ATOM      6  C   UNL     1     -33.973  25.104   3.730  0.00  0.00    +0.066 C 
ATOM      7  C   UNL     1     -37.780  25.316   2.758  0.00  0.00    +0.060 C 
ATOM      8  C   UNL     1     -35.811  28.005   1.976  0.00  0.00    +0.011 C 
ATOM      9  C   UNL     1     -33.836  26.244   4.712  0.00  0.00    -0.045 C 
ATOM     10  C   UNL     1     -38.183  25.691   1.395  0.00  0.00    +0.338 C 
ATOM     11  C   UNL     1     -34.630  28.648   2.054  0.00  0.00    -0.016 C 
ATOM     12  C   UNL     1     -33.285  27.978   1.907  0.00  0.00    +0.029 C 
ATOM     13  C   UNL     1     -32.481  27.839   3.208  0.00  0.00    +0.030 C 
ATOM     14  C   UNL     1     -33.210  27.408   4.453  0.00  0.00    -0.034 C 
ATOM     15  C   UNL     1     -38.608  24.652   3.570  0.00  0.00    +0.002 C 
ATOM     16  C   UNL     1     -34.415  25.993   6.082  0.00  0.00    +0.026 C 
ENDROOT
BRANCH   4  17
ATOM     17  O   UNL     1     -35.363  23.707   2.353  0.00  0.00    -0.449 OA
BRANCH  17  19
ATOM     18  O   UNL     1     -35.607  21.989   3.860  0.00  0.00    -0.245 OA
ATOM     19  C   UNL     1     -35.511  22.404   2.713  0.00  0.00    +0.339 C 
BRANCH  19  20
ATOM     20  C   UNL     1     -35.517  21.505   1.518  0.00  0.00    +0.082 C 
ATOM     21  C   UNL     1     -34.541  21.582   0.599  0.00  0.00    +0.005 C 
BRANCH  20  22
ATOM     22  C   UNL     1     -36.657  20.525   1.362  0.00  0.00    +0.168 C 
BRANCH  22  23
ATOM     23  O   UNL     1     -36.738  19.708   2.530  0.00  0.00    -0.377 OA
ATOM     24  H   UNL     1     -37.373  18.991   2.380  0.00  0.00    +0.211 HD
ENDBRANCH  22  23
BRANCH  22  25
ATOM     25  C   UNL     1     -38.000  21.216   1.132  0.00  0.00    +0.171 C 
BRANCH  25  26
ATOM     26  O   UNL     1     -38.811  21.036   2.290  0.00  0.00    -0.379 OA
ATOM     27  H   UNL     1     -39.706  20.778   2.021  0.00  0.00    +0.211 HD
ENDBRANCH  25  26
ENDBRANCH  22  25
ENDBRANCH  20  22
ENDBRANCH  19  20
ENDBRANCH  17  19
ENDBRANCH   4  17
BRANCH  11  28
ATOM     28  C   UNL     1     -34.587  30.134   2.296  0.00  0.00    +0.159 C 
BRANCH  28  29
ATOM     29  O   UNL     1     -35.307  30.440   3.474  0.00  0.00    -0.378 OA
ATOM     30  H   UNL     1     -36.074  30.991   3.250  0.00  0.00    +0.211 HD
ENDBRANCH  28  29
ENDBRANCH  11  28
TORSDOF 9
ENDMDL
MODEL 4
REMARK VINA RESULT:      -5.5      2.650      6.075
REMARK  Name = 21249618
REMARK  9 active torsions:
REMARK  status: ('A' for Active; 'I' for Inactive)
REMARK    1  A    between atoms: C_4  and  O_17
REMARK    2  A    between atoms: C_11  and  C_28
REMARK    3  A    between atoms: O_17  and  C_19
REMARK    4  A    between atoms: C_19  and  C_20
REMARK    5  A    between atoms: C_20  and  C_22
REMARK    6  A    between atoms: C_22  and  O_23
REMARK    7  A    between atoms: C_22  and  C_25
REMARK    8  A    between atoms: C_25  and  O_26
REMARK    9  A    between atoms: C_28  and  O_29
REMARK                            x       y       z     vdW  Elec       q    Type
REMARK                         _______ _______ _______ _____ _____    ______ ____
ROOT
ATOM      1  O   UNL     1     -38.326  20.385   1.387  0.00  0.00    -0.444 OA
ATOM      2  O   UNL     1     -40.449  21.238   1.526  0.00  0.00    -0.245 OA
ATOM      3  C   UNL     1     -37.077  22.383   0.909  0.00  0.00    +0.113 C 
ATOM      4  C   UNL     1     -36.234  23.218   1.901  0.00  0.00    +0.181 C 
ATOM      5  C   UNL     1     -36.988  20.868   1.129  0.00  0.00    +0.198 C 
ATOM      6  C   UNL     1     -34.708  23.000   1.815  0.00  0.00    +0.066 C 
ATOM      7  C   UNL     1     -38.546  22.627   1.029  0.00  0.00    +0.060 C 
ATOM      8  C   UNL     1     -36.469  20.147  -0.090  0.00  0.00    +0.011 C 
ATOM      9  C   UNL     1     -34.112  23.090   0.430  0.00  0.00    -0.045 C 
ATOM     10  C   UNL     1     -39.254  21.377   1.342  0.00  0.00    +0.338 C 
ATOM     11  C   UNL     1     -35.226  19.666  -0.287  0.00  0.00    -0.016 C 
ATOM     12  C   UNL     1     -34.108  19.759   0.723  0.00  0.00    +0.029 C 
ATOM     13  C   UNL     1     -33.000  20.765   0.377  0.00  0.00    +0.030 C 
ATOM     14  C   UNL     1     -33.404  22.111  -0.165  0.00  0.00    -0.034 C 
ATOM     15  C   UNL     1     -39.205  23.779   0.873  0.00  0.00    +0.002 C 
ATOM     16  C   UNL     1     -34.309  24.408  -0.277  0.00  0.00    +0.026 C 
ENDROOT
BRANCH   4  17
ATOM     17  O   UNL     1     -36.643  22.920   3.240  0.00  0.00    -0.449 OA
BRANCH  17  19
ATOM     18  O   UNL     1     -38.010  24.609   3.990  0.00  0.00    -0.245 OA
ATOM     19  C   UNL     1     -36.952  23.994   4.016  0.00  0.00    +0.339 C 
BRANCH  19  20
ATOM     20  C   UNL     1     -35.813  24.367   4.911  0.00  0.00    +0.082 C 
ATOM     21  C   UNL     1     -35.217  23.443   5.681  0.00  0.00    +0.005 C 
BRANCH  20  22
ATOM     22  C   UNL     1     -35.366  25.810   4.940  0.00  0.00    +0.168 C 
BRANCH  22  23
ATOM     23  O   UNL     1     -36.465  26.636   5.325  0.00  0.00    -0.377 OA
ATOM     24  H   UNL     1     -36.738  27.182   4.572  0.00  0.00    +0.211 HD
ENDBRANCH  22  23
BRANCH  22  25
ATOM     25  C   UNL     1     -34.196  26.044   5.896  0.00  0.00    +0.171 C 
BRANCH  25  26
ATOM     26  O   UNL     1     -33.096  26.562   5.152  0.00  0.00    -0.379 OA
ATOM     27  H   UNL     1     -32.724  27.328   5.616  0.00  0.00    +0.211 HD
ENDBRANCH  25  26
ENDBRANCH  22  25
ENDBRANCH  20  22
ENDBRANCH  19  20
ENDBRANCH  17  19
ENDBRANCH   4  17
BRANCH  11  28
ATOM     28  C   UNL     1     -34.873  18.977  -1.579  0.00  0.00    +0.159 C 
BRANCH  28  29
ATOM     29  O   UNL     1     -35.822  19.317  -2.570  0.00  0.00    -0.378 OA
ATOM     30  H   UNL     1     -35.701  20.243  -2.830  0.00  0.00    +0.211 HD
ENDBRANCH  28  29
ENDBRANCH  11  28
TORSDOF 9
ENDMDL
MODEL 5
REMARK VINA RESULT:      -5.5      1.822      2.893
REMARK  Name = 21249618
REMARK  9 active torsions:
REMARK  status: ('A' for Active; 'I' for Inactive)
REMARK    1  A    between atoms: C_4  and  O_17
REMARK    2  A    between atoms: C_11  and  C_28
REMARK    3  A    between atoms: O_17  and  C_19
REMARK    4  A    between atoms: C_19  and  C_20
REMARK    5  A    between atoms: C_20  and  C_22
REMARK    6  A    between atoms: C_22  and  O_23
REMARK    7  A    between atoms: C_22  and  C_25
REMARK    8  A    between atoms: C_25  and  O_26
REMARK    9  A    between atoms: C_28  and  O_29
REMARK                            x       y       z     vdW  Elec       q    Type
REMARK                         _______ _______ _______ _____ _____    ______ ____
ROOT
ATOM      1  O   UNL     1     -35.313  25.913   3.720  0.00  0.00    -0.444 OA
ATOM      2  O   UNL     1     -35.614  26.051   5.988  0.00  0.00    -0.245 OA
ATOM      3  C   UNL     1     -35.329  23.529   3.415  0.00  0.00    +0.113 C 
ATOM      4  C   UNL     1     -36.499  22.659   2.899  0.00  0.00    +0.181 C 
ATOM      5  C   UNL     1     -35.194  24.884   2.712  0.00  0.00    +0.198 C 
ATOM      6  C   UNL     1     -36.389  22.213   1.425  0.00  0.00    +0.066 C 
ATOM      7  C   UNL     1     -35.480  23.936   4.845  0.00  0.00    +0.060 C 
ATOM      8  C   UNL     1     -33.849  25.048   2.048  0.00  0.00    +0.011 C 
ATOM      9  C   UNL     1     -35.071  21.590   1.028  0.00  0.00    -0.045 C 
ATOM     10  C   UNL     1     -35.485  25.401   4.967  0.00  0.00    +0.338 C 
ATOM     11  C   UNL     1     -33.565  24.926   0.737  0.00  0.00    -0.016 C 
ATOM     12  C   UNL     1     -34.586  24.607  -0.329  0.00  0.00    +0.029 C 
ATOM     13  C   UNL     1     -34.499  23.189  -0.911  0.00  0.00    +0.030 C 
ATOM     14  C   UNL     1     -34.277  22.041   0.039  0.00  0.00    -0.034 C 
ATOM     15  C   UNL     1     -35.585  23.148   5.919  0.00  0.00    +0.002 C 
ATOM     16  C   UNL     1     -34.685  20.348   1.792  0.00  0.00    +0.026 C 
ENDROOT
BRANCH   4  17
ATOM     17  O   UNL     1     -37.727  23.381   3.045  0.00  0.00    -0.449 OA
BRANCH  17  19
ATOM     18  O   UNL     1     -39.068  21.611   2.449  0.00  0.00    -0.245 OA
ATOM     19  C   UNL     1     -38.820  22.810   2.470  0.00  0.00    +0.339 C 
BRANCH  19  20
ATOM     20  C   UNL     1     -39.697  23.836   1.827  0.00  0.00    +0.082 C 
ATOM     21  C   UNL     1     -40.110  23.684   0.558  0.00  0.00    +0.005 C 
BRANCH  20  22
ATOM     22  C   UNL     1     -40.091  25.052   2.632  0.00  0.00    +0.168 C 
BRANCH  22  23
ATOM     23  O   UNL     1     -39.976  24.753   4.024  0.00  0.00    -0.377 OA
ATOM     24  H   UNL     1     -39.169  25.159   4.377  0.00  0.00    +0.211 HD
ENDBRANCH  22  23
BRANCH  22  25
ATOM     25  C   UNL     1     -39.237  26.277   2.305  0.00  0.00    +0.171 C 
BRANCH  25  26
ATOM     26  O   UNL     1     -38.251  26.432   3.322  0.00  0.00    -0.379 OA
ATOM     27  H   UNL     1     -38.407  25.783   4.025  0.00  0.00    +0.211 HD
ENDBRANCH  25  26
ENDBRANCH  22  25
ENDBRANCH  20  22
ENDBRANCH  19  20
ENDBRANCH  17  19
ENDBRANCH   4  17
BRANCH  11  28
ATOM     28  C   UNL     1     -32.155  25.113   0.243  0.00  0.00    +0.159 C 
BRANCH  28  29
ATOM     29  O   UNL     1     -31.354  25.630   1.288  0.00  0.00    -0.378 OA
ATOM     30  H   UNL     1     -30.850  24.910   1.696  0.00  0.00    +0.211 HD
ENDBRANCH  28  29
ENDBRANCH  11  28
TORSDOF 9
ENDMDL
MODEL 6
REMARK VINA RESULT:      -5.5      2.392      5.308
REMARK  Name = 21249618
REMARK  9 active torsions:
REMARK  status: ('A' for Active; 'I' for Inactive)
REMARK    1  A    between atoms: C_4  and  O_17
REMARK    2  A    between atoms: C_11  and  C_28
REMARK    3  A    between atoms: O_17  and  C_19
REMARK    4  A    between atoms: C_19  and  C_20
REMARK    5  A    between atoms: C_20  and  C_22
REMARK    6  A    between atoms: C_22  and  O_23
REMARK    7  A    between atoms: C_22  and  C_25
REMARK    8  A    between atoms: C_25  and  O_26
REMARK    9  A    between atoms: C_28  and  O_29
REMARK                            x       y       z     vdW  Elec       q    Type
REMARK                         _______ _______ _______ _____ _____    ______ ____
ROOT
ATOM      1  O   UNL     1     -36.769  23.851   4.642  0.00  0.00    -0.444 OA
ATOM      2  O   UNL     1     -34.777  24.328   5.669  0.00  0.00    -0.245 OA
ATOM      3  C   UNL     1     -36.236  24.402   2.363  0.00  0.00    +0.113 C 
ATOM      4  C   UNL     1     -35.884  23.420   1.221  0.00  0.00    +0.181 C 
ATOM      5  C   UNL     1     -37.331  23.898   3.311  0.00  0.00    +0.198 C 
ATOM      6  C   UNL     1     -37.026  23.134   0.222  0.00  0.00    +0.066 C 
ATOM      7  C   UNL     1     -35.102  24.647   3.304  0.00  0.00    +0.060 C 
ATOM      8  C   UNL     1     -38.520  24.826   3.349  0.00  0.00    +0.011 C 
ATOM      9  C   UNL     1     -37.720  24.351  -0.342  0.00  0.00    -0.045 C 
ATOM     10  C   UNL     1     -35.478  24.273   4.676  0.00  0.00    +0.338 C 
ATOM     11  C   UNL     1     -39.705  24.662   2.730  0.00  0.00    -0.016 C 
ATOM     12  C   UNL     1     -40.060  23.468   1.876  0.00  0.00    +0.029 C 
ATOM     13  C   UNL     1     -40.122  23.743   0.366  0.00  0.00    +0.030 C 
ATOM     14  C   UNL     1     -39.041  24.593  -0.247  0.00  0.00    -0.034 C 
ATOM     15  C   UNL     1     -33.894  25.146   3.026  0.00  0.00    +0.002 C 
ATOM     16  C   UNL     1     -36.834  25.310  -1.099  0.00  0.00    +0.026 C 
ENDROOT
BRANCH   4  17
ATOM     17  O   UNL     1     -35.472  22.168   1.782  0.00  0.00    -0.449 OA
BRANCH  17  19
ATOM     18  O   UNL     1     -33.776  21.935   0.248  0.00  0.00    -0.245 OA
ATOM     19  C   UNL     1     -34.572  21.460   1.048  0.00  0.00    +0.339 C 
BRANCH  19  20
ATOM     20  C   UNL     1     -34.684  19.993   1.314  0.00  0.00    +0.082 C 
ATOM     21  C   UNL     1     -33.585  19.246   1.504  0.00  0.00    +0.005 C 
BRANCH  20  22
ATOM     22  C   UNL     1     -36.061  19.372   1.344  0.00  0.00    +0.168 C 
BRANCH  22  23
ATOM     23  O   UNL     1     -36.778  19.870   2.474  0.00  0.00    -0.377 OA
ATOM     24  H   UNL     1     -37.396  20.560   2.186  0.00  0.00    +0.211 HD
ENDBRANCH  22  23
BRANCH  22  25
ATOM     25  C   UNL     1     -36.861  19.650   0.072  0.00  0.00    +0.171 C 
BRANCH  25  26
ATOM     26  O   UNL     1     -37.940  18.722  -0.002  0.00  0.00    -0.379 OA
ATOM     27  H   UNL     1     -37.940  18.162   0.789  0.00  0.00    +0.211 HD
ENDBRANCH  25  26
ENDBRANCH  22  25
ENDBRANCH  20  22
ENDBRANCH  19  20
ENDBRANCH  17  19
ENDBRANCH   4  17
BRANCH  11  28
ATOM     28  C   UNL     1     -40.786  25.701   2.868  0.00  0.00    +0.159 C 
BRANCH  28  29
ATOM     29  O   UNL     1     -40.346  26.727   3.735  0.00  0.00    -0.378 OA
ATOM     30  H   UNL     1     -39.850  26.338   4.472  0.00  0.00    +0.211 HD
ENDBRANCH  28  29
ENDBRANCH  11  28
TORSDOF 9
ENDMDL
MODEL 7
REMARK VINA RESULT:      -5.5      2.226      4.671
REMARK  Name = 21249618
REMARK  9 active torsions:
REMARK  status: ('A' for Active; 'I' for Inactive)
REMARK    1  A    between atoms: C_4  and  O_17
REMARK    2  A    between atoms: C_11  and  C_28
REMARK    3  A    between atoms: O_17  and  C_19
REMARK    4  A    between atoms: C_19  and  C_20
REMARK    5  A    between atoms: C_20  and  C_22
REMARK    6  A    between atoms: C_22  and  O_23
REMARK    7  A    between atoms: C_22  and  C_25
REMARK    8  A    between atoms: C_25  and  O_26
REMARK    9  A    between atoms: C_28  and  O_29
REMARK                            x       y       z     vdW  Elec       q    Type
REMARK                         _______ _______ _______ _____ _____    ______ ____
ROOT
ATOM      1  O   UNL     1     -38.071  26.760   0.995  0.00  0.00    -0.444 OA
ATOM      2  O   UNL     1     -40.358  26.617   1.047  0.00  0.00    -0.245 OA
ATOM      3  C   UNL     1     -37.495  25.307   2.821  0.00  0.00    +0.113 C 
ATOM      4  C   UNL     1     -36.994  23.845   2.731  0.00  0.00    +0.181 C 
ATOM      5  C   UNL     1     -36.943  26.228   1.726  0.00  0.00    +0.198 C 
ATOM      6  C   UNL     1     -35.475  23.656   2.928  0.00  0.00    +0.066 C 
ATOM      7  C   UNL     1     -38.970  25.440   2.623  0.00  0.00    +0.060 C 
ATOM      8  C   UNL     1     -36.178  27.395   2.300  0.00  0.00    +0.011 C 
ATOM      9  C   UNL     1     -34.885  24.328   4.145  0.00  0.00    -0.045 C 
ATOM     10  C   UNL     1     -39.260  26.322   1.483  0.00  0.00    +0.338 C 
ATOM     11  C   UNL     1     -34.841  27.540   2.369  0.00  0.00    -0.016 C 
ATOM     12  C   UNL     1     -33.847  26.528   1.851  0.00  0.00    +0.029 C 
ATOM     13  C   UNL     1     -33.099  25.737   2.934  0.00  0.00    +0.030 C 
ATOM     14  C   UNL     1     -33.884  25.227   4.114  0.00  0.00    -0.034 C 
ATOM     15  C   UNL     1     -39.950  24.888   3.343  0.00  0.00    +0.002 C 
ATOM     16  C   UNL     1     -35.459  23.890   5.470  0.00  0.00    +0.026 C 
ENDROOT
BRANCH   4  17
ATOM     17  O   UNL     1     -37.340  23.303   1.451  0.00  0.00    -0.449 OA
BRANCH  17  19
ATOM     18  O   UNL     1     -38.620  21.480   2.017  0.00  0.00    -0.245 OA
ATOM     19  C   UNL     1     -37.666  21.983   1.438  0.00  0.00    +0.339 C 
BRANCH  19  20
ATOM     20  C   UNL     1     -36.687  21.187   0.636  0.00  0.00    +0.082 C 
ATOM     21  C   UNL     1     -36.100  21.716  -0.450  0.00  0.00    +0.005 C 
BRANCH  20  22
ATOM     22  C   UNL     1     -36.390  19.769   1.067  0.00  0.00    +0.168 C 
BRANCH  22  23
ATOM     23  O   UNL     1     -36.787  19.597   2.427  0.00  0.00    -0.377 OA
ATOM     24  H   UNL     1     -37.510  18.953   2.474  0.00  0.00    +0.211 HD
ENDBRANCH  22  23
BRANCH  22  25
ATOM     25  C   UNL     1     -37.095  18.729   0.197  0.00  0.00    +0.171 C 
BRANCH  25  26
ATOM     26  O   UNL     1     -38.451  19.128   0.017  0.00  0.00    -0.379 OA
ATOM     27  H   UNL     1     -38.702  19.014  -0.913  0.00  0.00    +0.211 HD
ENDBRANCH  25  26
ENDBRANCH  22  25
ENDBRANCH  20  22
ENDBRANCH  19  20
ENDBRANCH  17  19
ENDBRANCH   4  17
BRANCH  11  28
ATOM     28  C   UNL     1     -34.241  28.775   2.988  0.00  0.00    +0.159 C 
BRANCH  28  29
ATOM     29  O   UNL     1     -35.271  29.681   3.328  0.00  0.00    -0.378 OA
ATOM     30  H   UNL     1     -35.912  29.730   2.602  0.00  0.00    +0.211 HD
ENDBRANCH  28  29
ENDBRANCH  11  28
TORSDOF 9
ENDMDL
MODEL 8
REMARK VINA RESULT:      -5.4      3.214      8.099
REMARK  Name = 21249618
REMARK  9 active torsions:
REMARK  status: ('A' for Active; 'I' for Inactive)
REMARK    1  A    between atoms: C_4  and  O_17
REMARK    2  A    between atoms: C_11  and  C_28
REMARK    3  A    between atoms: O_17  and  C_19
REMARK    4  A    between atoms: C_19  and  C_20
REMARK    5  A    between atoms: C_20  and  C_22
REMARK    6  A    between atoms: C_22  and  O_23
REMARK    7  A    between atoms: C_22  and  C_25
REMARK    8  A    between atoms: C_25  and  O_26
REMARK    9  A    between atoms: C_28  and  O_29
REMARK                            x       y       z     vdW  Elec       q    Type
REMARK                         _______ _______ _______ _____ _____    ______ ____
ROOT
ATOM      1  O   UNL     1     -32.293  27.611   6.728  0.00  0.00    -0.444 OA
ATOM      2  O   UNL     1     -31.477  29.612   7.491  0.00  0.00    -0.245 OA
ATOM      3  C   UNL     1     -32.598  28.116   4.398  0.00  0.00    +0.113 C 
ATOM      4  C   UNL     1     -31.672  27.716   3.225  0.00  0.00    +0.181 C 
ATOM      5  C   UNL     1     -32.744  27.039   5.480  0.00  0.00    +0.198 C 
ATOM      6  C   UNL     1     -32.158  26.518   2.381  0.00  0.00    +0.066 C 
ATOM      7  C   UNL     1     -32.086  29.278   5.186  0.00  0.00    +0.060 C 
ATOM      8  C   UNL     1     -34.179  26.612   5.664  0.00  0.00    +0.011 C 
ATOM      9  C   UNL     1     -33.589  26.594   1.904  0.00  0.00    -0.045 C 
ATOM     10  C   UNL     1     -31.900  28.904   6.595  0.00  0.00    +0.338 C 
ATOM     11  C   UNL     1     -34.763  25.489   5.202  0.00  0.00    -0.016 C 
ATOM     12  C   UNL     1     -34.047  24.424   4.406  0.00  0.00    +0.029 C 
ATOM     13  C   UNL     1     -34.412  24.370   2.915  0.00  0.00    +0.030 C 
ATOM     14  C   UNL     1     -34.534  25.670   2.164  0.00  0.00    -0.034 C 
ATOM     15  C   UNL     1     -31.826  30.515   4.754  0.00  0.00    +0.002 C 
ATOM     16  C   UNL     1     -33.921  27.782   1.036  0.00  0.00    +0.026 C 
ENDROOT
BRANCH   4  17
ATOM     17  O   UNL     1     -30.373  27.391   3.735  0.00  0.00    -0.449 OA
BRANCH  17  19
ATOM     18  O   UNL     1     -29.069  28.201   2.024  0.00  0.00    -0.245 OA
ATOM     19  C   UNL     1     -29.339  28.105   3.214  0.00  0.00    +0.339 C 
BRANCH  19  20
ATOM     20  C   UNL     1     -28.530  28.757   4.289  0.00  0.00    +0.082 C 
ATOM     21  C   UNL     1     -28.207  30.058   4.210  0.00  0.00    +0.005 C 
BRANCH  20  22
ATOM     22  C   UNL     1     -28.069  27.912   5.454  0.00  0.00    +0.168 C 
BRANCH  22  23
ATOM     23  O   UNL     1     -29.207  27.483   6.204  0.00  0.00    -0.377 OA
ATOM     24  H   UNL     1     -29.039  26.601   6.571  0.00  0.00    +0.211 HD
ENDBRANCH  22  23
BRANCH  22  25
ATOM     25  C   UNL     1     -27.262  26.691   5.013  0.00  0.00    +0.171 C 
BRANCH  25  26
ATOM     26  O   UNL     1     -26.999  25.880   6.156  0.00  0.00    -0.379 OA
ATOM     27  H   UNL     1     -27.569  26.159   6.889  0.00  0.00    +0.211 HD
ENDBRANCH  25  26
ENDBRANCH  22  25
ENDBRANCH  20  22
ENDBRANCH  19  20
ENDBRANCH  17  19
ENDBRANCH   4  17
BRANCH  11  28
ATOM     28  C   UNL     1     -36.220  25.223   5.471  0.00  0.00    +0.159 C 
BRANCH  28  29
ATOM     29  O   UNL     1     -37.007  26.202   4.821  0.00  0.00    -0.378 OA
ATOM     30  H   UNL     1     -37.928  25.903   4.781  0.00  0.00    +0.211 HD
ENDBRANCH  28  29
ENDBRANCH  11  28
TORSDOF 9
ENDMDL
MODEL 9
REMARK VINA RESULT:      -5.4      2.852      5.806
REMARK  Name = 21249618
REMARK  9 active torsions:
REMARK  status: ('A' for Active; 'I' for Inactive)
REMARK    1  A    between atoms: C_4  and  O_17
REMARK    2  A    between atoms: C_11  and  C_28
REMARK    3  A    between atoms: O_17  and  C_19
REMARK    4  A    between atoms: C_19  and  C_20
REMARK    5  A    between atoms: C_20  and  C_22
REMARK    6  A    between atoms: C_22  and  O_23
REMARK    7  A    between atoms: C_22  and  C_25
REMARK    8  A    between atoms: C_25  and  O_26
REMARK    9  A    between atoms: C_28  and  O_29
REMARK                            x       y       z     vdW  Elec       q    Type
REMARK                         _______ _______ _______ _____ _____    ______ ____
ROOT
ATOM      1  O   UNL     1     -32.924  30.842   4.824  0.00  0.00    -0.444 OA
ATOM      2  O   UNL     1     -30.991  30.155   5.846  0.00  0.00    -0.245 OA
ATOM      3  C   UNL     1     -33.090  29.221   3.057  0.00  0.00    +0.113 C 
ATOM      4  C   UNL     1     -34.000  27.970   3.018  0.00  0.00    +0.181 C 
ATOM      5  C   UNL     1     -33.742  30.452   3.698  0.00  0.00    +0.198 C 
ATOM      6  C   UNL     1     -35.273  28.108   2.156  0.00  0.00    +0.066 C 
ATOM      7  C   UNL     1     -31.872  29.040   3.902  0.00  0.00    +0.060 C 
ATOM      8  C   UNL     1     -33.800  31.622   2.748  0.00  0.00    +0.011 C 
ATOM      9  C   UNL     1     -35.061  28.634   0.756  0.00  0.00    -0.045 C 
ATOM     10  C   UNL     1     -31.835  30.044   4.976  0.00  0.00    +0.338 C 
ATOM     11  C   UNL     1     -34.870  32.061   2.057  0.00  0.00    -0.016 C 
ATOM     12  C   UNL     1     -36.244  31.441   2.133  0.00  0.00    +0.029 C 
ATOM     13  C   UNL     1     -36.669  30.644   0.891  0.00  0.00    +0.030 C 
ATOM     14  C   UNL     1     -35.657  29.731   0.251  0.00  0.00    -0.034 C 
ATOM     15  C   UNL     1     -30.899  28.135   3.762  0.00  0.00    +0.002 C 
ATOM     16  C   UNL     1     -34.146  27.809  -0.115  0.00  0.00    +0.026 C 
ENDROOT
BRANCH   4  17
ATOM     17  O   UNL     1     -34.408  27.637   4.349  0.00  0.00    -0.449 OA
BRANCH  17  19
ATOM     18  O   UNL     1     -33.071  26.165   5.502  0.00  0.00    -0.245 OA
ATOM     19  C   UNL     1     -34.038  26.405   4.790  0.00  0.00    +0.339 C 
BRANCH  19  20
ATOM     20  C   UNL     1     -34.952  25.342   4.272  0.00  0.00    +0.082 C 
ATOM     21  C   UNL     1     -34.507  24.419   3.404  0.00  0.00    +0.005 C 
BRANCH  20  22
ATOM     22  C   UNL     1     -36.391  25.345   4.734  0.00  0.00    +0.168 C 
BRANCH  22  23
ATOM     23  O   UNL     1     -36.660  26.562   5.430  0.00  0.00    -0.377 OA
ATOM     24  H   UNL     1     -37.133  26.366   6.253  0.00  0.00    +0.211 HD
ENDBRANCH  22  23
BRANCH  22  25
ATOM     25  C   UNL     1     -37.381  25.191   3.579  0.00  0.00    +0.171 C 
BRANCH  25  26
ATOM     26  O   UNL     1     -38.694  25.059   4.117  0.00  0.00    -0.379 OA
ATOM     27  H   UNL     1     -38.816  25.700   4.834  0.00  0.00    +0.211 HD
ENDBRANCH  25  26
ENDBRANCH  22  25
ENDBRANCH  20  22
ENDBRANCH  19  20
ENDBRANCH  17  19
ENDBRANCH   4  17
BRANCH  11  28
ATOM     28  C   UNL     1     -34.747  33.247   1.137  0.00  0.00    +0.159 C 
BRANCH  28  29
ATOM     29  O   UNL     1     -33.698  34.083   1.583  0.00  0.00    -0.378 OA
ATOM     30  H   UNL     1     -34.058  34.775   2.161  0.00  0.00    +0.211 HD
ENDBRANCH  28  29
ENDBRANCH  11  28
TORSDOF 9
ENDMDL
