MODEL 1
REMARK VINA RESULT:      -5.9      0.000      0.000
REMARK  Name = 5289280
REMARK  14 active torsions:
REMARK  status: ('A' for Active; 'I' for Inactive)
REMARK    1  A    between atoms: C_1  and  C_4
REMARK    2  A    between atoms: C_1  and  C_18
REMARK    3  A    between atoms: N_3  and  CA_6
REMARK    4  A    between atoms: CA_6  and  C_10
REMARK    5  A    between atoms: N_9  and  C_12
REMARK    6  A    between atoms: C_12  and  C_15
REMARK    7  A    between atoms: C_15  and  O_16
REMARK    8  A    between atoms: C_18  and  C_19
REMARK    9  A    between atoms: C_19  and  C_20
REMARK   10  A    between atoms: C_20  and  C_21
REMARK   11  A    between atoms: C_21  and  N_23
REMARK   12  A    between atoms: C_21  and  C_33
REMARK   13  A    between atoms: C_24  and  CA_26
REMARK   14  A    between atoms: CA_26  and  N_27
REMARK                            x       y       z     vdW  Elec       q    Type
REMARK                         _______ _______ _______ _____ _____    ______ ____
ROOT
ATOM      1  C   UNK A   2     -34.686  25.748   5.796  0.00  0.00    +0.085 C 
ENDROOT
BRANCH   1   4
ATOM      2  O   UNK A   2     -34.789  27.347   3.979  0.00  0.00    -0.275 OA
ATOM      3  N   GLY A   1     -32.961  27.380   5.412  0.00  0.00    -0.298 N 
ATOM      4  C   UNK A   2     -34.175  26.899   4.944  0.00  0.00    +0.223 C 
ATOM      5  H   GLY A   1     -32.555  26.946   6.196  0.00  0.00    +0.150 HD
BRANCH   3   6
ATOM      6  CA  GLY A   1     -32.265  28.490   4.802  0.00  0.00    +0.149 C 
ATOM      7  CB  GLY A   1     -31.460  28.039   3.592  0.00  0.00    +0.031 C 
BRANCH   6  10
ATOM      8  O   GLY A   1     -31.784  29.821   6.769  0.00  0.00    -0.273 OA
ATOM      9  N   UNK A   2     -30.021  28.831   5.629  0.00  0.00    -0.295 N 
ATOM     10  C   GLY A   1     -31.361  29.116   5.855  0.00  0.00    +0.241 C 
ATOM     11  H   UNK A   2     -29.783  28.253   4.868  0.00  0.00    +0.150 HD
BRANCH   9  12
ATOM     12  C   UNK A   2     -28.963  29.346   6.466  0.00  0.00    +0.171 C 
ATOM     13  C   UNK A   2     -27.874  29.976   5.611  0.00  0.00    +0.033 C 
BRANCH  12  15
ATOM     14  O   UNK A   2     -27.555  28.507   8.242  0.00  0.00    -0.248 OA
ATOM     15  C   UNK A   2     -28.375  28.269   7.363  0.00  0.00    +0.332 C 
BRANCH  15  16
ATOM     16  O   UNK A   2     -28.819  27.015   7.107  0.00  0.00    -0.479 OA
ATOM     17  H   UNK A   2     -29.139  26.796   6.254  0.00  0.00    +0.295 HD
ENDBRANCH  15  16
ENDBRANCH  12  15
ENDBRANCH   9  12
ENDBRANCH   6  10
ENDBRANCH   3   6
ENDBRANCH   1   4
BRANCH   1  18
ATOM     18  C   UNK A   2     -34.546  24.380   5.131  0.00  0.00    +0.010 C 
BRANCH  18  19
ATOM     19  C   UNK A   2     -35.171  23.258   5.967  0.00  0.00    +0.003 C 
BRANCH  19  20
ATOM     20  C   UNK A   2     -35.583  22.074   5.081  0.00  0.00    +0.031 C 
BRANCH  20  21
ATOM     21  C   UNK A   2     -35.867  22.464   3.623  0.00  0.00    +0.176 C 
BRANCH  21  23
ATOM     22  O   GLY A   1     -36.901  24.883   2.477  0.00  0.00    -0.277 OA
ATOM     23  N   UNK A   2     -37.262  22.806   3.449  0.00  0.00    -0.298 N 
ATOM     24  C   GLY A   1     -37.658  24.006   2.883  0.00  0.00    +0.201 C 
ATOM     25  H   UNK A   2     -37.950  22.167   3.744  0.00  0.00    +0.150 HD
BRANCH  24  26
ATOM     26  CA  GLY A   1     -39.161  24.115   2.816  0.00  0.00    +0.001 C 
BRANCH  26  27
ATOM     27  N   GLY A   1     -39.696  24.932   3.931  0.00  0.00    +0.386 N 
ATOM     28  H1  GLY A   1     -40.125  25.779   3.557  0.00  0.00    -0.089 HD
ATOM     29  H2  GLY A   1     -38.935  25.186   4.562  0.00  0.00    -0.089 HD
ATOM     30  H3  GLY A   1     -40.395  24.394   4.442  0.00  0.00    -0.089 HD
ENDBRANCH  26  27
ENDBRANCH  24  26
ENDBRANCH  21  23
BRANCH  21  33
ATOM     31  O   UNK A   2     -35.042  21.951   1.452  0.00  0.00    -0.244 OA
ATOM     32  O   UNK A   2     -35.356  20.247   2.934  0.00  0.00    -0.244 OA
ATOM     33  C   UNK A   2     -35.363  21.458   2.570  0.00  0.00    +0.382 C 
ENDBRANCH  21  33
ENDBRANCH  20  21
ENDBRANCH  19  20
ENDBRANCH  18  19
ENDBRANCH   1  18
TORSDOF 14
ENDMDL
MODEL 2
REMARK VINA RESULT:      -5.9      1.695      2.320
REMARK  Name = 5289280
REMARK  14 active torsions:
REMARK  status: ('A' for Active; 'I' for Inactive)
REMARK    1  A    between atoms: C_1  and  C_4
REMARK    2  A    between atoms: C_1  and  C_18
REMARK    3  A    between atoms: N_3  and  CA_6
REMARK    4  A    between atoms: CA_6  and  C_10
REMARK    5  A    between atoms: N_9  and  C_12
REMARK    6  A    between atoms: C_12  and  C_15
REMARK    7  A    between atoms: C_15  and  O_16
REMARK    8  A    between atoms: C_18  and  C_19
REMARK    9  A    between atoms: C_19  and  C_20
REMARK   10  A    between atoms: C_20  and  C_21
REMARK   11  A    between atoms: C_21  and  N_23
REMARK   12  A    between atoms: C_21  and  C_33
REMARK   13  A    between atoms: C_24  and  CA_26
REMARK   14  A    between atoms: CA_26  and  N_27
REMARK                            x       y       z     vdW  Elec       q    Type
REMARK                         _______ _______ _______ _____ _____    ______ ____
ROOT
ATOM      1  C   UNK A   2     -33.393  26.939   3.967  0.00  0.00    +0.085 C 
ENDROOT
BRANCH   1   4
ATOM      2  O   UNK A   2     -31.119  27.634   4.426  0.00  0.00    -0.275 OA
ATOM      3  N   GLY A   1     -32.848  29.155   4.728  0.00  0.00    -0.298 N 
ATOM      4  C   UNK A   2     -32.313  27.917   4.400  0.00  0.00    +0.223 C 
ATOM      5  H   GLY A   1     -33.824  29.274   4.671  0.00  0.00    +0.150 HD
BRANCH   3   6
ATOM      6  CA  GLY A   1     -32.040  30.277   5.146  0.00  0.00    +0.149 C 
ATOM      7  CB  GLY A   1     -31.124  30.747   4.026  0.00  0.00    +0.031 C 
BRANCH   6  10
ATOM      8  O   GLY A   1     -31.743  29.614   7.459  0.00  0.00    -0.273 OA
ATOM      9  N   UNK A   2     -29.871  29.798   6.098  0.00  0.00    -0.295 N 
ATOM     10  C   GLY A   1     -31.233  29.848   6.364  0.00  0.00    +0.241 C 
ATOM     11  H   UNK A   2     -29.561  30.002   5.186  0.00  0.00    +0.150 HD
BRANCH   9  12
ATOM     12  C   UNK A   2     -28.892  29.459   7.104  0.00  0.00    +0.171 C 
ATOM     13  C   UNK A   2     -27.713  30.418   7.037  0.00  0.00    +0.033 C 
BRANCH  12  15
ATOM     14  O   UNK A   2     -27.231  27.719   6.872  0.00  0.00    -0.248 OA
ATOM     15  C   UNK A   2     -28.414  28.022   6.966  0.00  0.00    +0.332 C 
BRANCH  15  16
ATOM     16  O   UNK A   2     -29.403  27.097   6.943  0.00  0.00    -0.479 OA
ATOM     17  H   UNK A   2     -29.371  26.392   6.326  0.00  0.00    +0.295 HD
ENDBRANCH  15  16
ENDBRANCH  12  15
ENDBRANCH   9  12
ENDBRANCH   6  10
ENDBRANCH   3   6
ENDBRANCH   1   4
BRANCH   1  18
ATOM     18  C   UNK A   2     -34.307  26.489   5.105  0.00  0.00    +0.010 C 
BRANCH  18  19
ATOM     19  C   UNK A   2     -34.286  24.969   5.303  0.00  0.00    +0.003 C 
BRANCH  19  20
ATOM     20  C   UNK A   2     -35.703  24.384   5.227  0.00  0.00    +0.031 C 
BRANCH  20  21
ATOM     21  C   UNK A   2     -35.762  22.990   4.585  0.00  0.00    +0.176 C 
BRANCH  21  23
ATOM     22  O   GLY A   1     -35.911  22.130   1.852  0.00  0.00    -0.277 OA
ATOM     23  N   UNK A   2     -36.964  22.842   3.794  0.00  0.00    -0.298 N 
ATOM     24  C   GLY A   1     -36.928  22.419   2.476  0.00  0.00    +0.201 C 
ATOM     25  H   UNK A   2     -37.834  23.051   4.206  0.00  0.00    +0.150 HD
BRANCH  24  26
ATOM     26  CA  GLY A   1     -38.313  22.349   1.881  0.00  0.00    +0.001 C 
BRANCH  26  27
ATOM     27  N   GLY A   1     -38.991  21.079   2.234  0.00  0.00    +0.386 N 
ATOM     28  H1  GLY A   1     -39.108  20.511   1.395  0.00  0.00    -0.089 HD
ATOM     29  H2  GLY A   1     -39.906  21.283   2.638  0.00  0.00    -0.089 HD
ATOM     30  H3  GLY A   1     -38.426  20.568   2.913  0.00  0.00    -0.089 HD
ENDBRANCH  26  27
ENDBRANCH  24  26
ENDBRANCH  21  23
BRANCH  21  33
ATOM     31  O   UNK A   2     -35.026  20.777   5.053  0.00  0.00    -0.244 OA
ATOM     32  O   UNK A   2     -35.922  22.014   6.746  0.00  0.00    -0.244 OA
ATOM     33  C   UNK A   2     -35.539  21.815   5.558  0.00  0.00    +0.382 C 
ENDBRANCH  21  33
ENDBRANCH  20  21
ENDBRANCH  19  20
ENDBRANCH  18  19
ENDBRANCH   1  18
TORSDOF 14
ENDMDL
MODEL 3
REMARK VINA RESULT:      -5.9      4.144      8.697
REMARK  Name = 5289280
REMARK  14 active torsions:
REMARK  status: ('A' for Active; 'I' for Inactive)
REMARK    1  A    between atoms: C_1  and  C_4
REMARK    2  A    between atoms: C_1  and  C_18
REMARK    3  A    between atoms: N_3  and  CA_6
REMARK    4  A    between atoms: CA_6  and  C_10
REMARK    5  A    between atoms: N_9  and  C_12
REMARK    6  A    between atoms: C_12  and  C_15
REMARK    7  A    between atoms: C_15  and  O_16
REMARK    8  A    between atoms: C_18  and  C_19
REMARK    9  A    between atoms: C_19  and  C_20
REMARK   10  A    between atoms: C_20  and  C_21
REMARK   11  A    between atoms: C_21  and  N_23
REMARK   12  A    between atoms: C_21  and  C_33
REMARK   13  A    between atoms: C_24  and  CA_26
REMARK   14  A    between atoms: CA_26  and  N_27
REMARK                            x       y       z     vdW  Elec       q    Type
REMARK                         _______ _______ _______ _____ _____    ______ ____
ROOT
ATOM      1  C   UNK A   2     -35.289  23.025   5.751  0.00  0.00    +0.085 C 
ENDROOT
BRANCH   1   4
ATOM      2  O   UNK A   2     -35.044  20.640   5.410  0.00  0.00    -0.275 OA
ATOM      3  N   GLY A   1     -35.933  21.940   3.702  0.00  0.00    -0.298 N 
ATOM      4  C   UNK A   2     -35.388  21.730   4.962  0.00  0.00    +0.223 C 
ATOM      5  H   GLY A   1     -36.174  22.858   3.443  0.00  0.00    +0.150 HD
BRANCH   3   6
ATOM      6  CA  GLY A   1     -36.163  20.873   2.756  0.00  0.00    +0.149 C 
ATOM      7  CB  GLY A   1     -34.870  20.448   2.077  0.00  0.00    +0.031 C 
BRANCH   6  10
ATOM      8  O   GLY A   1     -36.875  22.055   0.764  0.00  0.00    -0.273 OA
ATOM      9  N   UNK A   2     -38.472  20.971   2.053  0.00  0.00    -0.295 N 
ATOM     10  C   GLY A   1     -37.180  21.362   1.733  0.00  0.00    +0.241 C 
ATOM     11  H   UNK A   2     -38.613  20.413   2.852  0.00  0.00    +0.150 HD
BRANCH   9  12
ATOM     12  C   UNK A   2     -39.619  21.347   1.260  0.00  0.00    +0.171 C 
ATOM     13  C   UNK A   2     -39.470  20.830  -0.163  0.00  0.00    +0.033 C 
BRANCH  12  15
ATOM     14  O   UNK A   2     -40.478  23.435   2.123  0.00  0.00    -0.248 OA
ATOM     15  C   UNK A   2     -39.836  22.851   1.257  0.00  0.00    +0.332 C 
BRANCH  15  16
ATOM     16  O   UNK A   2     -39.274  23.502   0.211  0.00  0.00    -0.479 OA
ATOM     17  H   UNK A   2     -39.329  24.436   0.155  0.00  0.00    +0.295 HD
ENDBRANCH  15  16
ENDBRANCH  12  15
ENDBRANCH   9  12
ENDBRANCH   6  10
ENDBRANCH   3   6
ENDBRANCH   1   4
BRANCH   1  18
ATOM     18  C   UNK A   2     -34.346  24.054   5.128  0.00  0.00    +0.010 C 
BRANCH  18  19
ATOM     19  C   UNK A   2     -34.594  25.470   5.661  0.00  0.00    +0.003 C 
BRANCH  19  20
ATOM     20  C   UNK A   2     -36.003  25.957   5.295  0.00  0.00    +0.031 C 
BRANCH  20  21
ATOM     21  C   UNK A   2     -36.277  25.975   3.785  0.00  0.00    +0.176 C 
BRANCH  21  23
ATOM     22  O   GLY A   1     -33.852  27.024   2.664  0.00  0.00    -0.277 OA
ATOM     23  N   UNK A   2     -36.082  27.303   3.246  0.00  0.00    -0.298 N 
ATOM     24  C   GLY A   1     -34.866  27.713   2.726  0.00  0.00    +0.201 C 
ATOM     25  H   UNK A   2     -36.838  27.935   3.249  0.00  0.00    +0.150 HD
BRANCH  24  26
ATOM     26  CA  GLY A   1     -34.930  29.137   2.230  0.00  0.00    +0.001 C 
BRANCH  26  27
ATOM     27  N   GLY A   1     -34.537  30.098   3.287  0.00  0.00    +0.386 N 
ATOM     28  H1  GLY A   1     -34.441  29.605   4.176  0.00  0.00    -0.089 HD
ATOM     29  H2  GLY A   1     -35.253  30.820   3.374  0.00  0.00    -0.089 HD
ATOM     30  H3  GLY A   1     -33.647  30.530   3.041  0.00  0.00    -0.089 HD
ENDBRANCH  26  27
ENDBRANCH  24  26
ENDBRANCH  21  23
BRANCH  21  33
ATOM     31  O   UNK A   2     -38.323  26.043   2.572  0.00  0.00    -0.244 OA
ATOM     32  O   UNK A   2     -37.879  24.221   3.869  0.00  0.00    -0.244 OA
ATOM     33  C   UNK A   2     -37.620  25.348   3.359  0.00  0.00    +0.382 C 
ENDBRANCH  21  33
ENDBRANCH  20  21
ENDBRANCH  19  20
ENDBRANCH  18  19
ENDBRANCH   1  18
TORSDOF 14
ENDMDL
MODEL 4
REMARK VINA RESULT:      -5.9      4.742      7.679
REMARK  Name = 5289280
REMARK  14 active torsions:
REMARK  status: ('A' for Active; 'I' for Inactive)
REMARK    1  A    between atoms: C_1  and  C_4
REMARK    2  A    between atoms: C_1  and  C_18
REMARK    3  A    between atoms: N_3  and  CA_6
REMARK    4  A    between atoms: CA_6  and  C_10
REMARK    5  A    between atoms: N_9  and  C_12
REMARK    6  A    between atoms: C_12  and  C_15
REMARK    7  A    between atoms: C_15  and  O_16
REMARK    8  A    between atoms: C_18  and  C_19
REMARK    9  A    between atoms: C_19  and  C_20
REMARK   10  A    between atoms: C_20  and  C_21
REMARK   11  A    between atoms: C_21  and  N_23
REMARK   12  A    between atoms: C_21  and  C_33
REMARK   13  A    between atoms: C_24  and  CA_26
REMARK   14  A    between atoms: CA_26  and  N_27
REMARK                            x       y       z     vdW  Elec       q    Type
REMARK                         _______ _______ _______ _____ _____    ______ ____
ROOT
ATOM      1  C   UNK A   2     -33.977  25.520   2.297  0.00  0.00    +0.085 C 
ENDROOT
BRANCH   1   4
ATOM      2  O   UNK A   2     -32.004  25.240   0.920  0.00  0.00    -0.275 OA
ATOM      3  N   GLY A   1     -33.783  23.769   0.658  0.00  0.00    -0.298 N 
ATOM      4  C   UNK A   2     -33.132  24.858   1.221  0.00  0.00    +0.223 C 
ATOM      5  H   GLY A   1     -34.689  23.550   0.975  0.00  0.00    +0.150 HD
BRANCH   3   6
ATOM      6  CA  GLY A   1     -33.193  22.944  -0.370  0.00  0.00    +0.149 C 
ATOM      7  CB  GLY A   1     -33.897  23.137  -1.705  0.00  0.00    +0.031 C 
BRANCH   6  10
ATOM      8  O   GLY A   1     -32.291  20.769   0.205  0.00  0.00    -0.273 OA
ATOM      9  N   UNK A   2     -34.588  21.087   0.296  0.00  0.00    -0.295 N 
ATOM     10  C   GLY A   1     -33.278  21.493   0.084  0.00  0.00    +0.241 C 
ATOM     11  H   UNK A   2     -35.311  21.744   0.174  0.00  0.00    +0.150 HD
BRANCH   9  12
ATOM     12  C   UNK A   2     -34.934  19.742   0.690  0.00  0.00    +0.171 C 
ATOM     13  C   UNK A   2     -34.718  18.781  -0.468  0.00  0.00    +0.033 C 
BRANCH  12  15
ATOM     14  O   UNK A   2     -37.319  19.431   0.458  0.00  0.00    -0.248 OA
ATOM     15  C   UNK A   2     -36.365  19.650   1.195  0.00  0.00    +0.332 C 
BRANCH  15  16
ATOM     16  O   UNK A   2     -36.509  19.842   2.528  0.00  0.00    -0.479 OA
ATOM     17  H   UNK A   2     -37.340  20.096   2.877  0.00  0.00    +0.295 HD
ENDBRANCH  15  16
ENDBRANCH  12  15
ENDBRANCH   9  12
ENDBRANCH   6  10
ENDBRANCH   3   6
ENDBRANCH   1   4
BRANCH   1  18
ATOM     18  C   UNK A   2     -33.925  24.806   3.647  0.00  0.00    +0.010 C 
BRANCH  18  19
ATOM     19  C   UNK A   2     -34.821  25.475   4.695  0.00  0.00    +0.003 C 
BRANCH  19  20
ATOM     20  C   UNK A   2     -35.780  24.457   5.329  0.00  0.00    +0.031 C 
BRANCH  20  21
ATOM     21  C   UNK A   2     -35.832  23.114   4.589  0.00  0.00    +0.176 C 
BRANCH  21  23
ATOM     22  O   GLY A   1     -36.409  23.032   1.779  0.00  0.00    -0.277 OA
ATOM     23  N   UNK A   2     -37.130  22.915   3.982  0.00  0.00    -0.298 N 
ATOM     24  C   GLY A   1     -37.303  22.893   2.609  0.00  0.00    +0.201 C 
ATOM     25  H   UNK A   2     -37.915  22.793   4.565  0.00  0.00    +0.150 HD
BRANCH  24  26
ATOM     26  CA  GLY A   1     -38.749  22.670   2.238  0.00  0.00    +0.001 C 
BRANCH  26  27
ATOM     27  N   GLY A   1     -39.102  21.231   2.275  0.00  0.00    +0.386 N 
ATOM     28  H1  GLY A   1     -39.170  20.873   1.322  0.00  0.00    -0.089 HD
ATOM     29  H2  GLY A   1     -39.999  21.113   2.747  0.00  0.00    -0.089 HD
ATOM     30  H3  GLY A   1     -38.382  20.716   2.780  0.00  0.00    -0.089 HD
ENDBRANCH  26  27
ENDBRANCH  24  26
ENDBRANCH  21  23
BRANCH  21  33
ATOM     31  O   UNK A   2     -35.270  22.083   6.659  0.00  0.00    -0.244 OA
ATOM     32  O   UNK A   2     -35.102  20.857   4.744  0.00  0.00    -0.244 OA
ATOM     33  C   UNK A   2     -35.365  21.897   5.412  0.00  0.00    +0.382 C 
ENDBRANCH  21  33
ENDBRANCH  20  21
ENDBRANCH  19  20
ENDBRANCH  18  19
ENDBRANCH   1  18
TORSDOF 14
ENDMDL
MODEL 5
REMARK VINA RESULT:      -5.9      3.771      8.152
REMARK  Name = 5289280
REMARK  14 active torsions:
REMARK  status: ('A' for Active; 'I' for Inactive)
REMARK    1  A    between atoms: C_1  and  C_4
REMARK    2  A    between atoms: C_1  and  C_18
REMARK    3  A    between atoms: N_3  and  CA_6
REMARK    4  A    between atoms: CA_6  and  C_10
REMARK    5  A    between atoms: N_9  and  C_12
REMARK    6  A    between atoms: C_12  and  C_15
REMARK    7  A    between atoms: C_15  and  O_16
REMARK    8  A    between atoms: C_18  and  C_19
REMARK    9  A    between atoms: C_19  and  C_20
REMARK   10  A    between atoms: C_20  and  C_21
REMARK   11  A    between atoms: C_21  and  N_23
REMARK   12  A    between atoms: C_21  and  C_33
REMARK   13  A    between atoms: C_24  and  CA_26
REMARK   14  A    between atoms: CA_26  and  N_27
REMARK                            x       y       z     vdW  Elec       q    Type
REMARK                         _______ _______ _______ _____ _____    ______ ____
ROOT
ATOM      1  C   UNK A   2     -35.055  23.352   5.648  0.00  0.00    +0.085 C 
ENDROOT
BRANCH   1   4
ATOM      2  O   UNK A   2     -35.156  21.057   4.882  0.00  0.00    -0.275 OA
ATOM      3  N   GLY A   1     -36.425  22.669   3.792  0.00  0.00    -0.298 N 
ATOM      4  C   UNK A   2     -35.523  22.220   4.747  0.00  0.00    +0.223 C 
ATOM      5  H   GLY A   1     -36.651  23.626   3.773  0.00  0.00    +0.150 HD
BRANCH   3   6
ATOM      6  CA  GLY A   1     -37.047  21.794   2.824  0.00  0.00    +0.149 C 
ATOM      7  CB  GLY A   1     -36.116  21.514   1.654  0.00  0.00    +0.031 C 
BRANCH   6  10
ATOM      8  O   GLY A   1     -39.306  21.820   1.948  0.00  0.00    -0.273 OA
ATOM      9  N   UNK A   2     -38.252  23.841   2.386  0.00  0.00    -0.295 N 
ATOM     10  C   GLY A   1     -38.333  22.456   2.350  0.00  0.00    +0.241 C 
ATOM     11  H   UNK A   2     -37.428  24.257   2.727  0.00  0.00    +0.150 HD
BRANCH   9  12
ATOM     12  C   UNK A   2     -39.329  24.697   1.944  0.00  0.00    +0.171 C 
ATOM     13  C   UNK A   2     -39.094  25.142   0.509  0.00  0.00    +0.033 C 
BRANCH  12  15
ATOM     14  O   UNK A   2     -40.432  26.693   2.743  0.00  0.00    -0.248 OA
ATOM     15  C   UNK A   2     -39.501  25.904   2.852  0.00  0.00    +0.332 C 
BRANCH  15  16
ATOM     16  O   UNK A   2     -38.533  26.050   3.788  0.00  0.00    -0.479 OA
ATOM     17  H   UNK A   2     -38.378  26.890   4.174  0.00  0.00    +0.295 HD
ENDBRANCH  15  16
ENDBRANCH  12  15
ENDBRANCH   9  12
ENDBRANCH   6  10
ENDBRANCH   3   6
ENDBRANCH   1   4
BRANCH   1  18
ATOM     18  C   UNK A   2     -35.918  24.609   5.555  0.00  0.00    +0.010 C 
BRANCH  18  19
ATOM     19  C   UNK A   2     -35.079  25.891   5.518  0.00  0.00    +0.003 C 
BRANCH  19  20
ATOM     20  C   UNK A   2     -33.985  25.802   4.444  0.00  0.00    +0.031 C 
BRANCH  20  21
ATOM     21  C   UNK A   2     -34.267  26.660   3.203  0.00  0.00    +0.176 C 
BRANCH  21  23
ATOM     22  O   GLY A   1     -33.069  28.830   1.756  0.00  0.00    -0.277 OA
ATOM     23  N   UNK A   2     -34.322  28.062   3.553  0.00  0.00    -0.298 N 
ATOM     24  C   GLY A   1     -33.707  29.036   2.785  0.00  0.00    +0.201 C 
ATOM     25  H   UNK A   2     -34.813  28.332   4.363  0.00  0.00    +0.150 HD
BRANCH  24  26
ATOM     26  CA  GLY A   1     -33.917  30.413   3.366  0.00  0.00    +0.001 C 
BRANCH  26  27
ATOM     27  N   GLY A   1     -35.355  30.700   3.574  0.00  0.00    +0.386 N 
ATOM     28  H1  GLY A   1     -35.631  30.397   4.509  0.00  0.00    -0.089 HD
ATOM     29  H2  GLY A   1     -35.907  30.196   2.878  0.00  0.00    -0.089 HD
ATOM     30  H3  GLY A   1     -35.521  31.701   3.479  0.00  0.00    -0.089 HD
ENDBRANCH  26  27
ENDBRANCH  24  26
ENDBRANCH  21  23
BRANCH  21  33
ATOM     31  O   UNK A   2     -36.335  27.098   2.111  0.00  0.00    -0.244 OA
ATOM     32  O   UNK A   2     -35.480  24.986   2.030  0.00  0.00    -0.244 OA
ATOM     33  C   UNK A   2     -35.473  26.207   2.357  0.00  0.00    +0.382 C 
ENDBRANCH  21  33
ENDBRANCH  20  21
ENDBRANCH  19  20
ENDBRANCH  18  19
ENDBRANCH   1  18
TORSDOF 14
ENDMDL
MODEL 6
REMARK VINA RESULT:      -5.8      1.981      9.582
REMARK  Name = 5289280
REMARK  14 active torsions:
REMARK  status: ('A' for Active; 'I' for Inactive)
REMARK    1  A    between atoms: C_1  and  C_4
REMARK    2  A    between atoms: C_1  and  C_18
REMARK    3  A    between atoms: N_3  and  CA_6
REMARK    4  A    between atoms: CA_6  and  C_10
REMARK    5  A    between atoms: N_9  and  C_12
REMARK    6  A    between atoms: C_12  and  C_15
REMARK    7  A    between atoms: C_15  and  O_16
REMARK    8  A    between atoms: C_18  and  C_19
REMARK    9  A    between atoms: C_19  and  C_20
REMARK   10  A    between atoms: C_20  and  C_21
REMARK   11  A    between atoms: C_21  and  N_23
REMARK   12  A    between atoms: C_21  and  C_33
REMARK   13  A    between atoms: C_24  and  CA_26
REMARK   14  A    between atoms: CA_26  and  N_27
REMARK                            x       y       z     vdW  Elec       q    Type
REMARK                         _______ _______ _______ _____ _____    ______ ____
ROOT
ATOM      1  C   UNK A   2     -33.434  26.561   5.409  0.00  0.00    +0.085 C 
ENDROOT
BRANCH   1   4
ATOM      2  O   UNK A   2     -35.847  26.411   5.555  0.00  0.00    -0.275 OA
ATOM      3  N   GLY A   1     -34.614  24.476   5.188  0.00  0.00    -0.298 N 
ATOM      4  C   UNK A   2     -34.771  25.838   5.406  0.00  0.00    +0.223 C 
ATOM      5  H   GLY A   1     -33.703  24.120   5.081  0.00  0.00    +0.150 HD
BRANCH   3   6
ATOM      6  CA  GLY A   1     -35.727  23.558   5.111  0.00  0.00    +0.149 C 
ATOM      7  CB  GLY A   1     -35.416  22.253   5.828  0.00  0.00    +0.031 C 
BRANCH   6  10
ATOM      8  O   GLY A   1     -35.483  23.926   2.728  0.00  0.00    -0.273 OA
ATOM      9  N   UNK A   2     -37.022  22.353   3.465  0.00  0.00    -0.295 N 
ATOM     10  C   GLY A   1     -36.032  23.310   3.639  0.00  0.00    +0.241 C 
ATOM     11  H   UNK A   2     -37.400  21.915   4.261  0.00  0.00    +0.150 HD
BRANCH   9  12
ATOM     12  C   UNK A   2     -37.519  21.974   2.163  0.00  0.00    +0.171 C 
ATOM     13  C   UNK A   2     -39.040  21.968   2.160  0.00  0.00    +0.033 C 
BRANCH  12  15
ATOM     14  O   UNK A   2     -36.763  20.336   0.554  0.00  0.00    -0.248 OA
ATOM     15  C   UNK A   2     -36.984  20.620   1.726  0.00  0.00    +0.332 C 
BRANCH  15  16
ATOM     16  O   UNK A   2     -36.779  19.739   2.734  0.00  0.00    -0.479 OA
ATOM     17  H   UNK A   2     -37.177  18.891   2.704  0.00  0.00    +0.295 HD
ENDBRANCH  15  16
ENDBRANCH  12  15
ENDBRANCH   9  12
ENDBRANCH   6  10
ENDBRANCH   3   6
ENDBRANCH   1   4
BRANCH   1  18
ATOM     18  C   UNK A   2     -32.983  27.013   6.797  0.00  0.00    +0.010 C 
BRANCH  18  19
ATOM     19  C   UNK A   2     -32.103  28.267   6.744  0.00  0.00    +0.003 C 
BRANCH  19  20
ATOM     20  C   UNK A   2     -31.731  28.618   5.296  0.00  0.00    +0.031 C 
BRANCH  20  21
ATOM     21  C   UNK A   2     -30.345  29.262   5.153  0.00  0.00    +0.176 C 
BRANCH  21  23
ATOM     22  O   GLY A   1     -28.501  27.108   4.713  0.00  0.00    -0.277 OA
ATOM     23  N   UNK A   2     -29.422  28.709   6.119  0.00  0.00    -0.298 N 
ATOM     24  C   GLY A   1     -28.570  27.663   5.805  0.00  0.00    +0.201 C 
ATOM     25  H   UNK A   2     -29.401  29.086   7.029  0.00  0.00    +0.150 HD
BRANCH  24  26
ATOM     26  CA  GLY A   1     -27.713  27.277   6.985  0.00  0.00    +0.001 C 
BRANCH  26  27
ATOM     27  N   GLY A   1     -27.833  28.260   8.088  0.00  0.00    +0.386 N 
ATOM     28  H1  GLY A   1     -26.924  28.378   8.538  0.00  0.00    -0.089 HD
ATOM     29  H2  GLY A   1     -28.510  27.922   8.773  0.00  0.00    -0.089 HD
ATOM     30  H3  GLY A   1     -28.145  29.155   7.714  0.00  0.00    -0.089 HD
ENDBRANCH  26  27
ENDBRANCH  24  26
ENDBRANCH  21  23
BRANCH  21  33
ATOM     31  O   UNK A   2     -29.211  31.350   5.280  0.00  0.00    -0.244 OA
ATOM     32  O   UNK A   2     -31.476  31.348   5.015  0.00  0.00    -0.244 OA
ATOM     33  C   UNK A   2     -30.342  30.804   5.138  0.00  0.00    +0.382 C 
ENDBRANCH  21  33
ENDBRANCH  20  21
ENDBRANCH  19  20
ENDBRANCH  18  19
ENDBRANCH   1  18
TORSDOF 14
ENDMDL
MODEL 7
REMARK VINA RESULT:      -5.7      2.464      8.768
REMARK  Name = 5289280
REMARK  14 active torsions:
REMARK  status: ('A' for Active; 'I' for Inactive)
REMARK    1  A    between atoms: C_1  and  C_4
REMARK    2  A    between atoms: C_1  and  C_18
REMARK    3  A    between atoms: N_3  and  CA_6
REMARK    4  A    between atoms: CA_6  and  C_10
REMARK    5  A    between atoms: N_9  and  C_12
REMARK    6  A    between atoms: C_12  and  C_15
REMARK    7  A    between atoms: C_15  and  O_16
REMARK    8  A    between atoms: C_18  and  C_19
REMARK    9  A    between atoms: C_19  and  C_20
REMARK   10  A    between atoms: C_20  and  C_21
REMARK   11  A    between atoms: C_21  and  N_23
REMARK   12  A    between atoms: C_21  and  C_33
REMARK   13  A    between atoms: C_24  and  CA_26
REMARK   14  A    between atoms: CA_26  and  N_27
REMARK                            x       y       z     vdW  Elec       q    Type
REMARK                         _______ _______ _______ _____ _____    ______ ____
ROOT
ATOM      1  C   UNK A   2     -33.539  26.625   5.455  0.00  0.00    +0.085 C 
ENDROOT
BRANCH   1   4
ATOM      2  O   UNK A   2     -35.943  26.339   5.539  0.00  0.00    -0.275 OA
ATOM      3  N   GLY A   1     -34.591  24.468   5.282  0.00  0.00    -0.298 N 
ATOM      4  C   UNK A   2     -34.832  25.825   5.442  0.00  0.00    +0.223 C 
ATOM      5  H   GLY A   1     -33.657  24.162   5.214  0.00  0.00    +0.150 HD
BRANCH   3   6
ATOM      6  CA  GLY A   1     -35.646  23.483   5.208  0.00  0.00    +0.149 C 
ATOM      7  CB  GLY A   1     -35.329  22.270   6.069  0.00  0.00    +0.031 C 
BRANCH   6  10
ATOM      8  O   GLY A   1     -34.979  23.330   2.883  0.00  0.00    -0.273 OA
ATOM      9  N   UNK A   2     -37.037  22.464   3.517  0.00  0.00    -0.295 N 
ATOM     10  C   GLY A   1     -35.818  23.085   3.749  0.00  0.00    +0.241 C 
ATOM     11  H   UNK A   2     -37.642  22.311   4.279  0.00  0.00    +0.150 HD
BRANCH   9  12
ATOM     12  C   UNK A   2     -37.455  22.031   2.204  0.00  0.00    +0.171 C 
ATOM     13  C   UNK A   2     -38.971  21.931   2.139  0.00  0.00    +0.033 C 
BRANCH  12  15
ATOM     14  O   UNK A   2     -36.374  20.480   0.698  0.00  0.00    -0.248 OA
ATOM     15  C   UNK A   2     -36.820  20.705   1.817  0.00  0.00    +0.332 C 
BRANCH  15  16
ATOM     16  O   UNK A   2     -36.795  19.779   2.805  0.00  0.00    -0.479 OA
ATOM     17  H   UNK A   2     -37.564  19.618   3.316  0.00  0.00    +0.295 HD
ENDBRANCH  15  16
ENDBRANCH  12  15
ENDBRANCH   9  12
ENDBRANCH   6  10
ENDBRANCH   3   6
ENDBRANCH   1   4
BRANCH   1  18
ATOM     18  C   UNK A   2     -32.984  26.873   6.857  0.00  0.00    +0.010 C 
BRANCH  18  19
ATOM     19  C   UNK A   2     -32.125  28.140   6.928  0.00  0.00    +0.003 C 
BRANCH  19  20
ATOM     20  C   UNK A   2     -31.673  28.578   5.527  0.00  0.00    +0.031 C 
BRANCH  20  21
ATOM     21  C   UNK A   2     -31.912  30.066   5.238  0.00  0.00    +0.176 C 
BRANCH  21  23
ATOM     22  O   GLY A   1     -32.438  29.075   2.597  0.00  0.00    -0.277 OA
ATOM     23  N   UNK A   2     -33.127  30.250   4.476  0.00  0.00    -0.298 N 
ATOM     24  C   GLY A   1     -33.282  29.729   3.202  0.00  0.00    +0.201 C 
ATOM     25  H   UNK A   2     -33.867  30.762   4.876  0.00  0.00    +0.150 HD
BRANCH  24  26
ATOM     26  CA  GLY A   1     -34.638  30.061   2.631  0.00  0.00    +0.001 C 
BRANCH  26  27
ATOM     27  N   GLY A   1     -35.503  30.721   3.636  0.00  0.00    +0.386 N 
ATOM     28  H1  GLY A   1     -36.013  30.012   4.164  0.00  0.00    -0.089 HD
ATOM     29  H2  GLY A   1     -36.167  31.335   3.163  0.00  0.00    -0.089 HD
ATOM     30  H3  GLY A   1     -34.928  31.271   4.274  0.00  0.00    -0.089 HD
ENDBRANCH  26  27
ENDBRANCH  24  26
ENDBRANCH  21  23
BRANCH  21  33
ATOM     31  O   UNK A   2     -29.666  30.120   4.453  0.00  0.00    -0.244 OA
ATOM     32  O   UNK A   2     -30.889  32.044   4.408  0.00  0.00    -0.244 OA
ATOM     33  C   UNK A   2     -30.708  30.813   4.631  0.00  0.00    +0.382 C 
ENDBRANCH  21  33
ENDBRANCH  20  21
ENDBRANCH  19  20
ENDBRANCH  18  19
ENDBRANCH   1  18
TORSDOF 14
ENDMDL
MODEL 8
REMARK VINA RESULT:      -5.7      2.260      9.163
REMARK  Name = 5289280
REMARK  14 active torsions:
REMARK  status: ('A' for Active; 'I' for Inactive)
REMARK    1  A    between atoms: C_1  and  C_4
REMARK    2  A    between atoms: C_1  and  C_18
REMARK    3  A    between atoms: N_3  and  CA_6
REMARK    4  A    between atoms: CA_6  and  C_10
REMARK    5  A    between atoms: N_9  and  C_12
REMARK    6  A    between atoms: C_12  and  C_15
REMARK    7  A    between atoms: C_15  and  O_16
REMARK    8  A    between atoms: C_18  and  C_19
REMARK    9  A    between atoms: C_19  and  C_20
REMARK   10  A    between atoms: C_20  and  C_21
REMARK   11  A    between atoms: C_21  and  N_23
REMARK   12  A    between atoms: C_21  and  C_33
REMARK   13  A    between atoms: C_24  and  CA_26
REMARK   14  A    between atoms: CA_26  and  N_27
REMARK                            x       y       z     vdW  Elec       q    Type
REMARK                         _______ _______ _______ _____ _____    ______ ____
ROOT
ATOM      1  C   UNK A   2     -35.028  23.338   5.565  0.00  0.00    +0.085 C 
ENDROOT
BRANCH   1   4
ATOM      2  O   UNK A   2     -35.229  20.925   5.613  0.00  0.00    -0.275 OA
ATOM      3  N   GLY A   1     -35.636  22.053   3.624  0.00  0.00    -0.298 N 
ATOM      4  C   UNK A   2     -35.293  21.966   4.966  0.00  0.00    +0.223 C 
ATOM      5  H   GLY A   1     -35.657  22.942   3.202  0.00  0.00    +0.150 HD
BRANCH   3   6
ATOM      6  CA  GLY A   1     -35.965  20.899   2.818  0.00  0.00    +0.149 C 
ATOM      7  CB  GLY A   1     -34.717  20.273   2.215  0.00  0.00    +0.031 C 
BRANCH   6  10
ATOM      8  O   GLY A   1     -36.912  20.888   0.587  0.00  0.00    -0.273 OA
ATOM      9  N   UNK A   2     -37.788  22.345   2.167  0.00  0.00    -0.295 N 
ATOM     10  C   GLY A   1     -36.931  21.345   1.729  0.00  0.00    +0.241 C 
ATOM     11  H   UNK A   2     -37.725  22.643   3.103  0.00  0.00    +0.150 HD
BRANCH   9  12
ATOM     12  C   UNK A   2     -38.768  22.965   1.306  0.00  0.00    +0.171 C 
ATOM     13  C   UNK A   2     -38.966  24.422   1.695  0.00  0.00    +0.033 C 
BRANCH  12  15
ATOM     14  O   UNK A   2     -40.276  21.203   1.989  0.00  0.00    -0.248 OA
ATOM     15  C   UNK A   2     -40.095  22.224   1.336  0.00  0.00    +0.332 C 
BRANCH  15  16
ATOM     16  O   UNK A   2     -41.067  22.774   0.570  0.00  0.00    -0.479 OA
ATOM     17  H   UNK A   2     -40.927  22.897  -0.349  0.00  0.00    +0.295 HD
ENDBRANCH  15  16
ENDBRANCH  12  15
ENDBRANCH   9  12
ENDBRANCH   6  10
ENDBRANCH   3   6
ENDBRANCH   1   4
BRANCH   1  18
ATOM     18  C   UNK A   2     -36.022  24.408   5.114  0.00  0.00    +0.010 C 
BRANCH  18  19
ATOM     19  C   UNK A   2     -35.571  25.821   5.500  0.00  0.00    +0.003 C 
BRANCH  19  20
ATOM     20  C   UNK A   2     -34.041  25.905   5.592  0.00  0.00    +0.031 C 
BRANCH  20  21
ATOM     21  C   UNK A   2     -33.418  26.912   4.616  0.00  0.00    +0.176 C 
BRANCH  21  23
ATOM     22  O   GLY A   1     -30.719  27.739   5.134  0.00  0.00    -0.277 OA
ATOM     23  N   UNK A   2     -33.004  28.110   5.312  0.00  0.00    -0.298 N 
ATOM     24  C   GLY A   1     -31.669  28.419   5.512  0.00  0.00    +0.201 C 
ATOM     25  H   UNK A   2     -33.693  28.724   5.656  0.00  0.00    +0.150 HD
BRANCH  24  26
ATOM     26  CA  GLY A   1     -31.509  29.719   6.261  0.00  0.00    +0.001 C 
BRANCH  26  27
ATOM     27  N   GLY A   1     -31.427  29.495   7.724  0.00  0.00    +0.386 N 
ATOM     28  H1  GLY A   1     -31.800  28.573   7.948  0.00  0.00    -0.089 HD
ATOM     29  H2  GLY A   1     -31.971  30.210   8.208  0.00  0.00    -0.089 HD
ATOM     30  H3  GLY A   1     -30.454  29.549   8.022  0.00  0.00    -0.089 HD
ENDBRANCH  26  27
ENDBRANCH  24  26
ENDBRANCH  21  23
BRANCH  21  33
ATOM     31  O   UNK A   2     -34.181  26.361   2.431  0.00  0.00    -0.244 OA
ATOM     32  O   UNK A   2     -34.919  28.291   3.394  0.00  0.00    -0.244 OA
ATOM     33  C   UNK A   2     -34.262  27.212   3.362  0.00  0.00    +0.382 C 
ENDBRANCH  21  33
ENDBRANCH  20  21
ENDBRANCH  19  20
ENDBRANCH  18  19
ENDBRANCH   1  18
TORSDOF 14
ENDMDL
MODEL 9
REMARK VINA RESULT:      -5.7      2.482      9.134
REMARK  Name = 5289280
REMARK  14 active torsions:
REMARK  status: ('A' for Active; 'I' for Inactive)
REMARK    1  A    between atoms: C_1  and  C_4
REMARK    2  A    between atoms: C_1  and  C_18
REMARK    3  A    between atoms: N_3  and  CA_6
REMARK    4  A    between atoms: CA_6  and  C_10
REMARK    5  A    between atoms: N_9  and  C_12
REMARK    6  A    between atoms: C_12  and  C_15
REMARK    7  A    between atoms: C_15  and  O_16
REMARK    8  A    between atoms: C_18  and  C_19
REMARK    9  A    between atoms: C_19  and  C_20
REMARK   10  A    between atoms: C_20  and  C_21
REMARK   11  A    between atoms: C_21  and  N_23
REMARK   12  A    between atoms: C_21  and  C_33
REMARK   13  A    between atoms: C_24  and  CA_26
REMARK   14  A    between atoms: CA_26  and  N_27
REMARK                            x       y       z     vdW  Elec       q    Type
REMARK                         _______ _______ _______ _____ _____    ______ ____
ROOT
ATOM      1  C   UNK A   2     -33.728  26.131   4.970  0.00  0.00    +0.085 C 
ENDROOT
BRANCH   1   4
ATOM      2  O   UNK A   2     -36.011  25.799   5.708  0.00  0.00    -0.275 OA
ATOM      3  N   GLY A   1     -34.771  23.963   5.009  0.00  0.00    -0.298 N 
ATOM      4  C   UNK A   2     -34.967  25.309   5.285  0.00  0.00    +0.223 C 
ATOM      5  H   GLY A   1     -33.892  23.677   4.672  0.00  0.00    +0.150 HD
BRANCH   3   6
ATOM      6  CA  GLY A   1     -35.798  22.963   5.192  0.00  0.00    +0.149 C 
ATOM      7  CB  GLY A   1     -35.340  21.871   6.147  0.00  0.00    +0.031 C 
BRANCH   6  10
ATOM      8  O   GLY A   1     -35.353  21.705   3.169  0.00  0.00    -0.273 OA
ATOM      9  N   UNK A   2     -37.413  22.749   3.408  0.00  0.00    -0.295 N 
ATOM     10  C   GLY A   1     -36.140  22.384   3.827  0.00  0.00    +0.241 C 
ATOM     11  H   UNK A   2     -37.969  23.294   4.010  0.00  0.00    +0.150 HD
BRANCH   9  12
ATOM     12  C   UNK A   2     -37.954  22.359   2.127  0.00  0.00    +0.171 C 
ATOM     13  C   UNK A   2     -37.558  23.367   1.059  0.00  0.00    +0.033 C 
BRANCH  12  15
ATOM     14  O   UNK A   2     -40.237  23.150   2.061  0.00  0.00    -0.248 OA
ATOM     15  C   UNK A   2     -39.465  22.204   2.175  0.00  0.00    +0.332 C 
BRANCH  15  16
ATOM     16  O   UNK A   2     -39.898  20.935   2.366  0.00  0.00    -0.479 OA
ATOM     17  H   UNK A   2     -39.397  20.343   2.892  0.00  0.00    +0.295 HD
ENDBRANCH  15  16
ENDBRANCH  12  15
ENDBRANCH   9  12
ENDBRANCH   6  10
ENDBRANCH   3   6
ENDBRANCH   1   4
BRANCH   1  18
ATOM     18  C   UNK A   2     -33.603  26.515   3.496  0.00  0.00    +0.010 C 
BRANCH  18  19
ATOM     19  C   UNK A   2     -34.247  27.872   3.191  0.00  0.00    +0.003 C 
BRANCH  19  20
ATOM     20  C   UNK A   2     -33.225  28.840   2.578  0.00  0.00    +0.031 C 
BRANCH  20  21
ATOM     21  C   UNK A   2     -33.123  30.180   3.320  0.00  0.00    +0.176 C 
BRANCH  21  23
ATOM     22  O   GLY A   1     -30.563  29.850   4.574  0.00  0.00    -0.277 OA
ATOM     23  N   UNK A   2     -32.876  29.967   4.729  0.00  0.00    -0.298 N 
ATOM     24  C   GLY A   1     -31.596  29.818   5.236  0.00  0.00    +0.201 C 
ATOM     25  H   UNK A   2     -33.642  29.925   5.347  0.00  0.00    +0.150 HD
BRANCH  24  26
ATOM     26  CA  GLY A   1     -31.615  29.609   6.731  0.00  0.00    +0.001 C 
BRANCH  26  27
ATOM     27  N   GLY A   1     -32.149  28.273   7.085  0.00  0.00    +0.386 N 
ATOM     28  H1  GLY A   1     -31.799  28.000   8.004  0.00  0.00    -0.089 HD
ATOM     29  H2  GLY A   1     -31.847  27.591   6.389  0.00  0.00    -0.089 HD
ATOM     30  H3  GLY A   1     -33.168  28.308   7.107  0.00  0.00    -0.089 HD
ENDBRANCH  26  27
ENDBRANCH  24  26
ENDBRANCH  21  23
BRANCH  21  33
ATOM     31  O   UNK A   2     -34.071  32.038   2.175  0.00  0.00    -0.244 OA
ATOM     32  O   UNK A   2     -35.308  30.994   3.781  0.00  0.00    -0.244 OA
ATOM     33  C   UNK A   2     -34.284  31.160   3.059  0.00  0.00    +0.382 C 
ENDBRANCH  21  33
ENDBRANCH  20  21
ENDBRANCH  19  20
ENDBRANCH  18  19
ENDBRANCH   1  18
TORSDOF 14
ENDMDL
