MODEL 1
REMARK VINA RESULT:      -5.8      0.000      0.000
REMARK  Name = 54547403
REMARK  8 active torsions:
REMARK  status: ('A' for Active; 'I' for Inactive)
REMARK    1  A    between atoms: O_1  and  C_3
REMARK    2  A    between atoms: O_1  and  C_16
REMARK    3  A    between atoms: C_4  and  O_9
REMARK    4  A    between atoms: C_5  and  O_11
REMARK    5  A    between atoms: C_6  and  O_13
REMARK    6  A    between atoms: C_17  and  O_22
REMARK    7  A    between atoms: C_18  and  O_26
REMARK    8  A    between atoms: C_19  and  O_24
REMARK                            x       y       z     vdW  Elec       q    Type
REMARK                         _______ _______ _______ _____ _____    ______ ____
ROOT
ATOM      1  O   UNL     1     -35.325  25.405   3.484  0.00  0.00    -0.323 OA
ENDROOT
BRANCH   1   3
ATOM      2  O   UNL     1     -36.333  24.103   5.194  0.00  0.00    -0.329 OA
ATOM      3  C   UNL     1     -36.542  24.903   4.024  0.00  0.00    +0.266 C 
ATOM      4  C   UNL     1     -37.292  24.108   2.956  0.00  0.00    +0.196 C 
ATOM      5  C   UNL     1     -36.574  22.793   2.650  0.00  0.00    +0.171 C 
ATOM      6  C   UNL     1     -36.299  22.007   3.933  0.00  0.00    +0.167 C 
ATOM      7  C   UNL     1     -35.590  22.903   4.959  0.00  0.00    +0.147 C 
ATOM      8  C   UNL     1     -35.426  22.209   6.307  0.00  0.00    +0.035 C 
BRANCH   4   9
ATOM      9  O   UNL     1     -38.604  23.843   3.453  0.00  0.00    -0.378 OA
ATOM     10  H   UNL     1     -39.260  24.087   2.781  0.00  0.00    +0.211 HD
ENDBRANCH   4   9
BRANCH   5  11
ATOM     11  O   UNL     1     -37.370  21.997   1.774  0.00  0.00    -0.379 OA
ATOM     12  H   UNL     1     -37.304  21.065   2.035  0.00  0.00    +0.211 HD
ENDBRANCH   5  11
BRANCH   6  13
ATOM     13  O   UNL     1     -35.479  20.889   3.603  0.00  0.00    -0.379 OA
ATOM     14  H   UNL     1     -34.571  21.191   3.440  0.00  0.00    +0.211 HD
ENDBRANCH   6  13
ENDBRANCH   1   3
BRANCH   1  16
ATOM     15  O   UNL     1     -32.571  26.179   3.765  0.00  0.00    -0.329 OA
ATOM     16  C   UNL     1     -34.938  26.627   4.116  0.00  0.00    +0.203 C 
ATOM     17  C   UNL     1     -34.875  27.751   3.082  0.00  0.00    +0.172 C 
ATOM     18  C   UNL     1     -33.742  27.513   2.083  0.00  0.00    +0.167 C 
ATOM     19  C   UNL     1     -33.572  26.403   4.764  0.00  0.00    +0.266 C 
ATOM     20  C   UNL     1     -32.426  27.251   2.828  0.00  0.00    +0.147 C 
ATOM     21  C   UNL     1     -31.297  26.862   1.878  0.00  0.00    +0.035 C 
BRANCH  17  22
ATOM     22  O   UNL     1     -36.112  27.835   2.379  0.00  0.00    -0.379 OA
ATOM     23  H   UNL     1     -35.964  28.243   1.512  0.00  0.00    +0.211 HD
ENDBRANCH  17  22
BRANCH  19  24
ATOM     24  O   UNL     1     -33.258  27.501   5.613  0.00  0.00    -0.326 OA
ATOM     25  C   UNL     1     -32.795  27.060   6.882  0.00  0.00    +0.177 C 
ENDBRANCH  19  24
BRANCH  18  26
ATOM     26  O   UNL     1     -33.622  28.673   1.262  0.00  0.00    -0.379 OA
ATOM     27  H   UNL     1     -32.818  29.158   1.505  0.00  0.00    +0.211 HD
ENDBRANCH  18  26
ENDBRANCH   1  16
TORSDOF 8
ENDMDL
MODEL 2
REMARK VINA RESULT:      -5.8      2.365      5.863
REMARK  Name = 54547403
REMARK  8 active torsions:
REMARK  status: ('A' for Active; 'I' for Inactive)
REMARK    1  A    between atoms: O_1  and  C_3
REMARK    2  A    between atoms: O_1  and  C_16
REMARK    3  A    between atoms: C_4  and  O_9
REMARK    4  A    between atoms: C_5  and  O_11
REMARK    5  A    between atoms: C_6  and  O_13
REMARK    6  A    between atoms: C_17  and  O_22
REMARK    7  A    between atoms: C_18  and  O_26
REMARK    8  A    between atoms: C_19  and  O_24
REMARK                            x       y       z     vdW  Elec       q    Type
REMARK                         _______ _______ _______ _____ _____    ______ ____
ROOT
ATOM      1  O   UNL     1     -34.850  23.533   2.702  0.00  0.00    -0.323 OA
ENDROOT
BRANCH   1   3
ATOM      2  O   UNL     1     -33.744  25.407   3.649  0.00  0.00    -0.329 OA
ATOM      3  C   UNL     1     -34.357  24.849   2.481  0.00  0.00    +0.266 C 
ATOM      4  C   UNL     1     -35.489  25.748   1.986  0.00  0.00    +0.196 C 
ATOM      5  C   UNL     1     -36.494  26.026   3.105  0.00  0.00    +0.171 C 
ATOM      6  C   UNL     1     -35.790  26.544   4.359  0.00  0.00    +0.167 C 
ATOM      7  C   UNL     1     -34.641  25.602   4.746  0.00  0.00    +0.147 C 
ATOM      8  C   UNL     1     -33.816  26.154   5.905  0.00  0.00    +0.035 C 
BRANCH   4   9
ATOM      9  O   UNL     1     -34.907  26.973   1.540  0.00  0.00    -0.378 OA
ATOM     10  H   UNL     1     -34.968  27.637   2.245  0.00  0.00    +0.211 HD
ENDBRANCH   4   9
BRANCH   5  11
ATOM     11  O   UNL     1     -37.450  26.990   2.670  0.00  0.00    -0.379 OA
ATOM     12  H   UNL     1     -37.941  26.639   1.911  0.00  0.00    +0.211 HD
ENDBRANCH   5  11
BRANCH   6  13
ATOM     13  O   UNL     1     -36.749  26.612   5.412  0.00  0.00    -0.379 OA
ATOM     14  H   UNL     1     -36.752  25.775   5.901  0.00  0.00    +0.211 HD
ENDBRANCH   6  13
ENDBRANCH   1   3
BRANCH   1  16
ATOM     15  O   UNL     1     -34.025  21.478   0.868  0.00  0.00    -0.329 OA
ATOM     16  C   UNL     1     -35.679  23.097   1.624  0.00  0.00    +0.203 C 
ATOM     17  C   UNL     1     -36.581  21.953   2.089  0.00  0.00    +0.172 C 
ATOM     18  C   UNL     1     -35.759  20.704   2.410  0.00  0.00    +0.167 C 
ATOM     19  C   UNL     1     -34.764  22.643   0.487  0.00  0.00    +0.266 C 
ATOM     20  C   UNL     1     -34.840  20.358   1.230  0.00  0.00    +0.147 C 
ATOM     21  C   UNL     1     -33.895  19.207   1.559  0.00  0.00    +0.035 C 
BRANCH  17  22
ATOM     22  O   UNL     1     -37.308  22.349   3.250  0.00  0.00    -0.379 OA
ATOM     23  H   UNL     1     -38.072  22.884   2.986  0.00  0.00    +0.211 HD
ENDBRANCH  17  22
BRANCH  19  24
ATOM     24  O   UNL     1     -35.531  22.438  -0.694  0.00  0.00    -0.326 OA
ATOM     25  C   UNL     1     -36.044  23.664  -1.199  0.00  0.00    +0.177 C 
ENDBRANCH  19  24
BRANCH  18  26
ATOM     26  O   UNL     1     -36.663  19.631   2.663  0.00  0.00    -0.379 OA
ATOM     27  H   UNL     1     -37.455  19.973   3.106  0.00  0.00    +0.211 HD
ENDBRANCH  18  26
ENDBRANCH   1  16
TORSDOF 8
ENDMDL
MODEL 3
REMARK VINA RESULT:      -5.7      1.407      6.084
REMARK  Name = 54547403
REMARK  8 active torsions:
REMARK  status: ('A' for Active; 'I' for Inactive)
REMARK    1  A    between atoms: O_1  and  C_3
REMARK    2  A    between atoms: O_1  and  C_16
REMARK    3  A    between atoms: C_4  and  O_9
REMARK    4  A    between atoms: C_5  and  O_11
REMARK    5  A    between atoms: C_6  and  O_13
REMARK    6  A    between atoms: C_17  and  O_22
REMARK    7  A    between atoms: C_18  and  O_26
REMARK    8  A    between atoms: C_19  and  O_24
REMARK                            x       y       z     vdW  Elec       q    Type
REMARK                         _______ _______ _______ _____ _____    ______ ____
ROOT
ATOM      1  O   UNL     1     -34.876  24.660   3.750  0.00  0.00    -0.323 OA
ENDROOT
BRANCH   1   3
ATOM      2  O   UNL     1     -34.261  25.996   1.888  0.00  0.00    -0.329 OA
ATOM      3  C   UNL     1     -35.054  25.901   3.076  0.00  0.00    +0.266 C 
ATOM      4  C   UNL     1     -34.740  27.055   4.027  0.00  0.00    +0.196 C 
ATOM      5  C   UNL     1     -33.241  27.126   4.322  0.00  0.00    +0.171 C 
ATOM      6  C   UNL     1     -32.428  27.146   3.028  0.00  0.00    +0.167 C 
ATOM      7  C   UNL     1     -32.849  25.982   2.121  0.00  0.00    +0.147 C 
ATOM      8  C   UNL     1     -32.170  26.044   0.757  0.00  0.00    +0.035 C 
BRANCH   4   9
ATOM      9  O   UNL     1     -35.171  28.264   3.400  0.00  0.00    -0.378 OA
ATOM     10  H   UNL     1     -34.629  29.003   3.718  0.00  0.00    +0.211 HD
ENDBRANCH   4   9
BRANCH   5  11
ATOM     11  O   UNL     1     -32.951  28.300   5.078  0.00  0.00    -0.379 OA
ATOM     12  H   UNL     1     -32.732  29.027   4.474  0.00  0.00    +0.211 HD
ENDBRANCH   5  11
BRANCH   6  13
ATOM     13  O   UNL     1     -31.048  27.033   3.368  0.00  0.00    -0.379 OA
ATOM     14  H   UNL     1     -30.862  27.577   4.150  0.00  0.00    +0.211 HD
ENDBRANCH   6  13
ENDBRANCH   1   3
BRANCH   1  16
ATOM     15  O   UNL     1     -36.066  22.525   2.236  0.00  0.00    -0.329 OA
ATOM     16  C   UNL     1     -36.130  24.078   4.111  0.00  0.00    +0.203 C 
ATOM     17  C   UNL     1     -35.904  22.914   5.077  0.00  0.00    +0.172 C 
ATOM     18  C   UNL     1     -35.180  21.759   4.383  0.00  0.00    +0.167 C 
ATOM     19  C   UNL     1     -36.807  23.598   2.827  0.00  0.00    +0.266 C 
ATOM     20  C   UNL     1     -35.907  21.384   3.085  0.00  0.00    +0.147 C 
ATOM     21  C   UNL     1     -35.141  20.335   2.282  0.00  0.00    +0.035 C 
BRANCH  17  22
ATOM     22  O   UNL     1     -35.131  23.351   6.192  0.00  0.00    -0.379 OA
ATOM     23  H   UNL     1     -34.683  24.181   5.970  0.00  0.00    +0.211 HD
ENDBRANCH  17  22
BRANCH  19  24
ATOM     24  O   UNL     1     -38.157  23.240   3.102  0.00  0.00    -0.326 OA
ATOM     25  C   UNL     1     -39.024  24.360   2.988  0.00  0.00    +0.177 C 
ENDBRANCH  19  24
BRANCH  18  26
ATOM     26  O   UNL     1     -35.160  20.647   5.276  0.00  0.00    -0.379 OA
ATOM     27  H   UNL     1     -35.739  20.830   6.032  0.00  0.00    +0.211 HD
ENDBRANCH  18  26
ENDBRANCH   1  16
TORSDOF 8
ENDMDL
MODEL 4
REMARK VINA RESULT:      -5.6      2.170      4.073
REMARK  Name = 54547403
REMARK  8 active torsions:
REMARK  status: ('A' for Active; 'I' for Inactive)
REMARK    1  A    between atoms: O_1  and  C_3
REMARK    2  A    between atoms: O_1  and  C_16
REMARK    3  A    between atoms: C_4  and  O_9
REMARK    4  A    between atoms: C_5  and  O_11
REMARK    5  A    between atoms: C_6  and  O_13
REMARK    6  A    between atoms: C_17  and  O_22
REMARK    7  A    between atoms: C_18  and  O_26
REMARK    8  A    between atoms: C_19  and  O_24
REMARK                            x       y       z     vdW  Elec       q    Type
REMARK                         _______ _______ _______ _____ _____    ______ ____
ROOT
ATOM      1  O   UNL     1     -36.938  23.919   2.480  0.00  0.00    -0.323 OA
ENDROOT
BRANCH   1   3
ATOM      2  O   UNL     1     -36.639  22.545   0.568  0.00  0.00    -0.329 OA
ATOM      3  C   UNL     1     -36.733  22.596   1.997  0.00  0.00    +0.266 C 
ATOM      4  C   UNL     1     -37.854  21.686   2.495  0.00  0.00    +0.196 C 
ATOM      5  C   UNL     1     -39.177  22.019   1.804  0.00  0.00    +0.171 C 
ATOM      6  C   UNL     1     -39.013  22.031   0.283  0.00  0.00    +0.167 C 
ATOM      7  C   UNL     1     -37.836  22.932  -0.114  0.00  0.00    +0.147 C 
ATOM      8  C   UNL     1     -37.540  22.862  -1.609  0.00  0.00    +0.035 C 
BRANCH   4   9
ATOM      9  O   UNL     1     -37.480  20.338   2.205  0.00  0.00    -0.378 OA
ATOM     10  H   UNL     1     -36.624  20.331   1.750  0.00  0.00    +0.211 HD
ENDBRANCH   4   9
BRANCH   5  11
ATOM     11  O   UNL     1     -40.168  21.058   2.161  0.00  0.00    -0.379 OA
ATOM     12  H   UNL     1     -41.028  21.498   2.248  0.00  0.00    +0.211 HD
ENDBRANCH   5  11
BRANCH   6  13
ATOM     13  O   UNL     1     -40.224  22.519  -0.290  0.00  0.00    -0.379 OA
ATOM     14  H   UNL     1     -40.249  23.487  -0.218  0.00  0.00    +0.211 HD
ENDBRANCH   6  13
ENDBRANCH   1   3
BRANCH   1  16
ATOM     15  O   UNL     1     -34.203  24.282   3.290  0.00  0.00    -0.329 OA
ATOM     16  C   UNL     1     -36.560  24.038   3.853  0.00  0.00    +0.203 C 
ATOM     17  C   UNL     1     -36.605  25.505   4.281  0.00  0.00    +0.172 C 
ATOM     18  C   UNL     1     -35.529  26.319   3.561  0.00  0.00    +0.167 C 
ATOM     19  C   UNL     1     -35.147  23.471   3.997  0.00  0.00    +0.266 C 
ATOM     20  C   UNL     1     -34.160  25.646   3.723  0.00  0.00    +0.147 C 
ATOM     21  C   UNL     1     -33.079  26.341   2.900  0.00  0.00    +0.035 C 
BRANCH  17  22
ATOM     22  O   UNL     1     -37.887  26.057   3.988  0.00  0.00    -0.379 OA
ATOM     23  H   UNL     1     -38.316  26.334   4.812  0.00  0.00    +0.211 HD
ENDBRANCH  17  22
BRANCH  19  24
ATOM     24  O   UNL     1     -34.823  23.336   5.376  0.00  0.00    -0.326 OA
ATOM     25  C   UNL     1     -35.447  22.194   5.946  0.00  0.00    +0.177 C 
ENDBRANCH  19  24
BRANCH  18  26
ATOM     26  O   UNL     1     -35.507  27.626   4.130  0.00  0.00    -0.379 OA
ATOM     27  H   UNL     1     -34.823  27.668   4.817  0.00  0.00    +0.211 HD
ENDBRANCH  18  26
ENDBRANCH   1  16
TORSDOF 8
ENDMDL
MODEL 5
REMARK VINA RESULT:      -5.6      2.465      4.399
REMARK  Name = 54547403
REMARK  8 active torsions:
REMARK  status: ('A' for Active; 'I' for Inactive)
REMARK    1  A    between atoms: O_1  and  C_3
REMARK    2  A    between atoms: O_1  and  C_16
REMARK    3  A    between atoms: C_4  and  O_9
REMARK    4  A    between atoms: C_5  and  O_11
REMARK    5  A    between atoms: C_6  and  O_13
REMARK    6  A    between atoms: C_17  and  O_22
REMARK    7  A    between atoms: C_18  and  O_26
REMARK    8  A    between atoms: C_19  and  O_24
REMARK                            x       y       z     vdW  Elec       q    Type
REMARK                         _______ _______ _______ _____ _____    ______ ____
ROOT
ATOM      1  O   UNL     1     -37.535  23.708   2.459  0.00  0.00    -0.323 OA
ENDROOT
BRANCH   1   3
ATOM      2  O   UNL     1     -37.449  21.777   1.081  0.00  0.00    -0.329 OA
ATOM      3  C   UNL     1     -38.043  22.399   2.227  0.00  0.00    +0.266 C 
ATOM      4  C   UNL     1     -39.563  22.454   2.082  0.00  0.00    +0.196 C 
ATOM      5  C   UNL     1     -39.963  23.130   0.770  0.00  0.00    +0.171 C 
ATOM      6  C   UNL     1     -39.246  22.487  -0.419  0.00  0.00    +0.167 C 
ATOM      7  C   UNL     1     -37.735  22.434  -0.158  0.00  0.00    +0.147 C 
ATOM      8  C   UNL     1     -36.992  21.669  -1.249  0.00  0.00    +0.035 C 
BRANCH   4   9
ATOM      9  O   UNL     1     -40.050  21.112   2.106  0.00  0.00    -0.378 OA
ATOM     10  H   UNL     1     -39.423  20.531   1.648  0.00  0.00    +0.211 HD
ENDBRANCH   4   9
BRANCH   5  11
ATOM     11  O   UNL     1     -41.372  23.027   0.580  0.00  0.00    -0.379 OA
ATOM     12  H   UNL     1     -41.553  22.551  -0.246  0.00  0.00    +0.211 HD
ENDBRANCH   5  11
BRANCH   6  13
ATOM     13  O   UNL     1     -39.520  23.269  -1.579  0.00  0.00    -0.379 OA
ATOM     14  H   UNL     1     -38.807  23.914  -1.709  0.00  0.00    +0.211 HD
ENDBRANCH   6  13
ENDBRANCH   1   3
BRANCH   1  16
ATOM     15  O   UNL     1     -34.910  23.731   3.631  0.00  0.00    -0.329 OA
ATOM     16  C   UNL     1     -37.325  23.948   3.851  0.00  0.00    +0.203 C 
ATOM     17  C   UNL     1     -37.164  25.448   4.103  0.00  0.00    +0.172 C 
ATOM     18  C   UNL     1     -35.874  25.973   3.470  0.00  0.00    +0.167 C 
ATOM     19  C   UNL     1     -36.069  23.186   4.271  0.00  0.00    +0.266 C 
ATOM     20  C   UNL     1     -34.681  25.116   3.913  0.00  0.00    +0.147 C 
ATOM     21  C   UNL     1     -33.394  25.510   3.194  0.00  0.00    +0.035 C 
BRANCH  17  22
ATOM     22  O   UNL     1     -38.276  26.154   3.559  0.00  0.00    -0.379 OA
ATOM     23  H   UNL     1     -38.390  25.910   2.628  0.00  0.00    +0.211 HD
ENDBRANCH  17  22
BRANCH  19  24
ATOM     24  O   UNL     1     -35.959  23.187   5.690  0.00  0.00    -0.326 OA
ATOM     25  C   UNL     1     -35.285  22.027   6.159  0.00  0.00    +0.177 C 
ENDBRANCH  19  24
BRANCH  18  26
ATOM     26  O   UNL     1     -35.693  27.324   3.889  0.00  0.00    -0.379 OA
ATOM     27  H   UNL     1     -35.390  27.857   3.137  0.00  0.00    +0.211 HD
ENDBRANCH  18  26
ENDBRANCH   1  16
TORSDOF 8
ENDMDL
MODEL 6
REMARK VINA RESULT:      -5.5      2.428      4.748
REMARK  Name = 54547403
REMARK  8 active torsions:
REMARK  status: ('A' for Active; 'I' for Inactive)
REMARK    1  A    between atoms: O_1  and  C_3
REMARK    2  A    between atoms: O_1  and  C_16
REMARK    3  A    between atoms: C_4  and  O_9
REMARK    4  A    between atoms: C_5  and  O_11
REMARK    5  A    between atoms: C_6  and  O_13
REMARK    6  A    between atoms: C_17  and  O_22
REMARK    7  A    between atoms: C_18  and  O_26
REMARK    8  A    between atoms: C_19  and  O_24
REMARK                            x       y       z     vdW  Elec       q    Type
REMARK                         _______ _______ _______ _____ _____    ______ ____
ROOT
ATOM      1  O   UNL     1     -36.262  22.827   2.042  0.00  0.00    -0.323 OA
ENDROOT
BRANCH   1   3
ATOM      2  O   UNL     1     -34.426  21.979   0.800  0.00  0.00    -0.329 OA
ATOM      3  C   UNL     1     -35.202  21.878   2.000  0.00  0.00    +0.266 C 
ATOM      4  C   UNL     1     -35.765  20.467   2.161  0.00  0.00    +0.196 C 
ATOM      5  C   UNL     1     -36.547  20.046   0.916  0.00  0.00    +0.171 C 
ATOM      6  C   UNL     1     -35.711  20.244  -0.349  0.00  0.00    +0.167 C 
ATOM      7  C   UNL     1     -35.151  21.672  -0.395  0.00  0.00    +0.147 C 
ATOM      8  C   UNL     1     -34.191  21.874  -1.563  0.00  0.00    +0.035 C 
BRANCH   4   9
ATOM      9  O   UNL     1     -34.664  19.581   2.367  0.00  0.00    -0.378 OA
ATOM     10  H   UNL     1     -33.870  20.096   2.579  0.00  0.00    +0.211 HD
ENDBRANCH   4   9
BRANCH   5  11
ATOM     11  O   UNL     1     -36.924  18.675   1.020  0.00  0.00    -0.379 OA
ATOM     12  H   UNL     1     -36.756  18.361   1.922  0.00  0.00    +0.211 HD
ENDBRANCH   5  11
BRANCH   6  13
ATOM     13  O   UNL     1     -36.549  20.005  -1.478  0.00  0.00    -0.379 OA
ATOM     14  H   UNL     1     -36.030  20.101  -2.292  0.00  0.00    +0.211 HD
ENDBRANCH   6  13
ENDBRANCH   1   3
BRANCH   1  16
ATOM     15  O   UNL     1     -35.066  24.602   3.961  0.00  0.00    -0.329 OA
ATOM     16  C   UNL     1     -36.778  22.976   3.366  0.00  0.00    +0.203 C 
ATOM     17  C   UNL     1     -37.833  24.083   3.393  0.00  0.00    +0.172 C 
ATOM     18  C   UNL     1     -37.201  25.448   3.120  0.00  0.00    +0.167 C 
ATOM     19  C   UNL     1     -35.606  23.317   4.286  0.00  0.00    +0.266 C 
ATOM     20  C   UNL     1     -36.008  25.675   4.058  0.00  0.00    +0.147 C 
ATOM     21  C   UNL     1     -35.254  26.960   3.724  0.00  0.00    +0.035 C 
BRANCH  17  22
ATOM     22  O   UNL     1     -38.834  23.823   2.413  0.00  0.00    -0.379 OA
ATOM     23  H   UNL     1     -38.724  22.924   2.067  0.00  0.00    +0.211 HD
ENDBRANCH  17  22
BRANCH  19  24
ATOM     24  O   UNL     1     -36.021  23.228   5.645  0.00  0.00    -0.326 OA
ATOM     25  C   UNL     1     -35.441  22.104   6.293  0.00  0.00    +0.177 C 
ENDBRANCH  19  24
BRANCH  18  26
ATOM     26  O   UNL     1     -38.194  26.448   3.334  0.00  0.00    -0.379 OA
ATOM     27  H   UNL     1     -38.638  26.647   2.495  0.00  0.00    +0.211 HD
ENDBRANCH  18  26
ENDBRANCH   1  16
TORSDOF 8
ENDMDL
MODEL 7
REMARK VINA RESULT:      -5.4      2.213      6.093
REMARK  Name = 54547403
REMARK  8 active torsions:
REMARK  status: ('A' for Active; 'I' for Inactive)
REMARK    1  A    between atoms: O_1  and  C_3
REMARK    2  A    between atoms: O_1  and  C_16
REMARK    3  A    between atoms: C_4  and  O_9
REMARK    4  A    between atoms: C_5  and  O_11
REMARK    5  A    between atoms: C_6  and  O_13
REMARK    6  A    between atoms: C_17  and  O_22
REMARK    7  A    between atoms: C_18  and  O_26
REMARK    8  A    between atoms: C_19  and  O_24
REMARK                            x       y       z     vdW  Elec       q    Type
REMARK                         _______ _______ _______ _____ _____    ______ ____
ROOT
ATOM      1  O   UNL     1     -35.552  23.920   2.145  0.00  0.00    -0.323 OA
ENDROOT
BRANCH   1   3
ATOM      2  O   UNL     1     -34.401  25.984   1.925  0.00  0.00    -0.329 OA
ATOM      3  C   UNL     1     -35.672  25.324   1.940  0.00  0.00    +0.266 C 
ATOM      4  C   UNL     1     -36.579  25.926   3.011  0.00  0.00    +0.196 C 
ATOM      5  C   UNL     1     -35.893  25.916   4.377  0.00  0.00    +0.171 C 
ATOM      6  C   UNL     1     -34.508  26.559   4.300  0.00  0.00    +0.167 C 
ATOM      7  C   UNL     1     -33.692  25.922   3.166  0.00  0.00    +0.147 C 
ATOM      8  C   UNL     1     -32.357  26.629   2.954  0.00  0.00    +0.035 C 
BRANCH   4   9
ATOM      9  O   UNL     1     -36.874  27.269   2.625  0.00  0.00    -0.378 OA
ATOM     10  H   UNL     1     -36.137  27.847   2.875  0.00  0.00    +0.211 HD
ENDBRANCH   4   9
BRANCH   5  11
ATOM     11  O   UNL     1     -36.687  26.625   5.326  0.00  0.00    -0.379 OA
ATOM     12  H   UNL     1     -37.623  26.408   5.190  0.00  0.00    +0.211 HD
ENDBRANCH   5  11
BRANCH   6  13
ATOM     13  O   UNL     1     -33.854  26.359   5.551  0.00  0.00    -0.379 OA
ATOM     14  H   UNL     1     -33.846  27.192   6.048  0.00  0.00    +0.211 HD
ENDBRANCH   6  13
ENDBRANCH   1   3
BRANCH   1  16
ATOM     15  O   UNL     1     -34.678  21.718   0.516  0.00  0.00    -0.329 OA
ATOM     16  C   UNL     1     -36.449  23.191   1.306  0.00  0.00    +0.203 C 
ATOM     17  C   UNL     1     -37.064  22.028   2.086  0.00  0.00    +0.172 C 
ATOM     18  C   UNL     1     -36.003  20.984   2.437  0.00  0.00    +0.167 C 
ATOM     19  C   UNL     1     -35.653  22.682   0.105  0.00  0.00    +0.266 C 
ATOM     20  C   UNL     1     -35.228  20.574   1.178  0.00  0.00    +0.147 C 
ATOM     21  C   UNL     1     -34.063  19.643   1.500  0.00  0.00    +0.035 C 
BRANCH  17  22
ATOM     22  O   UNL     1     -37.663  22.511   3.286  0.00  0.00    -0.379 OA
ATOM     23  H   UNL     1     -37.574  23.475   3.327  0.00  0.00    +0.211 HD
ENDBRANCH  17  22
BRANCH  19  24
ATOM     24  O   UNL     1     -36.544  22.169  -0.879  0.00  0.00    -0.326 OA
ATOM     25  C   UNL     1     -37.361  23.195  -1.426  0.00  0.00    +0.177 C 
ENDBRANCH  19  24
BRANCH  18  26
ATOM     26  O   UNL     1     -36.664  19.853   3.000  0.00  0.00    -0.379 OA
ATOM     27  H   UNL     1     -36.179  19.554   3.785  0.00  0.00    +0.211 HD
ENDBRANCH  18  26
ENDBRANCH   1  16
TORSDOF 8
ENDMDL
MODEL 8
REMARK VINA RESULT:      -5.4      2.186      6.229
REMARK  Name = 54547403
REMARK  8 active torsions:
REMARK  status: ('A' for Active; 'I' for Inactive)
REMARK    1  A    between atoms: O_1  and  C_3
REMARK    2  A    between atoms: O_1  and  C_16
REMARK    3  A    between atoms: C_4  and  O_9
REMARK    4  A    between atoms: C_5  and  O_11
REMARK    5  A    between atoms: C_6  and  O_13
REMARK    6  A    between atoms: C_17  and  O_22
REMARK    7  A    between atoms: C_18  and  O_26
REMARK    8  A    between atoms: C_19  and  O_24
REMARK                            x       y       z     vdW  Elec       q    Type
REMARK                         _______ _______ _______ _____ _____    ______ ____
ROOT
ATOM      1  O   UNL     1     -36.105  23.424   2.772  0.00  0.00    -0.323 OA
ENDROOT
BRANCH   1   3
ATOM      2  O   UNL     1     -36.055  25.543   1.705  0.00  0.00    -0.329 OA
ATOM      3  C   UNL     1     -36.825  24.616   2.480  0.00  0.00    +0.266 C 
ATOM      4  C   UNL     1     -37.300  25.264   3.779  0.00  0.00    +0.196 C 
ATOM      5  C   UNL     1     -36.122  25.850   4.559  0.00  0.00    +0.171 C 
ATOM      6  C   UNL     1     -35.282  26.771   3.674  0.00  0.00    +0.167 C 
ATOM      7  C   UNL     1     -34.897  26.049   2.376  0.00  0.00    +0.147 C 
ATOM      8  C   UNL     1     -34.182  26.974   1.396  0.00  0.00    +0.035 C 
BRANCH   4   9
ATOM      9  O   UNL     1     -38.220  26.301   3.436  0.00  0.00    -0.378 OA
ATOM     10  H   UNL     1     -37.731  27.109   3.217  0.00  0.00    +0.211 HD
ENDBRANCH   4   9
BRANCH   5  11
ATOM     11  O   UNL     1     -36.602  26.587   5.682  0.00  0.00    -0.379 OA
ATOM     12  H   UNL     1     -35.867  27.074   6.086  0.00  0.00    +0.211 HD
ENDBRANCH   5  11
BRANCH   6  13
ATOM     13  O   UNL     1     -34.112  27.140   4.400  0.00  0.00    -0.379 OA
ATOM     14  H   UNL     1     -34.355  27.367   5.311  0.00  0.00    +0.211 HD
ENDBRANCH   6  13
ENDBRANCH   1   3
BRANCH   1  16
ATOM     15  O   UNL     1     -36.290  22.000   0.281  0.00  0.00    -0.329 OA
ATOM     16  C   UNL     1     -36.927  22.266   2.616  0.00  0.00    +0.203 C 
ATOM     17  C   UNL     1     -36.130  21.010   2.972  0.00  0.00    +0.172 C 
ATOM     18  C   UNL     1     -35.008  20.768   1.961  0.00  0.00    +0.167 C 
ATOM     19  C   UNL     1     -37.396  22.220   1.163  0.00  0.00    +0.266 C 
ATOM     20  C   UNL     1     -35.570  20.788   0.534  0.00  0.00    +0.147 C 
ATOM     21  C   UNL     1     -34.468  20.698  -0.517  0.00  0.00    +0.035 C 
BRANCH  17  22
ATOM     22  O   UNL     1     -35.568  21.144   4.275  0.00  0.00    -0.379 OA
ATOM     23  H   UNL     1     -34.662  21.482   4.204  0.00  0.00    +0.211 HD
ENDBRANCH  17  22
BRANCH  19  24
ATOM     24  O   UNL     1     -38.412  21.234   1.017  0.00  0.00    -0.326 OA
ATOM     25  C   UNL     1     -39.585  21.588   1.736  0.00  0.00    +0.177 C 
ENDBRANCH  19  24
BRANCH  18  26
ATOM     26  O   UNL     1     -34.423  19.499   2.243  0.00  0.00    -0.379 OA
ATOM     27  H   UNL     1     -34.398  19.361   3.203  0.00  0.00    +0.211 HD
ENDBRANCH  18  26
ENDBRANCH   1  16
TORSDOF 8
ENDMDL
MODEL 9
REMARK VINA RESULT:      -5.3      1.764      2.728
REMARK  Name = 54547403
REMARK  8 active torsions:
REMARK  status: ('A' for Active; 'I' for Inactive)
REMARK    1  A    between atoms: O_1  and  C_3
REMARK    2  A    between atoms: O_1  and  C_16
REMARK    3  A    between atoms: C_4  and  O_9
REMARK    4  A    between atoms: C_5  and  O_11
REMARK    5  A    between atoms: C_6  and  O_13
REMARK    6  A    between atoms: C_17  and  O_22
REMARK    7  A    between atoms: C_18  and  O_26
REMARK    8  A    between atoms: C_19  and  O_24
REMARK                            x       y       z     vdW  Elec       q    Type
REMARK                         _______ _______ _______ _____ _____    ______ ____
ROOT
ATOM      1  O   UNL     1     -33.477  25.639   4.080  0.00  0.00    -0.323 OA
ENDROOT
BRANCH   1   3
ATOM      2  O   UNL     1     -34.564  24.608   5.921  0.00  0.00    -0.329 OA
ATOM      3  C   UNL     1     -34.440  25.787   5.118  0.00  0.00    +0.266 C 
ATOM      4  C   UNL     1     -35.790  26.174   4.517  0.00  0.00    +0.196 C 
ATOM      5  C   UNL     1     -36.404  25.002   3.752  0.00  0.00    +0.171 C 
ATOM      6  C   UNL     1     -36.445  23.743   4.619  0.00  0.00    +0.167 C 
ATOM      7  C   UNL     1     -35.058  23.466   5.214  0.00  0.00    +0.147 C 
ATOM      8  C   UNL     1     -35.081  22.305   6.203  0.00  0.00    +0.035 C 
BRANCH   4   9
ATOM      9  O   UNL     1     -36.649  26.557   5.592  0.00  0.00    -0.378 OA
ATOM     10  H   UNL     1     -37.477  26.912   5.233  0.00  0.00    +0.211 HD
ENDBRANCH   4   9
BRANCH   5  11
ATOM     11  O   UNL     1     -37.728  25.331   3.339  0.00  0.00    -0.379 OA
ATOM     12  H   UNL     1     -38.078  26.035   3.907  0.00  0.00    +0.211 HD
ENDBRANCH   5  11
BRANCH   6  13
ATOM     13  O   UNL     1     -36.858  22.651   3.799  0.00  0.00    -0.379 OA
ATOM     14  H   UNL     1     -36.890  22.938   2.872  0.00  0.00    +0.211 HD
ENDBRANCH   6  13
ENDBRANCH   1   3
BRANCH   1  16
ATOM     15  O   UNL     1     -31.311  27.493   3.710  0.00  0.00    -0.329 OA
ATOM     16  C   UNL     1     -33.548  26.715   3.143  0.00  0.00    +0.203 C 
ATOM     17  C   UNL     1     -33.037  26.252   1.778  0.00  0.00    +0.172 C 
ATOM     18  C   UNL     1     -31.540  25.945   1.829  0.00  0.00    +0.167 C 
ATOM     19  C   UNL     1     -32.694  27.861   3.685  0.00  0.00    +0.266 C 
ATOM     20  C   UNL     1     -30.777  27.133   2.431  0.00  0.00    +0.147 C 
ATOM     21  C   UNL     1     -29.299  26.819   2.638  0.00  0.00    +0.035 C 
BRANCH  17  22
ATOM     22  O   UNL     1     -33.743  25.084   1.366  0.00  0.00    -0.379 OA
ATOM     23  H   UNL     1     -34.405  24.853   2.035  0.00  0.00    +0.211 HD
ENDBRANCH  17  22
BRANCH  19  24
ATOM     24  O   UNL     1     -32.931  29.038   2.922  0.00  0.00    -0.326 OA
ATOM     25  C   UNL     1     -34.312  29.369   2.892  0.00  0.00    +0.177 C 
ENDBRANCH  19  24
BRANCH  18  26
ATOM     26  O   UNL     1     -31.093  25.694   0.499  0.00  0.00    -0.379 OA
ATOM     27  H   UNL     1     -30.366  26.299   0.284  0.00  0.00    +0.211 HD
ENDBRANCH  18  26
ENDBRANCH   1  16
TORSDOF 8
ENDMDL
