MODEL 1
REMARK VINA RESULT:      -5.3      0.000      0.000
REMARK  Name = 5859
REMARK  6 active torsions:
REMARK  status: ('A' for Active; 'I' for Inactive)
REMARK    1  A    between atoms: C_1  and  S_7
REMARK    2  A    between atoms: C_4  and  O_13
REMARK    3  A    between atoms: S_7  and  N_10
REMARK    4  A    between atoms: O_13  and  P_15
REMARK    5  A    between atoms: P_15  and  O_16
REMARK    6  A    between atoms: P_15  and  O_18
REMARK                            x       y       z     vdW  Elec       q    Type
REMARK                         _______ _______ _______ _____ _____    ______ ____
ROOT
ATOM      1  C   UNL     1     -34.973  24.421   4.416  0.00  0.00    +0.122 C 
ATOM      2  C   UNL     1     -34.308  24.931   3.301  0.00  0.00    +0.023 C 
ATOM      3  C   UNL     1     -34.918  25.103   5.632  0.00  0.00    +0.023 C 
ATOM      4  C   UNL     1     -33.536  26.796   4.617  0.00  0.00    +0.147 C 
ATOM      5  C   UNL     1     -33.587  26.121   3.402  0.00  0.00    +0.039 C 
ATOM      6  C   UNL     1     -34.199  26.293   5.733  0.00  0.00    +0.039 C 
ENDROOT
BRANCH   1   7
ATOM      7  S   UNL     1     -35.873  22.930   4.291  0.00  0.00    +0.063 S 
ATOM      8  O   UNL     1     -35.233  22.094   3.280  0.00  0.00    -0.153 OA
ATOM      9  O   UNL     1     -36.044  22.388   5.634  0.00  0.00    -0.153 OA
BRANCH   7  10
ATOM     10  N   UNL     1     -37.415  23.442   3.695  0.00  0.00    -0.153 NA
ATOM     11  C   UNL     1     -37.683  24.901   3.644  0.00  0.00    +0.115 C 
ATOM     12  C   UNL     1     -37.960  22.735   2.507  0.00  0.00    +0.115 C 
ENDBRANCH   7  10
ENDBRANCH   1   7
BRANCH   4  13
ATOM     13  O   UNL     1     -32.830  27.964   4.717  0.00  0.00    -0.425 OA
BRANCH  13  15
ATOM     14  S   UNL     1     -31.687  29.274   2.211  0.00  0.00    +0.036 S 
ATOM     15  P   UNL     1     -32.926  29.237   3.717  0.00  0.00    +0.363 P 
BRANCH  15  16
ATOM     16  O   UNL     1     -32.801  30.471   4.771  0.00  0.00    -0.286 OA
ATOM     17  C   UNL     1     -31.914  30.372   5.872  0.00  0.00    +0.185 C 
ENDBRANCH  15  16
BRANCH  15  18
ATOM     18  O   UNL     1     -34.517  29.282   3.377  0.00  0.00    -0.286 OA
ATOM     19  C   UNL     1     -35.106  30.488   2.923  0.00  0.00    +0.185 C 
ENDBRANCH  15  18
ENDBRANCH  13  15
ENDBRANCH   4  13
TORSDOF 6
ENDMDL
MODEL 2
REMARK VINA RESULT:      -5.2      1.343      1.961
REMARK  Name = 5859
REMARK  6 active torsions:
REMARK  status: ('A' for Active; 'I' for Inactive)
REMARK    1  A    between atoms: C_1  and  S_7
REMARK    2  A    between atoms: C_4  and  O_13
REMARK    3  A    between atoms: S_7  and  N_10
REMARK    4  A    between atoms: O_13  and  P_15
REMARK    5  A    between atoms: P_15  and  O_16
REMARK    6  A    between atoms: P_15  and  O_18
REMARK                            x       y       z     vdW  Elec       q    Type
REMARK                         _______ _______ _______ _____ _____    ______ ____
ROOT
ATOM      1  C   UNL     1     -35.054  24.877   4.412  0.00  0.00    +0.122 C 
ATOM      2  C   UNL     1     -34.751  25.529   5.607  0.00  0.00    +0.023 C 
ATOM      3  C   UNL     1     -34.343  25.181   3.251  0.00  0.00    +0.023 C 
ATOM      4  C   UNL     1     -33.031  26.786   4.480  0.00  0.00    +0.147 C 
ATOM      5  C   UNL     1     -33.736  26.487   5.641  0.00  0.00    +0.039 C 
ATOM      6  C   UNL     1     -33.328  26.138   3.285  0.00  0.00    +0.039 C 
ENDROOT
BRANCH   1   7
ATOM      7  S   UNL     1     -36.325  23.681   4.368  0.00  0.00    +0.063 S 
ATOM      8  O   UNL     1     -36.178  22.816   5.535  0.00  0.00    -0.153 OA
ATOM      9  O   UNL     1     -37.595  24.372   4.172  0.00  0.00    -0.153 OA
BRANCH   7  10
ATOM     10  N   UNL     1     -35.964  22.764   2.946  0.00  0.00    -0.153 NA
ATOM     11  C   UNL     1     -35.531  21.356   3.127  0.00  0.00    +0.115 C 
ATOM     12  C   UNL     1     -36.872  22.922   1.780  0.00  0.00    +0.115 C 
ENDBRANCH   7  10
ENDBRANCH   1   7
BRANCH   4  13
ATOM     13  O   UNL     1     -32.036  27.725   4.513  0.00  0.00    -0.425 OA
BRANCH  13  15
ATOM     14  S   UNL     1     -30.825  30.211   3.228  0.00  0.00    +0.036 S 
ATOM     15  P   UNL     1     -32.207  29.320   4.276  0.00  0.00    +0.363 P 
BRANCH  15  16
ATOM     16  O   UNL     1     -32.388  29.844   5.807  0.00  0.00    -0.286 OA
ATOM     17  C   UNL     1     -31.478  29.423   6.810  0.00  0.00    +0.185 C 
ENDBRANCH  15  16
BRANCH  15  18
ATOM     18  O   UNL     1     -33.738  29.420   3.733  0.00  0.00    -0.286 OA
ATOM     19  C   UNL     1     -33.984  29.775   2.383  0.00  0.00    +0.185 C 
ENDBRANCH  15  18
ENDBRANCH  13  15
ENDBRANCH   4  13
TORSDOF 6
ENDMDL
MODEL 3
REMARK VINA RESULT:      -5.2      3.199      6.794
REMARK  Name = 5859
REMARK  6 active torsions:
REMARK  status: ('A' for Active; 'I' for Inactive)
REMARK    1  A    between atoms: C_1  and  S_7
REMARK    2  A    between atoms: C_4  and  O_13
REMARK    3  A    between atoms: S_7  and  N_10
REMARK    4  A    between atoms: O_13  and  P_15
REMARK    5  A    between atoms: P_15  and  O_16
REMARK    6  A    between atoms: P_15  and  O_18
REMARK                            x       y       z     vdW  Elec       q    Type
REMARK                         _______ _______ _______ _____ _____    ______ ____
ROOT
ATOM      1  C   UNL     1     -33.105  27.460   5.066  0.00  0.00    +0.122 C 
ATOM      2  C   UNL     1     -33.551  26.563   6.036  0.00  0.00    +0.023 C 
ATOM      3  C   UNL     1     -33.776  27.558   3.846  0.00  0.00    +0.023 C 
ATOM      4  C   UNL     1     -35.331  25.866   4.569  0.00  0.00    +0.147 C 
ATOM      5  C   UNL     1     -34.667  25.763   5.787  0.00  0.00    +0.039 C 
ATOM      6  C   UNL     1     -34.892  26.759   3.597  0.00  0.00    +0.039 C 
ENDROOT
BRANCH   1   7
ATOM      7  S   UNL     1     -31.708  28.460   5.376  0.00  0.00    +0.063 S 
ATOM      8  O   UNL     1     -32.170  29.740   5.902  0.00  0.00    -0.153 OA
ATOM      9  O   UNL     1     -30.760  27.684   6.169  0.00  0.00    -0.153 OA
BRANCH   7  10
ATOM     10  N   UNL     1     -31.039  28.713   3.800  0.00  0.00    -0.153 NA
ATOM     11  C   UNL     1     -31.029  30.101   3.273  0.00  0.00    +0.115 C 
ATOM     12  C   UNL     1     -29.793  27.979   3.458  0.00  0.00    +0.115 C 
ENDBRANCH   7  10
ENDBRANCH   1   7
BRANCH   4  13
ATOM     13  O   UNL     1     -36.425  25.081   4.325  0.00  0.00    -0.425 OA
BRANCH  13  15
ATOM     14  S   UNL     1     -35.105  23.136   2.384  0.00  0.00    +0.036 S 
ATOM     15  P   UNL     1     -36.415  23.560   3.765  0.00  0.00    +0.363 P 
BRANCH  15  16
ATOM     16  O   UNL     1     -37.977  23.371   3.344  0.00  0.00    -0.286 OA
ATOM     17  C   UNL     1     -38.760  24.505   3.011  0.00  0.00    +0.185 C 
ENDBRANCH  15  16
BRANCH  15  18
ATOM     18  O   UNL     1     -36.359  22.692   5.139  0.00  0.00    -0.286 OA
ATOM     19  C   UNL     1     -35.141  22.087   5.542  0.00  0.00    +0.185 C 
ENDBRANCH  15  18
ENDBRANCH  13  15
ENDBRANCH   4  13
TORSDOF 6
ENDMDL
MODEL 4
REMARK VINA RESULT:      -5.1      3.081      6.838
REMARK  Name = 5859
REMARK  6 active torsions:
REMARK  status: ('A' for Active; 'I' for Inactive)
REMARK    1  A    between atoms: C_1  and  S_7
REMARK    2  A    between atoms: C_4  and  O_13
REMARK    3  A    between atoms: S_7  and  N_10
REMARK    4  A    between atoms: O_13  and  P_15
REMARK    5  A    between atoms: P_15  and  O_16
REMARK    6  A    between atoms: P_15  and  O_18
REMARK                            x       y       z     vdW  Elec       q    Type
REMARK                         _______ _______ _______ _____ _____    ______ ____
ROOT
ATOM      1  C   UNL     1     -33.128  27.333   4.626  0.00  0.00    +0.122 C 
ATOM      2  C   UNL     1     -33.534  26.541   5.698  0.00  0.00    +0.023 C 
ATOM      3  C   UNL     1     -33.839  27.301   3.425  0.00  0.00    +0.023 C 
ATOM      4  C   UNL     1     -35.357  25.687   4.372  0.00  0.00    +0.147 C 
ATOM      5  C   UNL     1     -34.652  25.715   5.572  0.00  0.00    +0.039 C 
ATOM      6  C   UNL     1     -34.957  26.477   3.299  0.00  0.00    +0.039 C 
ENDROOT
BRANCH   1   7
ATOM      7  S   UNL     1     -31.728  28.365   4.783  0.00  0.00    +0.063 S 
ATOM      8  O   UNL     1     -30.974  27.936   5.957  0.00  0.00    -0.153 OA
ATOM      9  O   UNL     1     -31.044  28.404   3.495  0.00  0.00    -0.153 OA
BRANCH   7  10
ATOM     10  N   UNL     1     -32.412  29.923   5.099  0.00  0.00    -0.153 NA
ATOM     11  C   UNL     1     -31.919  30.662   6.288  0.00  0.00    +0.115 C 
ATOM     12  C   UNL     1     -32.632  30.823   3.937  0.00  0.00    +0.115 C 
ENDBRANCH   7  10
ENDBRANCH   1   7
BRANCH   4  13
ATOM     13  O   UNL     1     -36.453  24.878   4.247  0.00  0.00    -0.425 OA
BRANCH  13  15
ATOM     14  S   UNL     1     -35.181  22.908   2.298  0.00  0.00    +0.036 S 
ATOM     15  P   UNL     1     -36.467  23.353   3.695  0.00  0.00    +0.363 P 
BRANCH  15  16
ATOM     16  O   UNL     1     -38.037  23.180   3.298  0.00  0.00    -0.286 OA
ATOM     17  C   UNL     1     -38.792  24.310   2.895  0.00  0.00    +0.185 C 
ENDBRANCH  15  16
BRANCH  15  18
ATOM     18  O   UNL     1     -36.401  22.492   5.074  0.00  0.00    -0.286 OA
ATOM     19  C   UNL     1     -35.148  22.050   5.569  0.00  0.00    +0.185 C 
ENDBRANCH  15  18
ENDBRANCH  13  15
ENDBRANCH   4  13
TORSDOF 6
ENDMDL
MODEL 5
REMARK VINA RESULT:      -5.1      4.898      6.751
REMARK  Name = 5859
REMARK  6 active torsions:
REMARK  status: ('A' for Active; 'I' for Inactive)
REMARK    1  A    between atoms: C_1  and  S_7
REMARK    2  A    between atoms: C_4  and  O_13
REMARK    3  A    between atoms: S_7  and  N_10
REMARK    4  A    between atoms: O_13  and  P_15
REMARK    5  A    between atoms: P_15  and  O_16
REMARK    6  A    between atoms: P_15  and  O_18
REMARK                            x       y       z     vdW  Elec       q    Type
REMARK                         _______ _______ _______ _____ _____    ______ ____
ROOT
ATOM      1  C   UNL     1     -33.880  20.538   0.814  0.00  0.00    +0.122 C 
ATOM      2  C   UNL     1     -34.550  19.974   1.898  0.00  0.00    +0.023 C 
ATOM      3  C   UNL     1     -34.059  21.888   0.509  0.00  0.00    +0.023 C 
ATOM      4  C   UNL     1     -35.576  22.103   2.368  0.00  0.00    +0.147 C 
ATOM      5  C   UNL     1     -35.402  20.758   2.677  0.00  0.00    +0.039 C 
ATOM      6  C   UNL     1     -34.908  22.673   1.288  0.00  0.00    +0.039 C 
ENDROOT
BRANCH   1   7
ATOM      7  S   UNL     1     -32.816  19.557  -0.163  0.00  0.00    +0.063 S 
ATOM      8  O   UNL     1     -32.947  19.986  -1.552  0.00  0.00    -0.153 OA
ATOM      9  O   UNL     1     -31.491  19.575   0.447  0.00  0.00    -0.153 OA
BRANCH   7  10
ATOM     10  N   UNL     1     -33.481  17.967  -0.006  0.00  0.00    -0.153 NA
ATOM     11  C   UNL     1     -34.525  17.559  -0.979  0.00  0.00    +0.115 C 
ATOM     12  C   UNL     1     -32.540  16.858   0.298  0.00  0.00    +0.115 C 
ENDBRANCH   7  10
ENDBRANCH   1   7
BRANCH   4  13
ATOM     13  O   UNL     1     -36.410  22.873   3.132  0.00  0.00    -0.425 OA
BRANCH  13  15
ATOM     14  S   UNL     1     -34.220  24.591   4.377  0.00  0.00    +0.036 S 
ATOM     15  P   UNL     1     -35.988  23.769   4.416  0.00  0.00    +0.363 P 
BRANCH  15  16
ATOM     16  O   UNL     1     -36.257  22.719   5.631  0.00  0.00    -0.286 OA
ATOM     17  C   UNL     1     -35.164  22.076   6.264  0.00  0.00    +0.185 C 
ENDBRANCH  15  16
BRANCH  15  18
ATOM     18  O   UNL     1     -37.269  24.760   4.575  0.00  0.00    -0.286 OA
ATOM     19  C   UNL     1     -38.023  25.125   3.432  0.00  0.00    +0.185 C 
ENDBRANCH  15  18
ENDBRANCH  13  15
ENDBRANCH   4  13
TORSDOF 6
ENDMDL
MODEL 6
REMARK VINA RESULT:      -5.1      3.458      7.117
REMARK  Name = 5859
REMARK  6 active torsions:
REMARK  status: ('A' for Active; 'I' for Inactive)
REMARK    1  A    between atoms: C_1  and  S_7
REMARK    2  A    between atoms: C_4  and  O_13
REMARK    3  A    between atoms: S_7  and  N_10
REMARK    4  A    between atoms: O_13  and  P_15
REMARK    5  A    between atoms: P_15  and  O_16
REMARK    6  A    between atoms: P_15  and  O_18
REMARK                            x       y       z     vdW  Elec       q    Type
REMARK                         _______ _______ _______ _____ _____    ______ ____
ROOT
ATOM      1  C   UNL     1     -32.224  27.976   5.486  0.00  0.00    +0.122 C 
ATOM      2  C   UNL     1     -32.719  27.174   6.514  0.00  0.00    +0.023 C 
ATOM      3  C   UNL     1     -32.812  27.931   4.221  0.00  0.00    +0.023 C 
ATOM      4  C   UNL     1     -34.384  26.286   5.015  0.00  0.00    +0.147 C 
ATOM      5  C   UNL     1     -33.803  26.326   6.278  0.00  0.00    +0.039 C 
ATOM      6  C   UNL     1     -33.895  27.084   3.985  0.00  0.00    +0.039 C 
ENDROOT
BRANCH   1   7
ATOM      7  S   UNL     1     -30.868  29.035   5.780  0.00  0.00    +0.063 S 
ATOM      8  O   UNL     1     -30.802  30.005   4.693  0.00  0.00    -0.153 OA
ATOM      9  O   UNL     1     -30.966  29.531   7.149  0.00  0.00    -0.153 OA
BRANCH   7  10
ATOM     10  N   UNL     1     -29.502  27.978   5.668  0.00  0.00    -0.153 NA
ATOM     11  C   UNL     1     -28.791  27.910   4.366  0.00  0.00    +0.115 C 
ATOM     12  C   UNL     1     -28.561  27.949   6.817  0.00  0.00    +0.115 C 
ENDBRANCH   7  10
ENDBRANCH   1   7
BRANCH   4  13
ATOM     13  O   UNL     1     -35.446  25.455   4.782  0.00  0.00    -0.425 OA
BRANCH  13  15
ATOM     14  S   UNL     1     -34.702  24.129   2.139  0.00  0.00    +0.036 S 
ATOM     15  P   UNL     1     -35.417  24.062   3.953  0.00  0.00    +0.363 P 
BRANCH  15  16
ATOM     16  O   UNL     1     -36.968  23.586   4.088  0.00  0.00    -0.286 OA
ATOM     17  C   UNL     1     -37.617  22.975   2.986  0.00  0.00    +0.185 C 
ENDBRANCH  15  16
BRANCH  15  18
ATOM     18  O   UNL     1     -34.692  23.055   5.005  0.00  0.00    -0.286 OA
ATOM     19  C   UNL     1     -35.433  22.509   6.082  0.00  0.00    +0.185 C 
ENDBRANCH  15  18
ENDBRANCH  13  15
ENDBRANCH   4  13
TORSDOF 6
ENDMDL
MODEL 7
REMARK VINA RESULT:      -5.1      3.114      6.841
REMARK  Name = 5859
REMARK  6 active torsions:
REMARK  status: ('A' for Active; 'I' for Inactive)
REMARK    1  A    between atoms: C_1  and  S_7
REMARK    2  A    between atoms: C_4  and  O_13
REMARK    3  A    between atoms: S_7  and  N_10
REMARK    4  A    between atoms: O_13  and  P_15
REMARK    5  A    between atoms: P_15  and  O_16
REMARK    6  A    between atoms: P_15  and  O_18
REMARK                            x       y       z     vdW  Elec       q    Type
REMARK                         _______ _______ _______ _____ _____    ______ ____
ROOT
ATOM      1  C   UNL     1     -32.844  27.411   4.188  0.00  0.00    +0.122 C 
ATOM      2  C   UNL     1     -32.872  26.773   2.949  0.00  0.00    +0.023 C 
ATOM      3  C   UNL     1     -33.434  26.805   5.298  0.00  0.00    +0.023 C 
ATOM      4  C   UNL     1     -34.078  24.931   3.928  0.00  0.00    +0.147 C 
ATOM      5  C   UNL     1     -33.491  25.529   2.818  0.00  0.00    +0.039 C 
ATOM      6  C   UNL     1     -34.052  25.561   5.168  0.00  0.00    +0.039 C 
ENDROOT
BRANCH   1   7
ATOM      7  S   UNL     1     -32.072  28.968   4.352  0.00  0.00    +0.063 S 
ATOM      8  O   UNL     1     -31.167  29.151   3.222  0.00  0.00    -0.153 OA
ATOM      9  O   UNL     1     -33.109  29.969   4.580  0.00  0.00    -0.153 OA
BRANCH   7  10
ATOM     10  N   UNL     1     -31.134  28.801   5.796  0.00  0.00    -0.153 NA
ATOM     11  C   UNL     1     -29.657  28.742   5.653  0.00  0.00    +0.115 C 
ATOM     12  C   UNL     1     -31.546  29.599   6.979  0.00  0.00    +0.115 C 
ENDBRANCH   7  10
ENDBRANCH   1   7
BRANCH   4  13
ATOM     13  O   UNL     1     -34.685  23.711   3.800  0.00  0.00    -0.425 OA
BRANCH  13  15
ATOM     14  S   UNL     1     -37.496  24.873   3.592  0.00  0.00    +0.036 S 
ATOM     15  P   UNL     1     -36.269  23.401   3.956  0.00  0.00    +0.363 P 
BRANCH  15  16
ATOM     16  O   UNL     1     -36.320  22.790   5.464  0.00  0.00    -0.286 OA
ATOM     17  C   UNL     1     -35.201  22.088   5.980  0.00  0.00    +0.185 C 
ENDBRANCH  15  16
BRANCH  15  18
ATOM     18  O   UNL     1     -36.440  22.049   3.068  0.00  0.00    -0.286 OA
ATOM     19  C   UNL     1     -35.338  21.545   2.333  0.00  0.00    +0.185 C 
ENDBRANCH  15  18
ENDBRANCH  13  15
ENDBRANCH   4  13
TORSDOF 6
ENDMDL
MODEL 8
REMARK VINA RESULT:      -5.0      1.775      2.519
REMARK  Name = 5859
REMARK  6 active torsions:
REMARK  status: ('A' for Active; 'I' for Inactive)
REMARK    1  A    between atoms: C_1  and  S_7
REMARK    2  A    between atoms: C_4  and  O_13
REMARK    3  A    between atoms: S_7  and  N_10
REMARK    4  A    between atoms: O_13  and  P_15
REMARK    5  A    between atoms: P_15  and  O_16
REMARK    6  A    between atoms: P_15  and  O_18
REMARK                            x       y       z     vdW  Elec       q    Type
REMARK                         _______ _______ _______ _____ _____    ______ ____
ROOT
ATOM      1  C   UNL     1     -35.066  24.829   4.385  0.00  0.00    +0.122 C 
ATOM      2  C   UNL     1     -34.790  25.517   5.567  0.00  0.00    +0.023 C 
ATOM      3  C   UNL     1     -34.319  25.089   3.236  0.00  0.00    +0.023 C 
ATOM      4  C   UNL     1     -33.027  26.721   4.449  0.00  0.00    +0.147 C 
ATOM      5  C   UNL     1     -33.767  26.466   5.599  0.00  0.00    +0.039 C 
ATOM      6  C   UNL     1     -33.297  26.037   3.268  0.00  0.00    +0.039 C 
ENDROOT
BRANCH   1   7
ATOM      7  S   UNL     1     -36.347  23.643   4.344  0.00  0.00    +0.063 S 
ATOM      8  O   UNL     1     -36.188  22.759   5.494  0.00  0.00    -0.153 OA
ATOM      9  O   UNL     1     -37.614  24.347   4.180  0.00  0.00    -0.153 OA
BRANCH   7  10
ATOM     10  N   UNL     1     -36.017  22.747   2.902  0.00  0.00    -0.153 NA
ATOM     11  C   UNL     1     -35.552  21.345   3.055  0.00  0.00    +0.115 C 
ATOM     12  C   UNL     1     -36.966  22.897   1.768  0.00  0.00    +0.115 C 
ENDBRANCH   7  10
ENDBRANCH   1   7
BRANCH   4  13
ATOM     13  O   UNL     1     -32.024  27.651   4.480  0.00  0.00    -0.425 OA
BRANCH  13  15
ATOM     14  S   UNL     1     -33.429  29.807   2.843  0.00  0.00    +0.036 S 
ATOM     15  P   UNL     1     -32.181  29.246   4.234  0.00  0.00    +0.363 P 
BRANCH  15  16
ATOM     16  O   UNL     1     -30.627  29.682   4.012  0.00  0.00    -0.286 OA
ATOM     17  C   UNL     1     -30.323  30.952   3.461  0.00  0.00    +0.185 C 
ENDBRANCH  15  16
BRANCH  15  18
ATOM     18  O   UNL     1     -32.445  29.799   5.741  0.00  0.00    -0.286 OA
ATOM     19  C   UNL     1     -31.547  29.458   6.783  0.00  0.00    +0.185 C 
ENDBRANCH  15  18
ENDBRANCH  13  15
ENDBRANCH   4  13
TORSDOF 6
ENDMDL
MODEL 9
REMARK VINA RESULT:      -5.0      1.882      2.034
REMARK  Name = 5859
REMARK  6 active torsions:
REMARK  status: ('A' for Active; 'I' for Inactive)
REMARK    1  A    between atoms: C_1  and  S_7
REMARK    2  A    between atoms: C_4  and  O_13
REMARK    3  A    between atoms: S_7  and  N_10
REMARK    4  A    between atoms: O_13  and  P_15
REMARK    5  A    between atoms: P_15  and  O_16
REMARK    6  A    between atoms: P_15  and  O_18
REMARK                            x       y       z     vdW  Elec       q    Type
REMARK                         _______ _______ _______ _____ _____    ______ ____
ROOT
ATOM      1  C   UNL     1     -36.070  24.803   3.819  0.00  0.00    +0.122 C 
ATOM      2  C   UNL     1     -34.905  24.886   3.056  0.00  0.00    +0.023 C 
ATOM      3  C   UNL     1     -36.126  25.408   5.075  0.00  0.00    +0.023 C 
ATOM      4  C   UNL     1     -33.858  26.176   4.802  0.00  0.00    +0.147 C 
ATOM      5  C   UNL     1     -33.796  25.574   3.549  0.00  0.00    +0.039 C 
ATOM      6  C   UNL     1     -35.018  26.097   5.567  0.00  0.00    +0.039 C 
ENDROOT
BRANCH   1   7
ATOM      7  S   UNL     1     -37.457  23.940   3.204  0.00  0.00    +0.063 S 
ATOM      8  O   UNL     1     -37.244  22.514   3.428  0.00  0.00    -0.153 OA
ATOM      9  O   UNL     1     -38.659  24.557   3.755  0.00  0.00    -0.153 OA
BRANCH   7  10
ATOM     10  N   UNL     1     -37.401  24.251   1.503  0.00  0.00    -0.153 NA
ATOM     11  C   UNL     1     -37.627  23.105   0.586  0.00  0.00    +0.115 C 
ATOM     12  C   UNL     1     -38.053  25.492   1.011  0.00  0.00    +0.115 C 
ENDBRANCH   7  10
ENDBRANCH   1   7
BRANCH   4  13
ATOM     13  O   UNL     1     -32.771  26.851   5.286  0.00  0.00    -0.425 OA
BRANCH  13  15
ATOM     14  S   UNL     1     -30.555  28.346   3.819  0.00  0.00    +0.036 S 
ATOM     15  P   UNL     1     -32.242  28.304   4.796  0.00  0.00    +0.363 P 
BRANCH  15  16
ATOM     16  O   UNL     1     -32.274  29.135   6.196  0.00  0.00    -0.286 OA
ATOM     17  C   UNL     1     -31.059  29.484   6.837  0.00  0.00    +0.185 C 
ENDBRANCH  15  16
BRANCH  15  18
ATOM     18  O   UNL     1     -33.554  28.908   4.049  0.00  0.00    -0.286 OA
ATOM     19  C   UNL     1     -33.483  29.264   2.678  0.00  0.00    +0.185 C 
ENDBRANCH  15  18
ENDBRANCH  13  15
ENDBRANCH   4  13
TORSDOF 6
ENDMDL
