MODEL 1
REMARK VINA RESULT:      -6.4      0.000      0.000
REMARK  Name = 5284194
REMARK  11 active torsions:
REMARK  status: ('A' for Active; 'I' for Inactive)
REMARK    1  A    between atoms: C_6  and  C_26
REMARK    2  A    between atoms: C_7  and  O_20
REMARK    3  A    between atoms: C_11  and  O_22
REMARK    4  A    between atoms: C_19  and  O_24
REMARK    5  A    between atoms: C_26  and  C_28
REMARK    6  A    between atoms: C_28  and  C_29
REMARK    7  A    between atoms: C_29  and  C_30
REMARK    8  A    between atoms: C_30  and  C_31
REMARK    9  A    between atoms: C_31  and  O_33
REMARK   10  A    between atoms: C_31  and  C_35
REMARK   11  A    between atoms: C_35  and  O_36
REMARK                            x       y       z     vdW  Elec       q    Type
REMARK                         _______ _______ _______ _____ _____    ______ ____
ROOT
ATOM      1  C   UNL     1     -33.365  26.818   3.601  0.00  0.00    +0.025 C 
ATOM      2  C   UNL     1     -33.871  25.650   4.480  0.00  0.00    +0.005 C 
ATOM      3  C   UNL     1     -35.045  24.885   3.847  0.00  0.00    +0.027 C 
ATOM      4  C   UNL     1     -34.589  24.306   2.466  0.00  0.00    +0.005 C 
ATOM      5  C   UNL     1     -35.749  23.506   1.757  0.00  0.00    +0.000 C 
ATOM      6  C   UNL     1     -32.282  27.385   4.556  0.00  0.00    +0.002 C 
ATOM      7  C   UNL     1     -32.857  26.252   2.259  0.00  0.00    +0.110 C 
ATOM      8  C   UNL     1     -33.934  25.393   1.562  0.00  0.00    +0.029 C 
ATOM      9  C   UNL     1     -36.260  22.378   2.715  0.00  0.00    +0.005 C 
ATOM     10  C   UNL     1     -34.074  26.291   5.851  0.00  0.00    +0.000 C 
ATOM     11  C   UNL     1     -35.594  23.788   4.780  0.00  0.00    +0.110 C 
ATOM     12  C   UNL     1     -32.960  27.349   5.945  0.00  0.00    +0.000 C 
ATOM     13  C   UNL     1     -36.660  22.922   4.101  0.00  0.00    +0.029 C 
ATOM     14  C   UNL     1     -35.296  22.854   0.417  0.00  0.00    +0.002 C 
ATOM     15  C   UNL     1     -34.454  27.887   3.308  0.00  0.00    +0.002 C 
ATOM     16  C   UNL     1     -35.267  21.203   2.843  0.00  0.00    +0.029 C 
ATOM     17  C   UNL     1     -36.934  24.440   1.392  0.00  0.00    +0.000 C 
ATOM     18  C   UNL     1     -34.298  21.718   0.584  0.00  0.00    +0.029 C 
ATOM     19  C   UNL     1     -34.863  20.631   1.488  0.00  0.00    +0.111 C 
ENDROOT
BRANCH   7  20
ATOM     20  O   UNL     1     -31.669  25.478   2.419  0.00  0.00    -0.384 OA
ATOM     21  H   UNL     1     -31.894  24.617   2.807  0.00  0.00    +0.210 HD
ENDBRANCH   7  20
BRANCH  11  22
ATOM     22  O   UNL     1     -34.532  22.970   5.264  0.00  0.00    -0.384 OA
ATOM     23  H   UNL     1     -33.767  23.528   5.475  0.00  0.00    +0.210 HD
ENDBRANCH  11  22
BRANCH  19  24
ATOM     24  O   UNL     1     -33.868  19.628   1.669  0.00  0.00    -0.384 OA
ATOM     25  H   UNL     1     -33.530  19.349   0.804  0.00  0.00    +0.210 HD
ENDBRANCH  19  24
BRANCH   6  26
ATOM     26  C   UNL     1     -31.720  28.755   4.206  0.00  0.00    +0.000 C 
ATOM     27  C   UNL     1     -30.283  28.619   3.695  0.00  0.00    +0.000 C 
BRANCH  26  28
ATOM     28  C   UNL     1     -31.818  29.696   5.426  0.00  0.00    +0.000 C 
BRANCH  28  29
ATOM     29  C   UNL     1     -30.458  30.169   5.952  0.00  0.00    +0.002 C 
BRANCH  29  30
ATOM     30  C   UNL     1     -30.120  29.497   7.291  0.00  0.00    +0.029 C 
BRANCH  30  31
ATOM     31  C   UNL     1     -28.609  29.357   7.578  0.00  0.00    +0.115 C 
ATOM     32  C   UNL     1     -27.848  30.460   6.831  0.00  0.00    +0.032 C 
BRANCH  31  33
ATOM     33  O   UNL     1     -28.406  29.566   8.979  0.00  0.00    -0.384 OA
ATOM     34  H   UNL     1     -29.073  30.185   9.315  0.00  0.00    +0.210 HD
ENDBRANCH  31  33
BRANCH  31  35
ATOM     35  C   UNL     1     -28.080  27.961   7.214  0.00  0.00    +0.164 C 
BRANCH  35  36
ATOM     36  O   UNL     1     -29.163  27.055   7.023  0.00  0.00    -0.380 OA
ATOM     37  H   UNL     1     -29.276  26.515   7.821  0.00  0.00    +0.211 HD
ENDBRANCH  35  36
ENDBRANCH  31  35
ENDBRANCH  30  31
ENDBRANCH  29  30
ENDBRANCH  28  29
ENDBRANCH  26  28
ENDBRANCH   6  26
TORSDOF 11
ENDMDL
MODEL 2
REMARK VINA RESULT:      -6.4      3.475      6.514
REMARK  Name = 5284194
REMARK  11 active torsions:
REMARK  status: ('A' for Active; 'I' for Inactive)
REMARK    1  A    between atoms: C_6  and  C_26
REMARK    2  A    between atoms: C_7  and  O_20
REMARK    3  A    between atoms: C_11  and  O_22
REMARK    4  A    between atoms: C_19  and  O_24
REMARK    5  A    between atoms: C_26  and  C_28
REMARK    6  A    between atoms: C_28  and  C_29
REMARK    7  A    between atoms: C_29  and  C_30
REMARK    8  A    between atoms: C_30  and  C_31
REMARK    9  A    between atoms: C_31  and  O_33
REMARK   10  A    between atoms: C_31  and  C_35
REMARK   11  A    between atoms: C_35  and  O_36
REMARK                            x       y       z     vdW  Elec       q    Type
REMARK                         _______ _______ _______ _____ _____    ______ ____
ROOT
ATOM      1  C   UNL     1     -36.152  22.102   2.296  0.00  0.00    +0.025 C 
ATOM      2  C   UNL     1     -37.527  22.319   1.622  0.00  0.00    +0.005 C 
ATOM      3  C   UNL     1     -37.541  21.914   0.139  0.00  0.00    +0.027 C 
ATOM      4  C   UNL     1     -37.164  20.399   0.022  0.00  0.00    +0.005 C 
ATOM      5  C   UNL     1     -37.158  19.913  -1.479  0.00  0.00    +0.000 C 
ATOM      6  C   UNL     1     -36.481  22.673   3.701  0.00  0.00    +0.002 C 
ATOM      7  C   UNL     1     -35.798  20.602   2.240  0.00  0.00    +0.110 C 
ATOM      8  C   UNL     1     -35.855  20.059   0.796  0.00  0.00    +0.029 C 
ATOM      9  C   UNL     1     -38.553  20.212  -2.125  0.00  0.00    +0.005 C 
ATOM     10  C   UNL     1     -37.885  23.757   1.986  0.00  0.00    +0.000 C 
ATOM     11  C   UNL     1     -38.890  22.226  -0.537  0.00  0.00    +0.110 C 
ATOM     12  C   UNL     1     -37.298  23.950   3.397  0.00  0.00    +0.000 C 
ATOM     13  C   UNL     1     -38.966  21.689  -1.969  0.00  0.00    +0.029 C 
ATOM     14  C   UNL     1     -36.862  18.390  -1.615  0.00  0.00    +0.002 C 
ATOM     15  C   UNL     1     -35.003  22.908   1.630  0.00  0.00    +0.002 C 
ATOM     16  C   UNL     1     -39.663  19.265  -1.621  0.00  0.00    +0.029 C 
ATOM     17  C   UNL     1     -36.053  20.632  -2.298  0.00  0.00    +0.000 C 
ATOM     18  C   UNL     1     -37.969  17.491  -1.083  0.00  0.00    +0.029 C 
ATOM     19  C   UNL     1     -39.290  17.794  -1.776  0.00  0.00    +0.111 C 
ENDROOT
BRANCH   7  20
ATOM     20  O   UNL     1     -36.651  19.818   3.072  0.00  0.00    -0.384 OA
ATOM     21  H   UNL     1     -36.965  19.045   2.575  0.00  0.00    +0.210 HD
ENDBRANCH   7  20
BRANCH  11  22
ATOM     22  O   UNL     1     -39.966  21.708   0.240  0.00  0.00    -0.384 OA
ATOM     23  H   UNL     1     -40.546  22.436   0.514  0.00  0.00    +0.210 HD
ENDBRANCH  11  22
BRANCH  19  24
ATOM     24  O   UNL     1     -40.304  16.980  -1.197  0.00  0.00    -0.384 OA
ATOM     25  H   UNL     1     -41.172  17.259  -1.527  0.00  0.00    +0.210 HD
ENDBRANCH  19  24
BRANCH   6  26
ATOM     26  C   UNL     1     -35.297  22.933   4.620  0.00  0.00    +0.000 C 
ATOM     27  C   UNL     1     -35.084  21.736   5.552  0.00  0.00    +0.000 C 
BRANCH  26  28
ATOM     28  C   UNL     1     -35.509  24.248   5.401  0.00  0.00    +0.000 C 
BRANCH  28  29
ATOM     29  C   UNL     1     -34.302  25.191   5.362  0.00  0.00    +0.002 C 
BRANCH  29  30
ATOM     30  C   UNL     1     -33.906  25.521   3.915  0.00  0.00    +0.029 C 
BRANCH  30  31
ATOM     31  C   UNL     1     -34.447  26.870   3.392  0.00  0.00    +0.115 C 
ATOM     32  C   UNL     1     -35.132  26.651   2.037  0.00  0.00    +0.032 C 
BRANCH  31  33
ATOM     33  O   UNL     1     -35.443  27.330   4.310  0.00  0.00    -0.384 OA
ATOM     34  H   UNL     1     -36.320  27.252   3.902  0.00  0.00    +0.210 HD
ENDBRANCH  31  33
BRANCH  31  35
ATOM     35  C   UNL     1     -33.343  27.935   3.300  0.00  0.00    +0.164 C 
BRANCH  35  36
ATOM     36  O   UNL     1     -33.119  28.529   4.576  0.00  0.00    -0.380 OA
ATOM     37  H   UNL     1     -33.184  27.848   5.264  0.00  0.00    +0.211 HD
ENDBRANCH  35  36
ENDBRANCH  31  35
ENDBRANCH  30  31
ENDBRANCH  29  30
ENDBRANCH  28  29
ENDBRANCH  26  28
ENDBRANCH   6  26
TORSDOF 11
ENDMDL
MODEL 3
REMARK VINA RESULT:      -6.4      5.281      9.239
REMARK  Name = 5284194
REMARK  11 active torsions:
REMARK  status: ('A' for Active; 'I' for Inactive)
REMARK    1  A    between atoms: C_6  and  C_26
REMARK    2  A    between atoms: C_7  and  O_20
REMARK    3  A    between atoms: C_11  and  O_22
REMARK    4  A    between atoms: C_19  and  O_24
REMARK    5  A    between atoms: C_26  and  C_28
REMARK    6  A    between atoms: C_28  and  C_29
REMARK    7  A    between atoms: C_29  and  C_30
REMARK    8  A    between atoms: C_30  and  C_31
REMARK    9  A    between atoms: C_31  and  O_33
REMARK   10  A    between atoms: C_31  and  C_35
REMARK   11  A    between atoms: C_35  and  O_36
REMARK                            x       y       z     vdW  Elec       q    Type
REMARK                         _______ _______ _______ _____ _____    ______ ____
ROOT
ATOM      1  C   UNL     1     -39.679  25.049   1.634  0.00  0.00    +0.025 C 
ATOM      2  C   UNL     1     -39.299  23.564   1.430  0.00  0.00    +0.005 C 
ATOM      3  C   UNL     1     -37.781  23.326   1.416  0.00  0.00    +0.027 C 
ATOM      4  C   UNL     1     -37.178  23.809   2.778  0.00  0.00    +0.005 C 
ATOM      5  C   UNL     1     -35.616  23.596   2.833  0.00  0.00    +0.000 C 
ATOM      6  C   UNL     1     -41.221  24.921   1.515  0.00  0.00    +0.002 C 
ATOM      7  C   UNL     1     -39.142  25.519   3.002  0.00  0.00    +0.110 C 
ATOM      8  C   UNL     1     -37.626  25.259   3.135  0.00  0.00    +0.029 C 
ATOM      9  C   UNL     1     -35.290  22.090   2.560  0.00  0.00    +0.005 C 
ATOM     10  C   UNL     1     -40.112  23.148   0.205  0.00  0.00    +0.000 C 
ATOM     11  C   UNL     1     -37.424  21.857   1.116  0.00  0.00    +0.110 C 
ATOM     12  C   UNL     1     -41.419  23.953   0.325  0.00  0.00    +0.000 C 
ATOM     13  C   UNL     1     -35.923  21.580   1.250  0.00  0.00    +0.029 C 
ATOM     14  C   UNL     1     -35.004  23.998   4.208  0.00  0.00    +0.002 C 
ATOM     15  C   UNL     1     -39.118  25.988   0.531  0.00  0.00    +0.002 C 
ATOM     16  C   UNL     1     -35.651  21.172   3.748  0.00  0.00    +0.029 C 
ATOM     17  C   UNL     1     -34.891  24.474   1.777  0.00  0.00    +0.000 C 
ATOM     18  C   UNL     1     -35.405  23.085   5.358  0.00  0.00    +0.029 C 
ATOM     19  C   UNL     1     -35.025  21.641   5.058  0.00  0.00    +0.111 C 
ENDROOT
BRANCH   7  20
ATOM     20  O   UNL     1     -39.824  24.897   4.089  0.00  0.00    -0.384 OA
ATOM     21  H   UNL     1     -39.543  23.971   4.159  0.00  0.00    +0.210 HD
ENDBRANCH   7  20
BRANCH  11  22
ATOM     22  O   UNL     1     -38.163  20.984   1.965  0.00  0.00    -0.384 OA
ATOM     23  H   UNL     1     -37.780  20.094   1.923  0.00  0.00    +0.210 HD
ENDBRANCH  11  22
BRANCH  19  24
ATOM     24  O   UNL     1     -35.482  20.820   6.128  0.00  0.00    -0.384 OA
ATOM     25  H   UNL     1     -36.355  21.126   6.420  0.00  0.00    +0.210 HD
ENDBRANCH  19  24
BRANCH   6  26
ATOM     26  C   UNL     1     -41.997  26.220   1.358  0.00  0.00    +0.000 C 
ATOM     27  C   UNL     1     -42.955  26.405   2.539  0.00  0.00    +0.000 C 
BRANCH  26  28
ATOM     28  C   UNL     1     -42.736  26.236   0.002  0.00  0.00    +0.000 C 
BRANCH  28  29
ATOM     29  C   UNL     1     -42.874  27.634  -0.611  0.00  0.00    +0.002 C 
BRANCH  29  30
ATOM     30  C   UNL     1     -41.720  28.546  -0.167  0.00  0.00    +0.029 C 
BRANCH  30  31
ATOM     31  C   UNL     1     -42.164  29.870   0.493  0.00  0.00    +0.115 C 
ATOM     32  C   UNL     1     -43.661  30.086   0.239  0.00  0.00    +0.032 C 
BRANCH  31  33
ATOM     33  O   UNL     1     -41.982  29.739   1.907  0.00  0.00    -0.384 OA
ATOM     34  H   UNL     1     -41.477  28.932   2.095  0.00  0.00    +0.210 HD
ENDBRANCH  31  33
BRANCH  31  35
ATOM     35  C   UNL     1     -41.331  31.065   0.005  0.00  0.00    +0.164 C 
BRANCH  35  36
ATOM     36  O   UNL     1     -40.462  31.519   1.040  0.00  0.00    -0.380 OA
ATOM     37  H   UNL     1     -39.619  31.802   0.652  0.00  0.00    +0.211 HD
ENDBRANCH  35  36
ENDBRANCH  31  35
ENDBRANCH  30  31
ENDBRANCH  29  30
ENDBRANCH  28  29
ENDBRANCH  26  28
ENDBRANCH   6  26
TORSDOF 11
ENDMDL
MODEL 4
REMARK VINA RESULT:      -6.3      3.135      6.250
REMARK  Name = 5284194
REMARK  11 active torsions:
REMARK  status: ('A' for Active; 'I' for Inactive)
REMARK    1  A    between atoms: C_6  and  C_26
REMARK    2  A    between atoms: C_7  and  O_20
REMARK    3  A    between atoms: C_11  and  O_22
REMARK    4  A    between atoms: C_19  and  O_24
REMARK    5  A    between atoms: C_26  and  C_28
REMARK    6  A    between atoms: C_28  and  C_29
REMARK    7  A    between atoms: C_29  and  C_30
REMARK    8  A    between atoms: C_30  and  C_31
REMARK    9  A    between atoms: C_31  and  O_33
REMARK   10  A    between atoms: C_31  and  C_35
REMARK   11  A    between atoms: C_35  and  O_36
REMARK                            x       y       z     vdW  Elec       q    Type
REMARK                         _______ _______ _______ _____ _____    ______ ____
ROOT
ATOM      1  C   UNL     1     -36.093  22.232   2.295  0.00  0.00    +0.025 C 
ATOM      2  C   UNL     1     -37.434  21.877   1.612  0.00  0.00    +0.005 C 
ATOM      3  C   UNL     1     -37.254  21.242   0.224  0.00  0.00    +0.027 C 
ATOM      4  C   UNL     1     -36.409  19.933   0.369  0.00  0.00    +0.005 C 
ATOM      5  C   UNL     1     -36.183  19.227  -1.024  0.00  0.00    +0.000 C 
ATOM      6  C   UNL     1     -36.648  22.897   3.582  0.00  0.00    +0.002 C 
ATOM      7  C   UNL     1     -35.276  20.939   2.498  0.00  0.00    +0.110 C 
ATOM      8  C   UNL     1     -35.095  20.170   1.172  0.00  0.00    +0.029 C 
ATOM      9  C   UNL     1     -37.570  18.946  -1.693  0.00  0.00    +0.005 C 
ATOM     10  C   UNL     1     -38.249  23.163   1.724  0.00  0.00    +0.000 C 
ATOM     11  C   UNL     1     -38.602  20.984  -0.478  0.00  0.00    +0.110 C 
ATOM     12  C   UNL     1     -37.816  23.771   3.071  0.00  0.00    +0.000 C 
ATOM     13  C   UNL     1     -38.441  20.215  -1.792  0.00  0.00    +0.029 C 
ATOM     14  C   UNL     1     -35.410  17.880  -0.895  0.00  0.00    +0.002 C 
ATOM     15  C   UNL     1     -35.234  23.239   1.481  0.00  0.00    +0.002 C 
ATOM     16  C   UNL     1     -38.341  17.793  -1.015  0.00  0.00    +0.029 C 
ATOM     17  C   UNL     1     -35.331  20.113  -1.972  0.00  0.00    +0.000 C 
ATOM     18  C   UNL     1     -36.194  16.777  -0.199  0.00  0.00    +0.029 C 
ATOM     19  C   UNL     1     -37.512  16.516  -0.916  0.00  0.00    +0.111 C 
ENDROOT
BRANCH   7  20
ATOM     20  O   UNL     1     -35.870  20.076   3.466  0.00  0.00    -0.384 OA
ATOM     21  H   UNL     1     -36.831  20.209   3.471  0.00  0.00    +0.210 HD
ENDBRANCH   7  20
BRANCH  11  22
ATOM     22  O   UNL     1     -39.489  20.287   0.393  0.00  0.00    -0.384 OA
ATOM     23  H   UNL     1     -38.986  19.914   1.134  0.00  0.00    +0.210 HD
ENDBRANCH  11  22
BRANCH  19  24
ATOM     24  O   UNL     1     -38.237  15.530  -0.189  0.00  0.00    -0.384 OA
ATOM     25  H   UNL     1     -38.665  15.943   0.577  0.00  0.00    +0.210 HD
ENDBRANCH  19  24
BRANCH   6  26
ATOM     26  C   UNL     1     -35.649  23.677   4.425  0.00  0.00    +0.000 C 
ATOM     27  C   UNL     1     -35.160  22.813   5.592  0.00  0.00    +0.000 C 
BRANCH  26  28
ATOM     28  C   UNL     1     -36.281  25.001   4.906  0.00  0.00    +0.000 C 
BRANCH  28  29
ATOM     29  C   UNL     1     -35.275  25.976   5.528  0.00  0.00    +0.002 C 
BRANCH  29  30
ATOM     30  C   UNL     1     -33.993  26.056   4.684  0.00  0.00    +0.029 C 
BRANCH  30  31
ATOM     31  C   UNL     1     -33.953  27.234   3.685  0.00  0.00    +0.115 C 
ATOM     32  C   UNL     1     -33.878  26.683   2.255  0.00  0.00    +0.032 C 
BRANCH  31  33
ATOM     33  O   UNL     1     -35.183  27.954   3.806  0.00  0.00    -0.384 OA
ATOM     34  H   UNL     1     -35.566  28.092   2.925  0.00  0.00    +0.210 HD
ENDBRANCH  31  33
BRANCH  31  35
ATOM     35  C   UNL     1     -32.794  28.199   3.979  0.00  0.00    +0.164 C 
BRANCH  35  36
ATOM     36  O   UNL     1     -32.674  28.417   5.383  0.00  0.00    -0.380 OA
ATOM     37  H   UNL     1     -32.740  27.569   5.847  0.00  0.00    +0.211 HD
ENDBRANCH  35  36
ENDBRANCH  31  35
ENDBRANCH  30  31
ENDBRANCH  29  30
ENDBRANCH  28  29
ENDBRANCH  26  28
ENDBRANCH   6  26
TORSDOF 11
ENDMDL
MODEL 5
REMARK VINA RESULT:      -6.2      2.911      8.542
REMARK  Name = 5284194
REMARK  11 active torsions:
REMARK  status: ('A' for Active; 'I' for Inactive)
REMARK    1  A    between atoms: C_6  and  C_26
REMARK    2  A    between atoms: C_7  and  O_20
REMARK    3  A    between atoms: C_11  and  O_22
REMARK    4  A    between atoms: C_19  and  O_24
REMARK    5  A    between atoms: C_26  and  C_28
REMARK    6  A    between atoms: C_28  and  C_29
REMARK    7  A    between atoms: C_29  and  C_30
REMARK    8  A    between atoms: C_30  and  C_31
REMARK    9  A    between atoms: C_31  and  O_33
REMARK   10  A    between atoms: C_31  and  C_35
REMARK   11  A    between atoms: C_35  and  O_36
REMARK                            x       y       z     vdW  Elec       q    Type
REMARK                         _______ _______ _______ _____ _____    ______ ____
ROOT
ATOM      1  C   UNL     1     -34.268  26.540   3.566  0.00  0.00    +0.025 C 
ATOM      2  C   UNL     1     -33.565  27.531   4.524  0.00  0.00    +0.005 C 
ATOM      3  C   UNL     1     -32.378  28.258   3.874  0.00  0.00    +0.027 C 
ATOM      4  C   UNL     1     -32.890  29.053   2.626  0.00  0.00    +0.005 C 
ATOM      5  C   UNL     1     -31.718  29.826   1.906  0.00  0.00    +0.000 C 
ATOM      6  C   UNL     1     -35.317  25.958   4.551  0.00  0.00    +0.002 C 
ATOM      7  C   UNL     1     -34.830  27.323   2.362  0.00  0.00    +0.110 C 
ATOM      8  C   UNL     1     -33.734  28.160   1.668  0.00  0.00    +0.029 C 
ATOM      9  C   UNL     1     -31.008  30.766   2.937  0.00  0.00    +0.005 C 
ATOM     10  C   UNL     1     -33.311  26.700   5.780  0.00  0.00    +0.000 C 
ATOM     11  C   UNL     1     -31.634  29.167   4.872  0.00  0.00    +0.110 C 
ATOM     12  C   UNL     1     -34.518  25.748   5.858  0.00  0.00    +0.000 C 
ATOM     13  C   UNL     1     -30.547  30.010   4.199  0.00  0.00    +0.029 C 
ATOM     14  C   UNL     1     -32.216  30.687   0.707  0.00  0.00    +0.002 C 
ATOM     15  C   UNL     1     -33.329  25.421   3.037  0.00  0.00    +0.002 C 
ATOM     16  C   UNL     1     -31.856  32.002   3.306  0.00  0.00    +0.029 C 
ATOM     17  C   UNL     1     -30.676  28.841   1.312  0.00  0.00    +0.000 C 
ATOM     18  C   UNL     1     -33.070  31.881   1.111  0.00  0.00    +0.029 C 
ATOM     19  C   UNL     1     -32.315  32.782   2.078  0.00  0.00    +0.111 C 
ENDROOT
BRANCH   7  20
ATOM     20  O   UNL     1     -35.910  28.177   2.733  0.00  0.00    -0.384 OA
ATOM     21  H   UNL     1     -36.746  27.687   2.672  0.00  0.00    +0.210 HD
ENDBRANCH   7  20
BRANCH  11  22
ATOM     22  O   UNL     1     -32.556  30.011   5.556  0.00  0.00    -0.384 OA
ATOM     23  H   UNL     1     -32.142  30.871   5.725  0.00  0.00    +0.210 HD
ENDBRANCH  11  22
BRANCH  19  24
ATOM     24  O   UNL     1     -33.177  33.842   2.478  0.00  0.00    -0.384 OA
ATOM     25  H   UNL     1     -34.076  33.498   2.601  0.00  0.00    +0.210 HD
ENDBRANCH  19  24
BRANCH   6  26
ATOM     26  C   UNL     1     -36.049  24.704   4.095  0.00  0.00    +0.000 C 
ATOM     27  C   UNL     1     -37.516  25.031   3.800  0.00  0.00    +0.000 C 
BRANCH  26  28
ATOM     28  C   UNL     1     -35.903  23.591   5.155  0.00  0.00    +0.000 C 
BRANCH  28  29
ATOM     29  C   UNL     1     -35.504  22.231   4.571  0.00  0.00    +0.002 C 
BRANCH  29  30
ATOM     30  C   UNL     1     -35.320  22.317   3.048  0.00  0.00    +0.029 C 
BRANCH  30  31
ATOM     31  C   UNL     1     -36.130  21.278   2.243  0.00  0.00    +0.115 C 
ATOM     32  C   UNL     1     -35.323  20.850   1.010  0.00  0.00    +0.032 C 
BRANCH  31  33
ATOM     33  O   UNL     1     -36.303  20.121   3.068  0.00  0.00    -0.384 OA
ATOM     34  H   UNL     1     -37.235  20.043   3.326  0.00  0.00    +0.210 HD
ENDBRANCH  31  33
BRANCH  31  35
ATOM     35  C   UNL     1     -37.519  21.807   1.853  0.00  0.00    +0.164 C 
BRANCH  35  36
ATOM     36  O   UNL     1     -38.537  20.940   2.346  0.00  0.00    -0.380 OA
ATOM     37  H   UNL     1     -39.000  21.371   3.080  0.00  0.00    +0.211 HD
ENDBRANCH  35  36
ENDBRANCH  31  35
ENDBRANCH  30  31
ENDBRANCH  29  30
ENDBRANCH  28  29
ENDBRANCH  26  28
ENDBRANCH   6  26
TORSDOF 11
ENDMDL
MODEL 6
REMARK VINA RESULT:      -5.9      5.796     10.744
REMARK  Name = 5284194
REMARK  11 active torsions:
REMARK  status: ('A' for Active; 'I' for Inactive)
REMARK    1  A    between atoms: C_6  and  C_26
REMARK    2  A    between atoms: C_7  and  O_20
REMARK    3  A    between atoms: C_11  and  O_22
REMARK    4  A    between atoms: C_19  and  O_24
REMARK    5  A    between atoms: C_26  and  C_28
REMARK    6  A    between atoms: C_28  and  C_29
REMARK    7  A    between atoms: C_29  and  C_30
REMARK    8  A    between atoms: C_30  and  C_31
REMARK    9  A    between atoms: C_31  and  O_33
REMARK   10  A    between atoms: C_31  and  C_35
REMARK   11  A    between atoms: C_35  and  O_36
REMARK                            x       y       z     vdW  Elec       q    Type
REMARK                         _______ _______ _______ _____ _____    ______ ____
ROOT
ATOM      1  C   UNL     1     -39.672  25.009   1.649  0.00  0.00    +0.025 C 
ATOM      2  C   UNL     1     -39.293  23.523   1.449  0.00  0.00    +0.005 C 
ATOM      3  C   UNL     1     -37.774  23.288   1.418  0.00  0.00    +0.027 C 
ATOM      4  C   UNL     1     -37.156  23.780   2.769  0.00  0.00    +0.005 C 
ATOM      5  C   UNL     1     -35.592  23.569   2.806  0.00  0.00    +0.000 C 
ATOM      6  C   UNL     1     -41.215  24.878   1.549  0.00  0.00    +0.002 C 
ATOM      7  C   UNL     1     -39.118  25.489   3.007  0.00  0.00    +0.110 C 
ATOM      8  C   UNL     1     -37.601  25.231   3.123  0.00  0.00    +0.029 C 
ATOM      9  C   UNL     1     -35.268  22.061   2.539  0.00  0.00    +0.005 C 
ATOM     10  C   UNL     1     -40.120  23.099   0.237  0.00  0.00    +0.000 C 
ATOM     11  C   UNL     1     -37.419  21.817   1.122  0.00  0.00    +0.110 C 
ATOM     12  C   UNL     1     -41.426  23.903   0.368  0.00  0.00    +0.000 C 
ATOM     13  C   UNL     1     -35.916  21.543   1.240  0.00  0.00    +0.029 C 
ATOM     14  C   UNL     1     -34.964  23.980   4.171  0.00  0.00    +0.002 C 
ATOM     15  C   UNL     1     -39.125  25.942   0.533  0.00  0.00    +0.002 C 
ATOM     16  C   UNL     1     -35.613  21.151   3.736  0.00  0.00    +0.029 C 
ATOM     17  C   UNL     1     -34.882  24.441   1.736  0.00  0.00    +0.000 C 
ATOM     18  C   UNL     1     -35.350  23.073   5.331  0.00  0.00    +0.029 C 
ATOM     19  C   UNL     1     -34.972  21.628   5.036  0.00  0.00    +0.111 C 
ENDROOT
BRANCH   7  20
ATOM     20  O   UNL     1     -39.786  24.872   4.106  0.00  0.00    -0.384 OA
ATOM     21  H   UNL     1     -40.154  24.019   3.824  0.00  0.00    +0.210 HD
ENDBRANCH   7  20
BRANCH  11  22
ATOM     22  O   UNL     1     -38.146  20.948   1.986  0.00  0.00    -0.384 OA
ATOM     23  H   UNL     1     -37.818  21.046   2.893  0.00  0.00    +0.210 HD
ENDBRANCH  11  22
BRANCH  19  24
ATOM     24  O   UNL     1     -35.415  20.814   6.116  0.00  0.00    -0.384 OA
ATOM     25  H   UNL     1     -34.766  20.849   6.836  0.00  0.00    +0.210 HD
ENDBRANCH  19  24
BRANCH   6  26
ATOM     26  C   UNL     1     -41.995  26.176   1.394  0.00  0.00    +0.000 C 
ATOM     27  C   UNL     1     -42.103  26.888   2.746  0.00  0.00    +0.000 C 
BRANCH  26  28
ATOM     28  C   UNL     1     -43.380  25.890   0.774  0.00  0.00    +0.000 C 
BRANCH  28  29
ATOM     29  C   UNL     1     -44.451  25.510   1.803  0.00  0.00    +0.002 C 
BRANCH  29  30
ATOM     30  C   UNL     1     -45.351  24.384   1.270  0.00  0.00    +0.029 C 
BRANCH  30  31
ATOM     31  C   UNL     1     -46.656  24.173   2.068  0.00  0.00    +0.115 C 
ATOM     32  C   UNL     1     -46.439  24.612   3.521  0.00  0.00    +0.032 C 
BRANCH  31  33
ATOM     33  O   UNL     1     -47.659  25.025   1.505  0.00  0.00    -0.384 OA
ATOM     34  H   UNL     1     -48.387  25.131   2.138  0.00  0.00    +0.210 HD
ENDBRANCH  31  33
BRANCH  31  35
ATOM     35  C   UNL     1     -47.153  22.721   1.985  0.00  0.00    +0.164 C 
BRANCH  35  36
ATOM     36  O   UNL     1     -47.889  22.381   3.158  0.00  0.00    -0.380 OA
ATOM     37  H   UNL     1     -47.779  21.436   3.344  0.00  0.00    +0.211 HD
ENDBRANCH  35  36
ENDBRANCH  31  35
ENDBRANCH  30  31
ENDBRANCH  29  30
ENDBRANCH  28  29
ENDBRANCH  26  28
ENDBRANCH   6  26
TORSDOF 11
ENDMDL
MODEL 7
REMARK VINA RESULT:      -5.7      5.053      9.176
REMARK  Name = 5284194
REMARK  11 active torsions:
REMARK  status: ('A' for Active; 'I' for Inactive)
REMARK    1  A    between atoms: C_6  and  C_26
REMARK    2  A    between atoms: C_7  and  O_20
REMARK    3  A    between atoms: C_11  and  O_22
REMARK    4  A    between atoms: C_19  and  O_24
REMARK    5  A    between atoms: C_26  and  C_28
REMARK    6  A    between atoms: C_28  and  C_29
REMARK    7  A    between atoms: C_29  and  C_30
REMARK    8  A    between atoms: C_30  and  C_31
REMARK    9  A    between atoms: C_31  and  O_33
REMARK   10  A    between atoms: C_31  and  C_35
REMARK   11  A    between atoms: C_35  and  O_36
REMARK                            x       y       z     vdW  Elec       q    Type
REMARK                         _______ _______ _______ _____ _____    ______ ____
ROOT
ATOM      1  C   UNL     1     -38.554  25.943   1.316  0.00  0.00    +0.025 C 
ATOM      2  C   UNL     1     -38.223  25.770   2.817  0.00  0.00    +0.005 C 
ATOM      3  C   UNL     1     -36.833  25.160   3.061  0.00  0.00    +0.027 C 
ATOM      4  C   UNL     1     -35.750  26.090   2.419  0.00  0.00    +0.005 C 
ATOM      5  C   UNL     1     -34.294  25.522   2.631  0.00  0.00    +0.000 C 
ATOM      6  C   UNL     1     -40.002  26.483   1.451  0.00  0.00    +0.002 C 
ATOM      7  C   UNL     1     -37.527  26.906   0.685  0.00  0.00    +0.110 C 
ATOM      8  C   UNL     1     -36.079  26.433   0.935  0.00  0.00    +0.029 C 
ATOM      9  C   UNL     1     -34.038  25.311   4.161  0.00  0.00    +0.005 C 
ATOM     10  C   UNL     1     -39.445  25.043   3.375  0.00  0.00    +0.000 C 
ATOM     11  C   UNL     1     -36.563  24.908   4.558  0.00  0.00    +0.110 C 
ATOM     12  C   UNL     1     -40.624  25.598   2.555  0.00  0.00    +0.000 C 
ATOM     13  C   UNL     1     -35.127  24.444   4.823  0.00  0.00    +0.029 C 
ATOM     14  C   UNL     1     -33.193  26.469   2.067  0.00  0.00    +0.002 C 
ATOM     15  C   UNL     1     -38.536  24.608   0.522  0.00  0.00    +0.002 C 
ATOM     16  C   UNL     1     -33.841  26.638   4.925  0.00  0.00    +0.029 C 
ATOM     17  C   UNL     1     -34.104  24.170   1.892  0.00  0.00    +0.000 C 
ATOM     18  C   UNL     1     -33.047  27.777   2.832  0.00  0.00    +0.029 C 
ATOM     19  C   UNL     1     -32.757  27.513   4.303  0.00  0.00    +0.111 C 
ENDROOT
BRANCH   7  20
ATOM     20  O   UNL     1     -37.676  28.240   1.167  0.00  0.00    -0.384 OA
ATOM     21  H   UNL     1     -36.813  28.578   1.456  0.00  0.00    +0.210 HD
ENDBRANCH   7  20
BRANCH  11  22
ATOM     22  O   UNL     1     -36.850  26.078   5.318  0.00  0.00    -0.384 OA
ATOM     23  H   UNL     1     -36.561  26.862   4.825  0.00  0.00    +0.210 HD
ENDBRANCH  11  22
BRANCH  19  24
ATOM     24  O   UNL     1     -32.699  28.761   4.985  0.00  0.00    -0.384 OA
ATOM     25  H   UNL     1     -31.959  28.753   5.612  0.00  0.00    +0.210 HD
ENDBRANCH  19  24
BRANCH   6  26
ATOM     26  C   UNL     1     -40.834  26.513   0.177  0.00  0.00    +0.000 C 
ATOM     27  C   UNL     1     -40.667  27.863  -0.527  0.00  0.00    +0.000 C 
BRANCH  26  28
ATOM     28  C   UNL     1     -42.311  26.204   0.501  0.00  0.00    +0.000 C 
BRANCH  28  29
ATOM     29  C   UNL     1     -43.191  27.454   0.626  0.00  0.00    +0.002 C 
BRANCH  29  30
ATOM     30  C   UNL     1     -43.807  27.556   2.030  0.00  0.00    +0.029 C 
BRANCH  30  31
ATOM     31  C   UNL     1     -43.306  28.754   2.866  0.00  0.00    +0.115 C 
ATOM     32  C   UNL     1     -42.593  28.234   4.121  0.00  0.00    +0.032 C 
BRANCH  31  33
ATOM     33  O   UNL     1     -42.340  29.463   2.084  0.00  0.00    -0.384 OA
ATOM     34  H   UNL     1     -41.933  30.159   2.624  0.00  0.00    +0.210 HD
ENDBRANCH  31  33
BRANCH  31  35
ATOM     35  C   UNL     1     -44.444  29.722   3.224  0.00  0.00    +0.164 C 
BRANCH  35  36
ATOM     36  O   UNL     1     -43.953  30.789   4.032  0.00  0.00    -0.380 OA
ATOM     37  H   UNL     1     -44.526  30.898   4.806  0.00  0.00    +0.211 HD
ENDBRANCH  35  36
ENDBRANCH  31  35
ENDBRANCH  30  31
ENDBRANCH  29  30
ENDBRANCH  28  29
ENDBRANCH  26  28
ENDBRANCH   6  26
TORSDOF 11
ENDMDL
MODEL 8
REMARK VINA RESULT:      -5.7      5.278      9.266
REMARK  Name = 5284194
REMARK  11 active torsions:
REMARK  status: ('A' for Active; 'I' for Inactive)
REMARK    1  A    between atoms: C_6  and  C_26
REMARK    2  A    between atoms: C_7  and  O_20
REMARK    3  A    between atoms: C_11  and  O_22
REMARK    4  A    between atoms: C_19  and  O_24
REMARK    5  A    between atoms: C_26  and  C_28
REMARK    6  A    between atoms: C_28  and  C_29
REMARK    7  A    between atoms: C_29  and  C_30
REMARK    8  A    between atoms: C_30  and  C_31
REMARK    9  A    between atoms: C_31  and  O_33
REMARK   10  A    between atoms: C_31  and  C_35
REMARK   11  A    between atoms: C_35  and  O_36
REMARK                            x       y       z     vdW  Elec       q    Type
REMARK                         _______ _______ _______ _____ _____    ______ ____
ROOT
ATOM      1  C   UNL     1     -39.724  24.973   1.641  0.00  0.00    +0.025 C 
ATOM      2  C   UNL     1     -39.272  23.511   1.418  0.00  0.00    +0.005 C 
ATOM      3  C   UNL     1     -37.745  23.342   1.444  0.00  0.00    +0.027 C 
ATOM      4  C   UNL     1     -37.204  23.823   2.832  0.00  0.00    +0.005 C 
ATOM      5  C   UNL     1     -35.635  23.679   2.929  0.00  0.00    +0.000 C 
ATOM      6  C   UNL     1     -41.255  24.778   1.474  0.00  0.00    +0.002 C 
ATOM      7  C   UNL     1     -39.248  25.438   3.032  0.00  0.00    +0.110 C 
ATOM      8  C   UNL     1     -37.726  25.243   3.205  0.00  0.00    +0.029 C 
ATOM      9  C   UNL     1     -35.234  22.194   2.636  0.00  0.00    +0.005 C 
ATOM     10  C   UNL     1     -40.030  23.085   0.163  0.00  0.00    +0.000 C 
ATOM     11  C   UNL     1     -37.313  21.897   1.126  0.00  0.00    +0.110 C 
ATOM     12  C   UNL     1     -41.375  23.828   0.260  0.00  0.00    +0.000 C 
ATOM     13  C   UNL     1     -35.806  21.685   1.299  0.00  0.00    +0.029 C 
ATOM     14  C   UNL     1     -35.082  24.079   4.329  0.00  0.00    +0.002 C 
ATOM     15  C   UNL     1     -39.175  25.959   0.573  0.00  0.00    +0.002 C 
ATOM     16  C   UNL     1     -35.586  21.237   3.795  0.00  0.00    +0.029 C 
ATOM     17  C   UNL     1     -34.921  24.610   1.912  0.00  0.00    +0.000 C 
ATOM     18  C   UNL     1     -35.474  23.124   5.448  0.00  0.00    +0.029 C 
ATOM     19  C   UNL     1     -35.020  21.706   5.132  0.00  0.00    +0.111 C 
ENDROOT
BRANCH   7  20
ATOM     20  O   UNL     1     -39.932  24.763   4.087  0.00  0.00    -0.384 OA
ATOM     21  H   UNL     1     -40.889  24.813   3.935  0.00  0.00    +0.210 HD
ENDBRANCH   7  20
BRANCH  11  22
ATOM     22  O   UNL     1     -38.035  20.974   1.935  0.00  0.00    -0.384 OA
ATOM     23  H   UNL     1     -38.961  20.949   1.648  0.00  0.00    +0.210 HD
ENDBRANCH  11  22
BRANCH  19  24
ATOM     24  O   UNL     1     -35.470  20.843   6.171  0.00  0.00    -0.384 OA
ATOM     25  H   UNL     1     -34.850  20.104   6.268  0.00  0.00    +0.210 HD
ENDBRANCH  19  24
BRANCH   6  26
ATOM     26  C   UNL     1     -42.085  26.045   1.320  0.00  0.00    +0.000 C 
ATOM     27  C   UNL     1     -41.931  26.605  -0.097  0.00  0.00    +0.000 C 
BRANCH  26  28
ATOM     28  C   UNL     1     -41.686  27.074   2.399  0.00  0.00    +0.000 C 
BRANCH  28  29
ATOM     29  C   UNL     1     -42.559  27.021   3.657  0.00  0.00    +0.002 C 
BRANCH  29  30
ATOM     30  C   UNL     1     -42.710  28.416   4.283  0.00  0.00    +0.029 C 
BRANCH  30  31
ATOM     31  C   UNL     1     -44.157  28.797   4.666  0.00  0.00    +0.115 C 
ATOM     32  C   UNL     1     -44.841  29.460   3.463  0.00  0.00    +0.032 C 
BRANCH  31  33
ATOM     33  O   UNL     1     -44.868  27.589   4.954  0.00  0.00    -0.384 OA
ATOM     34  H   UNL     1     -44.235  26.870   5.111  0.00  0.00    +0.210 HD
ENDBRANCH  31  33
BRANCH  31  35
ATOM     35  C   UNL     1     -44.206  29.697   5.910  0.00  0.00    +0.164 C 
BRANCH  35  36
ATOM     36  O   UNL     1     -42.974  30.398   6.064  0.00  0.00    -0.380 OA
ATOM     37  H   UNL     1     -42.319  30.037   5.448  0.00  0.00    +0.211 HD
ENDBRANCH  35  36
ENDBRANCH  31  35
ENDBRANCH  30  31
ENDBRANCH  29  30
ENDBRANCH  28  29
ENDBRANCH  26  28
ENDBRANCH   6  26
TORSDOF 11
ENDMDL
MODEL 9
REMARK VINA RESULT:      -5.7      4.677      7.923
REMARK  Name = 5284194
REMARK  11 active torsions:
REMARK  status: ('A' for Active; 'I' for Inactive)
REMARK    1  A    between atoms: C_6  and  C_26
REMARK    2  A    between atoms: C_7  and  O_20
REMARK    3  A    between atoms: C_11  and  O_22
REMARK    4  A    between atoms: C_19  and  O_24
REMARK    5  A    between atoms: C_26  and  C_28
REMARK    6  A    between atoms: C_28  and  C_29
REMARK    7  A    between atoms: C_29  and  C_30
REMARK    8  A    between atoms: C_30  and  C_31
REMARK    9  A    between atoms: C_31  and  O_33
REMARK   10  A    between atoms: C_31  and  C_35
REMARK   11  A    between atoms: C_35  and  O_36
REMARK                            x       y       z     vdW  Elec       q    Type
REMARK                         _______ _______ _______ _____ _____    ______ ____
ROOT
ATOM      1  C   UNL     1     -35.959  21.505   0.746  0.00  0.00    +0.025 C 
ATOM      2  C   UNL     1     -35.663  21.118  -0.721  0.00  0.00    +0.005 C 
ATOM      3  C   UNL     1     -34.224  20.622  -0.935  0.00  0.00    +0.027 C 
ATOM      4  C   UNL     1     -33.980  19.367  -0.032  0.00  0.00    +0.005 C 
ATOM      5  C   UNL     1     -32.516  18.803  -0.200  0.00  0.00    +0.000 C 
ATOM      6  C   UNL     1     -37.414  22.015   0.571  0.00  0.00    +0.002 C 
ATOM      7  C   UNL     1     -35.780  20.259   1.638  0.00  0.00    +0.110 C 
ATOM      8  C   UNL     1     -34.386  19.623   1.450  0.00  0.00    +0.029 C 
ATOM      9  C   UNL     1     -32.254  18.486  -1.711  0.00  0.00    +0.005 C 
ATOM     10  C   UNL     1     -36.140  22.330  -1.518  0.00  0.00    +0.000 C 
ATOM     11  C   UNL     1     -33.922  20.333  -2.418  0.00  0.00    +0.110 C 
ATOM     12  C   UNL     1     -37.358  22.847  -0.731  0.00  0.00    +0.000 C 
ATOM     13  C   UNL     1     -32.544  19.695  -2.622  0.00  0.00    +0.029 C 
ATOM     14  C   UNL     1     -32.273  17.508   0.630  0.00  0.00    +0.002 C 
ATOM     15  C   UNL     1     -35.041  22.637   1.284  0.00  0.00    +0.002 C 
ATOM     16  C   UNL     1     -33.002  17.227  -2.199  0.00  0.00    +0.029 C 
ATOM     17  C   UNL     1     -31.459  19.826   0.297  0.00  0.00    +0.000 C 
ATOM     18  C   UNL     1     -33.048  16.296   0.133  0.00  0.00    +0.029 C 
ATOM     19  C   UNL     1     -32.722  16.008  -1.326  0.00  0.00    +0.111 C 
ENDROOT
BRANCH   7  20
ATOM     20  O   UNL     1     -36.783  19.275   1.394  0.00  0.00    -0.384 OA
ATOM     21  H   UNL     1     -36.817  18.656   2.141  0.00  0.00    +0.210 HD
ENDBRANCH   7  20
BRANCH  11  22
ATOM     22  O   UNL     1     -34.935  19.503  -2.979  0.00  0.00    -0.384 OA
ATOM     23  H   UNL     1     -34.635  18.580  -2.975  0.00  0.00    +0.210 HD
ENDBRANCH  11  22
BRANCH  19  24
ATOM     24  O   UNL     1     -33.522  14.914  -1.762  0.00  0.00    -0.384 OA
ATOM     25  H   UNL     1     -33.025  14.087  -1.655  0.00  0.00    +0.210 HD
ENDBRANCH  19  24
BRANCH   6  26
ATOM     26  C   UNL     1     -38.007  22.785   1.742  0.00  0.00    +0.000 C 
ATOM     27  C   UNL     1     -39.273  22.084   2.243  0.00  0.00    +0.000 C 
BRANCH  26  28
ATOM     28  C   UNL     1     -38.275  24.249   1.332  0.00  0.00    +0.000 C 
BRANCH  28  29
ATOM     29  C   UNL     1     -37.568  25.279   2.219  0.00  0.00    +0.002 C 
BRANCH  29  30
ATOM     30  C   UNL     1     -37.580  24.839   3.692  0.00  0.00    +0.029 C 
BRANCH  30  31
ATOM     31  C   UNL     1     -36.288  25.166   4.472  0.00  0.00    +0.115 C 
ATOM     32  C   UNL     1     -35.215  25.658   3.491  0.00  0.00    +0.032 C 
BRANCH  31  33
ATOM     33  O   UNL     1     -36.577  26.243   5.370  0.00  0.00    -0.384 OA
ATOM     34  H   UNL     1     -37.491  26.540   5.236  0.00  0.00    +0.210 HD
ENDBRANCH  31  33
BRANCH  31  35
ATOM     35  C   UNL     1     -35.793  23.967   5.295  0.00  0.00    +0.164 C 
BRANCH  35  36
ATOM     36  O   UNL     1     -36.474  22.779   4.900  0.00  0.00    -0.380 OA
ATOM     37  H   UNL     1     -37.425  22.885   5.056  0.00  0.00    +0.211 HD
ENDBRANCH  35  36
ENDBRANCH  31  35
ENDBRANCH  30  31
ENDBRANCH  29  30
ENDBRANCH  28  29
ENDBRANCH  26  28
ENDBRANCH   6  26
TORSDOF 11
ENDMDL
