MODEL 1
REMARK VINA RESULT:      -5.8      0.000      0.000
REMARK  Name = 54721225
REMARK  6 active torsions:
REMARK  status: ('A' for Active; 'I' for Inactive)
REMARK    1  A    between atoms: C_4  and  N_14
REMARK    2  A    between atoms: C_5  and  C_25
REMARK    3  A    between atoms: C_8  and  O_26
REMARK    4  A    between atoms: C_10  and  O_28
REMARK    5  A    between atoms: C_15  and  C_17
REMARK    6  A    between atoms: C_17  and  N_19
REMARK                            x       y       z     vdW  Elec       q    Type
REMARK                         _______ _______ _______ _____ _____    ______ ____
ROOT
ATOM      1  O   UNL     1     -35.523  25.688   1.797  0.00  0.00    -0.449 OA
ATOM      2  O   UNL     1     -35.221  26.777   3.733  0.00  0.00    -0.245 OA
ATOM      3  C   UNL     1     -35.155  23.131   3.034  0.00  0.00    +0.055 C 
ATOM      4  C   UNL     1     -35.841  23.248   1.666  0.00  0.00    +0.115 C 
ATOM      5  C   UNL     1     -35.361  24.522   0.946  0.00  0.00    +0.181 C 
ATOM      6  C   UNL     1     -35.581  21.854   3.782  0.00  0.00    +0.036 C 
ATOM      7  C   UNL     1     -35.343  24.392   3.844  0.00  0.00    +0.084 C 
ATOM      8  C   UNL     1     -35.017  21.855   5.198  0.00  0.00    +0.118 C 
ATOM      9  C   UNL     1     -35.530  23.067   5.974  0.00  0.00    +0.093 C 
ATOM     10  C   UNL     1     -35.531  24.349   5.181  0.00  0.00    +0.116 C 
ATOM     11  C   UNL     1     -33.874  24.446   0.557  0.00  0.00    +0.048 C 
ATOM     12  C   UNL     1     -35.342  25.707   3.144  0.00  0.00    +0.340 C 
ENDROOT
BRANCH   4  14
ATOM     13  O   UNL     1     -37.652  21.309   0.547  0.00  0.00    -0.277 OA
ATOM     14  N   UNL     1     -37.286  23.227   1.798  0.00  0.00    -0.304 N 
ATOM     15  C   UNL     1     -38.075  22.246   1.220  0.00  0.00    +0.202 C 
ATOM     16  H   UNL     1     -37.723  23.938   2.320  0.00  0.00    +0.149 HD
BRANCH  15  17
ATOM     17  C   UNL     1     -39.556  22.471   1.503  0.00  0.00    +0.013 C 
ATOM     18  C   UNL     1     -39.741  23.666   2.429  0.00  0.00    -0.015 C 
BRANCH  17  19
ATOM     19  N   UNL     1     -40.092  21.262   2.124  0.00  0.00    +0.387 N 
ATOM     20  H   UNL     1     -40.791  21.519   2.820  0.00  0.00    -0.089 HD
ATOM     21  H   UNL     1     -39.335  20.748   2.575  0.00  0.00    -0.089 HD
ATOM     22  H   UNL     1     -40.523  20.675   1.410  0.00  0.00    -0.089 HD
ENDBRANCH  17  19
ENDBRANCH  15  17
ENDBRANCH   4  14
BRANCH   5  25
ATOM     23 CL   UNL     1     -35.066  25.089  -1.687  0.00  0.00    -0.093 Cl
ATOM     24 CL   UNL     1     -37.223  26.202  -0.077  0.00  0.00    -0.093 Cl
ATOM     25  C   UNL     1     -36.169  24.800  -0.331  0.00  0.00    +0.196 C 
ENDBRANCH   5  25
BRANCH   8  26
ATOM     26  O   UNL     1     -35.419  20.673   5.880  0.00  0.00    -0.384 OA
ATOM     27  H   UNL     1     -34.889  20.567   6.685  0.00  0.00    +0.210 HD
ENDBRANCH   8  26
BRANCH  10  28
ATOM     28  O   UNL     1     -35.750  25.487   5.935  0.00  0.00    -0.510 OA
ATOM     29  H   UNL     1     -36.625  25.787   6.087  0.00  0.00    +0.292 HD
ENDBRANCH  10  28
TORSDOF 6
ENDMDL
MODEL 2
REMARK VINA RESULT:      -5.4      2.036      2.571
REMARK  Name = 54721225
REMARK  6 active torsions:
REMARK  status: ('A' for Active; 'I' for Inactive)
REMARK    1  A    between atoms: C_4  and  N_14
REMARK    2  A    between atoms: C_5  and  C_25
REMARK    3  A    between atoms: C_8  and  O_26
REMARK    4  A    between atoms: C_10  and  O_28
REMARK    5  A    between atoms: C_15  and  C_17
REMARK    6  A    between atoms: C_17  and  N_19
REMARK                            x       y       z     vdW  Elec       q    Type
REMARK                         _______ _______ _______ _____ _____    ______ ____
ROOT
ATOM      1  O   UNL     1     -35.122  26.297   3.780  0.00  0.00    -0.449 OA
ATOM      2  O   UNL     1     -34.342  25.472   5.713  0.00  0.00    -0.245 OA
ATOM      3  C   UNL     1     -35.433  23.685   2.646  0.00  0.00    +0.055 C 
ATOM      4  C   UNL     1     -36.167  24.892   2.046  0.00  0.00    +0.115 C 
ATOM      5  C   UNL     1     -35.390  26.185   2.357  0.00  0.00    +0.181 C 
ATOM      6  C   UNL     1     -36.157  22.361   2.337  0.00  0.00    +0.036 C 
ATOM      7  C   UNL     1     -35.164  23.891   4.119  0.00  0.00    +0.084 C 
ATOM      8  C   UNL     1     -35.499  21.208   3.087  0.00  0.00    +0.118 C 
ATOM      9  C   UNL     1     -35.556  21.453   4.594  0.00  0.00    +0.093 C 
ATOM     10  C   UNL     1     -35.241  22.870   5.000  0.00  0.00    +0.116 C 
ATOM     11  C   UNL     1     -34.034  26.238   1.632  0.00  0.00    +0.048 C 
ATOM     12  C   UNL     1     -34.828  25.259   4.606  0.00  0.00    +0.340 C 
ENDROOT
BRANCH   4  14
ATOM     13  O   UNL     1     -38.565  24.528   0.495  0.00  0.00    -0.277 OA
ATOM     14  N   UNL     1     -37.535  24.968   2.525  0.00  0.00    -0.304 N 
ATOM     15  C   UNL     1     -38.628  24.776   1.696  0.00  0.00    +0.202 C 
ATOM     16  H   UNL     1     -37.691  25.162   3.477  0.00  0.00    +0.149 HD
BRANCH  15  17
ATOM     17  C   UNL     1     -39.944  24.925   2.451  0.00  0.00    +0.013 C 
ATOM     18  C   UNL     1     -40.642  26.217   2.046  0.00  0.00    -0.015 C 
BRANCH  17  19
ATOM     19  N   UNL     1     -39.652  24.935   3.882  0.00  0.00    +0.387 N 
ATOM     20  H   UNL     1     -39.650  25.897   4.222  0.00  0.00    -0.089 HD
ATOM     21  H   UNL     1     -38.736  24.516   4.045  0.00  0.00    -0.089 HD
ATOM     22  H   UNL     1     -40.365  24.401   4.379  0.00  0.00    -0.089 HD
ENDBRANCH  17  19
ENDBRANCH  15  17
ENDBRANCH   4  14
BRANCH   5  25
ATOM     23 CL   UNL     1     -36.494  27.432   0.220  0.00  0.00    -0.093 Cl
ATOM     24 CL   UNL     1     -35.277  28.890   2.428  0.00  0.00    -0.093 Cl
ATOM     25  C   UNL     1     -36.184  27.441   1.964  0.00  0.00    +0.196 C 
ENDBRANCH   5  25
BRANCH   8  26
ATOM     26  O   UNL     1     -36.178  19.992   2.796  0.00  0.00    -0.384 OA
ATOM     27  H   UNL     1     -35.604  19.241   3.013  0.00  0.00    +0.210 HD
ENDBRANCH   8  26
BRANCH  10  28
ATOM     28  O   UNL     1     -35.043  23.046   6.356  0.00  0.00    -0.510 OA
ATOM     29  H   UNL     1     -35.256  22.356   6.954  0.00  0.00    +0.292 HD
ENDBRANCH  10  28
TORSDOF 6
ENDMDL
MODEL 3
REMARK VINA RESULT:      -5.4      2.668      5.040
REMARK  Name = 54721225
REMARK  6 active torsions:
REMARK  status: ('A' for Active; 'I' for Inactive)
REMARK    1  A    between atoms: C_4  and  N_14
REMARK    2  A    between atoms: C_5  and  C_25
REMARK    3  A    between atoms: C_8  and  O_26
REMARK    4  A    between atoms: C_10  and  O_28
REMARK    5  A    between atoms: C_15  and  C_17
REMARK    6  A    between atoms: C_17  and  N_19
REMARK                            x       y       z     vdW  Elec       q    Type
REMARK                         _______ _______ _______ _____ _____    ______ ____
ROOT
ATOM      1  O   UNL     1     -37.644  24.083   1.096  0.00  0.00    -0.449 OA
ATOM      2  O   UNL     1     -36.854  23.835  -0.986  0.00  0.00    -0.245 OA
ATOM      3  C   UNL     1     -36.448  21.634   1.977  0.00  0.00    +0.055 C 
ATOM      4  C   UNL     1     -36.894  22.697   2.990  0.00  0.00    +0.115 C 
ATOM      5  C   UNL     1     -38.028  23.549   2.391  0.00  0.00    +0.181 C 
ATOM      6  C   UNL     1     -35.332  20.735   2.542  0.00  0.00    +0.036 C 
ATOM      7  C   UNL     1     -36.096  22.264   0.650  0.00  0.00    +0.084 C 
ATOM      8  C   UNL     1     -34.798  19.807   1.456  0.00  0.00    +0.118 C 
ATOM      9  C   UNL     1     -34.227  20.619   0.295  0.00  0.00    +0.093 C 
ATOM     10  C   UNL     1     -35.070  21.805  -0.100  0.00  0.00    +0.116 C 
ATOM     11  C   UNL     1     -39.319  22.738   2.185  0.00  0.00    +0.048 C 
ATOM     12  C   UNL     1     -36.889  23.433   0.173  0.00  0.00    +0.340 C 
ENDROOT
BRANCH   4  14
ATOM     13  O   UNL     1     -36.006  23.156   5.691  0.00  0.00    -0.277 OA
ATOM     14  N   UNL     1     -35.778  23.523   3.413  0.00  0.00    -0.304 N 
ATOM     15  C   UNL     1     -35.427  23.681   4.743  0.00  0.00    +0.202 C 
ATOM     16  H   UNL     1     -35.248  23.988   2.725  0.00  0.00    +0.149 HD
BRANCH  15  17
ATOM     17  C   UNL     1     -34.229  24.609   4.907  0.00  0.00    +0.013 C 
ATOM     18  C   UNL     1     -34.592  25.786   5.803  0.00  0.00    -0.015 C 
BRANCH  17  19
ATOM     19  N   UNL     1     -33.834  25.085   3.583  0.00  0.00    +0.387 N 
ATOM     20  H   UNL     1     -33.059  24.519   3.236  0.00  0.00    -0.089 HD
ATOM     21  H   UNL     1     -33.541  26.060   3.646  0.00  0.00    -0.089 HD
ATOM     22  H   UNL     1     -34.624  25.006   2.944  0.00  0.00    -0.089 HD
ENDBRANCH  17  19
ENDBRANCH  15  17
ENDBRANCH   4  14
BRANCH   5  25
ATOM     23 CL   UNL     1     -40.126  24.927   3.413  0.00  0.00    -0.093 Cl
ATOM     24 CL   UNL     1     -37.655  26.226   2.583  0.00  0.00    -0.093 Cl
ATOM     25  C   UNL     1     -38.368  24.759   3.277  0.00  0.00    +0.196 C 
ENDBRANCH   5  25
BRANCH   8  26
ATOM     26  O   UNL     1     -33.767  18.984   1.988  0.00  0.00    -0.384 OA
ATOM     27  H   UNL     1     -33.888  18.073   1.678  0.00  0.00    +0.210 HD
ENDBRANCH   8  26
BRANCH  10  28
ATOM     28  O   UNL     1     -34.703  22.395  -1.295  0.00  0.00    -0.510 OA
ATOM     29  H   UNL     1     -35.361  22.704  -1.886  0.00  0.00    +0.292 HD
ENDBRANCH  10  28
TORSDOF 6
ENDMDL
MODEL 4
REMARK VINA RESULT:      -5.4      2.538      4.578
REMARK  Name = 54721225
REMARK  6 active torsions:
REMARK  status: ('A' for Active; 'I' for Inactive)
REMARK    1  A    between atoms: C_4  and  N_14
REMARK    2  A    between atoms: C_5  and  C_25
REMARK    3  A    between atoms: C_8  and  O_26
REMARK    4  A    between atoms: C_10  and  O_28
REMARK    5  A    between atoms: C_15  and  C_17
REMARK    6  A    between atoms: C_17  and  N_19
REMARK                            x       y       z     vdW  Elec       q    Type
REMARK                         _______ _______ _______ _____ _____    ______ ____
ROOT
ATOM      1  O   UNL     1     -35.563  23.318   3.958  0.00  0.00    -0.449 OA
ATOM      2  O   UNL     1     -35.400  21.099   4.228  0.00  0.00    -0.245 OA
ATOM      3  C   UNL     1     -36.223  23.058   1.183  0.00  0.00    +0.055 C 
ATOM      4  C   UNL     1     -36.526  24.357   1.942  0.00  0.00    +0.115 C 
ATOM      5  C   UNL     1     -35.555  24.510   3.128  0.00  0.00    +0.181 C 
ATOM      6  C   UNL     1     -37.152  22.875  -0.032  0.00  0.00    +0.036 C 
ATOM      7  C   UNL     1     -36.219  21.872   2.119  0.00  0.00    +0.084 C 
ATOM      8  C   UNL     1     -36.940  21.501  -0.659  0.00  0.00    +0.118 C 
ATOM      9  C   UNL     1     -37.245  20.400   0.356  0.00  0.00    +0.093 C 
ATOM     10  C   UNL     1     -36.704  20.670   1.737  0.00  0.00    +0.116 C 
ATOM     11  C   UNL     1     -34.104  24.734   2.667  0.00  0.00    +0.048 C 
ATOM     12  C   UNL     1     -35.687  22.045   3.500  0.00  0.00    +0.340 C 
ENDROOT
BRANCH   4  14
ATOM     13  O   UNL     1     -38.491  26.352   1.270  0.00  0.00    -0.277 OA
ATOM     14  N   UNL     1     -37.908  24.401   2.381  0.00  0.00    -0.304 N 
ATOM     15  C   UNL     1     -38.781  25.408   2.001  0.00  0.00    +0.202 C 
ATOM     16  H   UNL     1     -38.239  23.687   2.972  0.00  0.00    +0.149 HD
BRANCH  15  17
ATOM     17  C   UNL     1     -40.164  25.219   2.614  0.00  0.00    +0.013 C 
ATOM     18  C   UNL     1     -41.044  26.425   2.311  0.00  0.00    -0.015 C 
BRANCH  17  19
ATOM     19  N   UNL     1     -40.007  25.058   4.057  0.00  0.00    +0.387 N 
ATOM     20  H   UNL     1     -39.959  24.065   4.285  0.00  0.00    -0.089 HD
ATOM     21  H   UNL     1     -40.805  25.478   4.535  0.00  0.00    -0.089 HD
ATOM     22  H   UNL     1     -39.148  25.517   4.360  0.00  0.00    -0.089 HD
ENDBRANCH  17  19
ENDBRANCH  15  17
ENDBRANCH   4  14
BRANCH   5  25
ATOM     23 CL   UNL     1     -35.437  27.211   3.310  0.00  0.00    -0.093 Cl
ATOM     24 CL   UNL     1     -35.191  25.472   5.634  0.00  0.00    -0.093 Cl
ATOM     25  C   UNL     1     -35.945  25.680   4.044  0.00  0.00    +0.196 C 
ENDBRANCH   5  25
BRANCH   8  26
ATOM     26  O   UNL     1     -37.804  21.342  -1.778  0.00  0.00    -0.384 OA
ATOM     27  H   UNL     1     -37.362  21.670  -2.577  0.00  0.00    +0.210 HD
ENDBRANCH   8  26
BRANCH  10  28
ATOM     28  O   UNL     1     -36.751  19.585   2.591  0.00  0.00    -0.510 OA
ATOM     29  H   UNL     1     -37.187  18.799   2.327  0.00  0.00    +0.292 HD
ENDBRANCH  10  28
TORSDOF 6
ENDMDL
MODEL 5
REMARK VINA RESULT:      -5.3      1.722      1.998
REMARK  Name = 54721225
REMARK  6 active torsions:
REMARK  status: ('A' for Active; 'I' for Inactive)
REMARK    1  A    between atoms: C_4  and  N_14
REMARK    2  A    between atoms: C_5  and  C_25
REMARK    3  A    between atoms: C_8  and  O_26
REMARK    4  A    between atoms: C_10  and  O_28
REMARK    5  A    between atoms: C_15  and  C_17
REMARK    6  A    between atoms: C_17  and  N_19
REMARK                            x       y       z     vdW  Elec       q    Type
REMARK                         _______ _______ _______ _____ _____    ______ ____
ROOT
ATOM      1  O   UNL     1     -34.730  24.824   0.836  0.00  0.00    -0.449 OA
ATOM      2  O   UNL     1     -33.246  25.843   2.171  0.00  0.00    -0.245 OA
ATOM      3  C   UNL     1     -35.434  22.923   2.859  0.00  0.00    +0.055 C 
ATOM      4  C   UNL     1     -36.357  23.166   1.656  0.00  0.00    +0.115 C 
ATOM      5  C   UNL     1     -35.534  23.675   0.458  0.00  0.00    +0.181 C 
ATOM      6  C   UNL     1     -36.209  22.384   4.076  0.00  0.00    +0.036 C 
ATOM      7  C   UNL     1     -34.611  24.152   3.167  0.00  0.00    +0.084 C 
ATOM      8  C   UNL     1     -35.297  22.317   5.297  0.00  0.00    +0.118 C 
ATOM      9  C   UNL     1     -34.761  23.706   5.638  0.00  0.00    +0.093 C 
ATOM     10  C   UNL     1     -34.326  24.509   4.439  0.00  0.00    +0.116 C 
ATOM     11  C   UNL     1     -34.571  22.604  -0.084  0.00  0.00    +0.048 C 
ATOM     12  C   UNL     1     -34.125  24.997   2.040  0.00  0.00    +0.340 C 
ENDROOT
BRANCH   4  14
ATOM     13  O   UNL     1     -39.170  22.568   1.797  0.00  0.00    -0.277 OA
ATOM     14  N   UNL     1     -37.428  24.086   1.992  0.00  0.00    -0.304 N 
ATOM     15  C   UNL     1     -38.758  23.701   2.034  0.00  0.00    +0.202 C 
ATOM     16  H   UNL     1     -37.200  25.021   2.199  0.00  0.00    +0.149 HD
BRANCH  15  17
ATOM     17  C   UNL     1     -39.673  24.864   2.398  0.00  0.00    +0.013 C 
ATOM     18  C   UNL     1     -39.141  26.161   1.803  0.00  0.00    -0.015 C 
BRANCH  17  19
ATOM     19  N   UNL     1     -39.731  24.962   3.854  0.00  0.00    +0.387 N 
ATOM     20  H   UNL     1     -39.392  24.094   4.268  0.00  0.00    -0.089 HD
ATOM     21  H   UNL     1     -40.695  25.124   4.146  0.00  0.00    -0.089 HD
ATOM     22  H   UNL     1     -39.146  25.738   4.166  0.00  0.00    -0.089 HD
ENDBRANCH  17  19
ENDBRANCH  15  17
ENDBRANCH   4  14
BRANCH   5  25
ATOM     23 CL   UNL     1     -37.378  22.763  -1.305  0.00  0.00    -0.093 Cl
ATOM     24 CL   UNL     1     -35.431  24.817  -1.996  0.00  0.00    -0.093 Cl
ATOM     25  C   UNL     1     -36.431  24.134  -0.702  0.00  0.00    +0.196 C 
ENDBRANCH   5  25
BRANCH   8  26
ATOM     26  O   UNL     1     -36.024  21.820   6.415  0.00  0.00    -0.384 OA
ATOM     27  H   UNL     1     -35.485  21.164   6.885  0.00  0.00    +0.210 HD
ENDBRANCH   8  26
BRANCH  10  28
ATOM     28  O   UNL     1     -33.614  25.653   4.745  0.00  0.00    -0.510 OA
ATOM     29  H   UNL     1     -32.677  25.632   4.756  0.00  0.00    +0.292 HD
ENDBRANCH  10  28
TORSDOF 6
ENDMDL
MODEL 6
REMARK VINA RESULT:      -5.2      2.586      3.980
REMARK  Name = 54721225
REMARK  6 active torsions:
REMARK  status: ('A' for Active; 'I' for Inactive)
REMARK    1  A    between atoms: C_4  and  N_14
REMARK    2  A    between atoms: C_5  and  C_25
REMARK    3  A    between atoms: C_8  and  O_26
REMARK    4  A    between atoms: C_10  and  O_28
REMARK    5  A    between atoms: C_15  and  C_17
REMARK    6  A    between atoms: C_17  and  N_19
REMARK                            x       y       z     vdW  Elec       q    Type
REMARK                         _______ _______ _______ _____ _____    ______ ____
ROOT
ATOM      1  O   UNL     1     -37.144  25.493   3.772  0.00  0.00    -0.449 OA
ATOM      2  O   UNL     1     -35.756  26.587   5.149  0.00  0.00    -0.245 OA
ATOM      3  C   UNL     1     -35.177  25.355   1.695  0.00  0.00    +0.055 C 
ATOM      4  C   UNL     1     -36.393  24.419   1.684  0.00  0.00    +0.115 C 
ATOM      5  C   UNL     1     -37.563  25.072   2.446  0.00  0.00    +0.181 C 
ATOM      6  C   UNL     1     -33.988  24.758   0.919  0.00  0.00    +0.036 C 
ATOM      7  C   UNL     1     -34.825  25.771   3.104  0.00  0.00    +0.084 C 
ATOM      8  C   UNL     1     -32.749  25.630   1.093  0.00  0.00    +0.118 C 
ATOM      9  C   UNL     1     -32.368  25.725   2.569  0.00  0.00    +0.093 C 
ATOM     10  C   UNL     1     -33.541  25.919   3.496  0.00  0.00    +0.116 C 
ATOM     11  C   UNL     1     -38.105  26.317   1.723  0.00  0.00    +0.048 C 
ATOM     12  C   UNL     1     -35.924  26.001   4.084  0.00  0.00    +0.340 C 
ENDROOT
BRANCH   4  14
ATOM     13  O   UNL     1     -36.353  21.905   0.282  0.00  0.00    -0.277 OA
ATOM     14  N   UNL     1     -36.063  23.119   2.237  0.00  0.00    -0.304 N 
ATOM     15  C   UNL     1     -36.071  21.961   1.477  0.00  0.00    +0.202 C 
ATOM     16  H   UNL     1     -35.822  23.058   3.189  0.00  0.00    +0.149 HD
BRANCH  15  17
ATOM     17  C   UNL     1     -35.699  20.737   2.306  0.00  0.00    +0.013 C 
ATOM     18  C   UNL     1     -34.519  20.010   1.674  0.00  0.00    -0.015 C 
BRANCH  17  19
ATOM     19  N   UNL     1     -36.862  19.855   2.367  0.00  0.00    +0.387 N 
ATOM     20  H   UNL     1     -37.030  19.580   3.335  0.00  0.00    -0.089 HD
ATOM     21  H   UNL     1     -36.687  19.023   1.802  0.00  0.00    -0.089 HD
ATOM     22  H   UNL     1     -37.680  20.345   2.007  0.00  0.00    -0.089 HD
ENDBRANCH  17  19
ENDBRANCH  15  17
ENDBRANCH   4  14
BRANCH   5  25
ATOM     23 CL   UNL     1     -39.343  23.558   1.074  0.00  0.00    -0.093 Cl
ATOM     24 CL   UNL     1     -40.018  24.889   3.575  0.00  0.00    -0.093 Cl
ATOM     25  C   UNL     1     -38.733  24.096   2.648  0.00  0.00    +0.196 C 
ENDBRANCH   5  25
BRANCH   8  26
ATOM     26  O   UNL     1     -31.657  25.068   0.374  0.00  0.00    -0.384 OA
ATOM     27  H   UNL     1     -30.946  24.840   0.993  0.00  0.00    +0.210 HD
ENDBRANCH   8  26
BRANCH  10  28
ATOM     28  O   UNL     1     -33.196  26.255   4.792  0.00  0.00    -0.510 OA
ATOM     29  H   UNL     1     -33.476  25.717   5.506  0.00  0.00    +0.292 HD
ENDBRANCH  10  28
TORSDOF 6
ENDMDL
MODEL 7
REMARK VINA RESULT:      -5.2      2.761      5.006
REMARK  Name = 54721225
REMARK  6 active torsions:
REMARK  status: ('A' for Active; 'I' for Inactive)
REMARK    1  A    between atoms: C_4  and  N_14
REMARK    2  A    between atoms: C_5  and  C_25
REMARK    3  A    between atoms: C_8  and  O_26
REMARK    4  A    between atoms: C_10  and  O_28
REMARK    5  A    between atoms: C_15  and  C_17
REMARK    6  A    between atoms: C_17  and  N_19
REMARK                            x       y       z     vdW  Elec       q    Type
REMARK                         _______ _______ _______ _____ _____    ______ ____
ROOT
ATOM      1  O   UNL     1     -35.992  25.065   2.181  0.00  0.00    -0.449 OA
ATOM      2  O   UNL     1     -36.911  26.084   0.409  0.00  0.00    -0.245 OA
ATOM      3  C   UNL     1     -38.098  23.128   2.317  0.00  0.00    +0.055 C 
ATOM      4  C   UNL     1     -36.753  22.874   3.013  0.00  0.00    +0.115 C 
ATOM      5  C   UNL     1     -36.079  24.216   3.356  0.00  0.00    +0.181 C 
ATOM      6  C   UNL     1     -38.826  21.813   1.979  0.00  0.00    +0.036 C 
ATOM      7  C   UNL     1     -37.928  24.042   1.126  0.00  0.00    +0.084 C 
ATOM      8  C   UNL     1     -40.068  22.096   1.141  0.00  0.00    +0.118 C 
ATOM      9  C   UNL     1     -39.684  22.788  -0.165  0.00  0.00    +0.093 C 
ATOM     10  C   UNL     1     -38.643  23.867  -0.006  0.00  0.00    +0.116 C 
ATOM     11  C   UNL     1     -36.856  25.000   4.428  0.00  0.00    +0.048 C 
ATOM     12  C   UNL     1     -36.931  25.148   1.202  0.00  0.00    +0.340 C 
ENDROOT
BRANCH   4  14
ATOM     13  O   UNL     1     -35.380  20.482   3.840  0.00  0.00    -0.277 OA
ATOM     14  N   UNL     1     -35.888  22.040   2.199  0.00  0.00    -0.304 N 
ATOM     15  C   UNL     1     -35.270  20.902   2.691  0.00  0.00    +0.202 C 
ATOM     16  H   UNL     1     -35.736  22.293   1.260  0.00  0.00    +0.149 HD
BRANCH  15  17
ATOM     17  C   UNL     1     -34.409  20.223   1.632  0.00  0.00    +0.013 C 
ATOM     18  C   UNL     1     -33.996  21.227   0.564  0.00  0.00    -0.015 C 
BRANCH  17  19
ATOM     19  N   UNL     1     -35.187  19.140   1.035  0.00  0.00    +0.387 N 
ATOM     20  H   UNL     1     -35.132  18.314   1.629  0.00  0.00    -0.089 HD
ATOM     21  H   UNL     1     -34.810  18.921   0.112  0.00  0.00    -0.089 HD
ATOM     22  H   UNL     1     -36.160  19.430   0.945  0.00  0.00    -0.089 HD
ENDBRANCH  17  19
ENDBRANCH  15  17
ENDBRANCH   4  14
BRANCH   5  25
ATOM     23 CL   UNL     1     -34.666  23.375   5.510  0.00  0.00    -0.093 Cl
ATOM     24 CL   UNL     1     -33.779  25.572   3.815  0.00  0.00    -0.093 Cl
ATOM     25  C   UNL     1     -34.640  24.024   3.861  0.00  0.00    +0.196 C 
ENDBRANCH   5  25
BRANCH   8  26
ATOM     26  O   UNL     1     -40.731  20.874   0.833  0.00  0.00    -0.384 OA
ATOM     27  H   UNL     1     -41.679  21.041   0.717  0.00  0.00    +0.210 HD
ENDBRANCH   8  26
BRANCH  10  28
ATOM     28  O   UNL     1     -38.471  24.664  -1.122  0.00  0.00    -0.510 OA
ATOM     29  H   UNL     1     -39.199  25.133  -1.479  0.00  0.00    +0.292 HD
ENDBRANCH  10  28
TORSDOF 6
ENDMDL
MODEL 8
REMARK VINA RESULT:      -5.2      3.334      5.961
REMARK  Name = 54721225
REMARK  6 active torsions:
REMARK  status: ('A' for Active; 'I' for Inactive)
REMARK    1  A    between atoms: C_4  and  N_14
REMARK    2  A    between atoms: C_5  and  C_25
REMARK    3  A    between atoms: C_8  and  O_26
REMARK    4  A    between atoms: C_10  and  O_28
REMARK    5  A    between atoms: C_15  and  C_17
REMARK    6  A    between atoms: C_17  and  N_19
REMARK                            x       y       z     vdW  Elec       q    Type
REMARK                         _______ _______ _______ _____ _____    ______ ____
ROOT
ATOM      1  O   UNL     1     -37.126  23.982   4.135  0.00  0.00    -0.449 OA
ATOM      2  O   UNL     1     -39.198  24.375   3.375  0.00  0.00    -0.245 OA
ATOM      3  C   UNL     1     -36.006  24.083   1.501  0.00  0.00    +0.055 C 
ATOM      4  C   UNL     1     -35.113  24.245   2.739  0.00  0.00    +0.115 C 
ATOM      5  C   UNL     1     -35.757  23.536   3.946  0.00  0.00    +0.181 C 
ATOM      6  C   UNL     1     -35.388  24.751   0.258  0.00  0.00    +0.036 C 
ATOM      7  C   UNL     1     -37.417  24.539   1.788  0.00  0.00    +0.084 C 
ATOM      8  C   UNL     1     -36.374  24.721  -0.905  0.00  0.00    +0.118 C 
ATOM      9  C   UNL     1     -37.654  25.468  -0.537  0.00  0.00    +0.093 C 
ATOM     10  C   UNL     1     -38.153  25.185   0.857  0.00  0.00    +0.116 C 
ATOM     11  C   UNL     1     -35.796  22.008   3.771  0.00  0.00    +0.048 C 
ATOM     12  C   UNL     1     -37.997  24.286   3.137  0.00  0.00    +0.340 C 
ENDROOT
BRANCH   4  14
ATOM     13  O   UNL     1     -32.539  25.508   3.000  0.00  0.00    -0.277 OA
ATOM     14  N   UNL     1     -34.854  25.644   3.023  0.00  0.00    -0.304 N 
ATOM     15  C   UNL     1     -33.572  26.159   3.129  0.00  0.00    +0.202 C 
ATOM     16  H   UNL     1     -35.619  26.251   3.144  0.00  0.00    +0.149 HD
BRANCH  15  17
ATOM     17  C   UNL     1     -33.586  27.650   3.446  0.00  0.00    +0.013 C 
ATOM     18  C   UNL     1     -32.679  27.946   4.633  0.00  0.00    -0.015 C 
BRANCH  17  19
ATOM     19  N   UNL     1     -34.961  28.041   3.750  0.00  0.00    +0.387 N 
ATOM     20  H   UNL     1     -35.579  27.240   3.619  0.00  0.00    -0.089 HD
ATOM     21  H   UNL     1     -35.245  28.796   3.125  0.00  0.00    -0.089 HD
ATOM     22  H   UNL     1     -35.018  28.359   4.717  0.00  0.00    -0.089 HD
ENDBRANCH  17  19
ENDBRANCH  15  17
ENDBRANCH   4  14
BRANCH   5  25
ATOM     23 CL   UNL     1     -35.187  22.480   6.375  0.00  0.00    -0.093 Cl
ATOM     24 CL   UNL     1     -35.664  25.326   5.977  0.00  0.00    -0.093 Cl
ATOM     25  C   UNL     1     -35.015  23.843   5.256  0.00  0.00    +0.196 C 
ENDBRANCH   5  25
BRANCH   8  26
ATOM     26  O   UNL     1     -35.794  25.342  -2.046  0.00  0.00    -0.384 OA
ATOM     27  H   UNL     1     -36.378  25.224  -2.811  0.00  0.00    +0.210 HD
ENDBRANCH   8  26
BRANCH  10  28
ATOM     28  O   UNL     1     -39.429  25.650   1.113  0.00  0.00    -0.510 OA
ATOM     29  H   UNL     1     -39.557  26.530   1.410  0.00  0.00    +0.292 HD
ENDBRANCH  10  28
TORSDOF 6
ENDMDL
MODEL 9
REMARK VINA RESULT:      -5.0      2.589      4.422
REMARK  Name = 54721225
REMARK  6 active torsions:
REMARK  status: ('A' for Active; 'I' for Inactive)
REMARK    1  A    between atoms: C_4  and  N_14
REMARK    2  A    between atoms: C_5  and  C_25
REMARK    3  A    between atoms: C_8  and  O_26
REMARK    4  A    between atoms: C_10  and  O_28
REMARK    5  A    between atoms: C_15  and  C_17
REMARK    6  A    between atoms: C_17  and  N_19
REMARK                            x       y       z     vdW  Elec       q    Type
REMARK                         _______ _______ _______ _____ _____    ______ ____
ROOT
ATOM      1  O   UNL     1     -34.044  24.586   0.479  0.00  0.00    -0.449 OA
ATOM      2  O   UNL     1     -32.441  23.212  -0.273  0.00  0.00    -0.245 OA
ATOM      3  C   UNL     1     -35.932  22.447   0.732  0.00  0.00    +0.055 C 
ATOM      4  C   UNL     1     -36.149  23.775   1.471  0.00  0.00    +0.115 C 
ATOM      5  C   UNL     1     -35.438  24.915   0.718  0.00  0.00    +0.181 C 
ATOM      6  C   UNL     1     -36.650  21.278   1.433  0.00  0.00    +0.036 C 
ATOM      7  C   UNL     1     -34.462  22.192   0.496  0.00  0.00    +0.084 C 
ATOM      8  C   UNL     1     -36.275  19.955   0.774  0.00  0.00    +0.118 C 
ATOM      9  C   UNL     1     -34.768  19.723   0.864  0.00  0.00    +0.093 C 
ATOM     10  C   UNL     1     -33.939  20.949   0.576  0.00  0.00    +0.116 C 
ATOM     11  C   UNL     1     -36.080  25.198  -0.652  0.00  0.00    +0.048 C 
ATOM     12  C   UNL     1     -33.570  23.346   0.188  0.00  0.00    +0.340 C 
ENDROOT
BRANCH   4  14
ATOM     13  O   UNL     1     -37.755  24.125   3.835  0.00  0.00    -0.277 OA
ATOM     14  N   UNL     1     -35.702  23.691   2.849  0.00  0.00    -0.304 N 
ATOM     15  C   UNL     1     -36.555  23.875   3.924  0.00  0.00    +0.202 C 
ATOM     16  H   UNL     1     -34.753  23.495   3.026  0.00  0.00    +0.149 HD
BRANCH  15  17
ATOM     17  C   UNL     1     -35.825  23.746   5.255  0.00  0.00    +0.013 C 
ATOM     18  C   UNL     1     -34.340  24.035   5.073  0.00  0.00    -0.015 C 
BRANCH  17  19
ATOM     19  N   UNL     1     -36.019  22.387   5.755  0.00  0.00    +0.387 N 
ATOM     20  H   UNL     1     -35.707  22.334   6.724  0.00  0.00    -0.089 HD
ATOM     21  H   UNL     1     -35.477  21.736   5.186  0.00  0.00    -0.089 HD
ATOM     22  H   UNL     1     -37.008  22.143   5.702  0.00  0.00    -0.089 HD
ENDBRANCH  17  19
ENDBRANCH  15  17
ENDBRANCH   4  14
BRANCH   5  25
ATOM     23 CL   UNL     1     -37.105  26.818   1.688  0.00  0.00    -0.093 Cl
ATOM     24 CL   UNL     1     -34.433  27.431   0.704  0.00  0.00    -0.093 Cl
ATOM     25  C   UNL     1     -35.444  26.226   1.521  0.00  0.00    +0.196 C 
ENDBRANCH   5  25
BRANCH   8  26
ATOM     26  O   UNL     1     -36.942  18.883   1.430  0.00  0.00    -0.384 OA
ATOM     27  H   UNL     1     -36.477  18.668   2.254  0.00  0.00    +0.210 HD
ENDBRANCH   8  26
BRANCH  10  28
ATOM     28  O   UNL     1     -32.590  20.701   0.408  0.00  0.00    -0.510 OA
ATOM     29  H   UNL     1     -32.255  19.833   0.525  0.00  0.00    +0.292 HD
ENDBRANCH  10  28
TORSDOF 6
ENDMDL
