MODEL 1
REMARK VINA RESULT:      -5.1      0.000      0.000
REMARK  Name = 54748
REMARK  9 active torsions:
REMARK  status: ('A' for Active; 'I' for Inactive)
REMARK    1  A    between atoms: C_2  and  N_8
REMARK    2  A    between atoms: C_3  and  O_17
REMARK    3  A    between atoms: C_4  and  O_19
REMARK    4  A    between atoms: C_5  and  C_23
REMARK    5  A    between atoms: C_6  and  O_21
REMARK    6  A    between atoms: N_9  and  N_13
REMARK    7  A    between atoms: N_9  and  C_14
REMARK    8  A    between atoms: C_14  and  C_16
REMARK    9  A    between atoms: C_23  and  O_24
REMARK                            x       y       z     vdW  Elec       q    Type
REMARK                         _______ _______ _______ _____ _____    ______ ____
ROOT
ATOM      1  O   UNL     1     -36.751  24.395   4.830  0.00  0.00    -0.326 OA
ATOM      2  C   UNL     1     -34.588  25.661   3.390  0.00  0.00    +0.134 C 
ATOM      3  C   UNL     1     -34.468  24.250   3.984  0.00  0.00    +0.160 C 
ATOM      4  C   UNL     1     -36.048  26.121   3.249  0.00  0.00    +0.187 C 
ATOM      5  C   UNL     1     -35.407  24.050   5.180  0.00  0.00    +0.175 C 
ATOM      6  C   UNL     1     -36.914  25.767   4.461  0.00  0.00    +0.262 C 
ENDROOT
BRANCH   2   8
ATOM      7  O   UNL     1     -32.887  27.661   2.370  0.00  0.00    -0.251 OA
ATOM      8  N   UNL     1     -33.830  26.605   4.182  0.00  0.00    -0.284 N 
ATOM      9  N   UNL     1     -32.340  28.410   4.494  0.00  0.00    -0.163 N 
ATOM     10  C   UNL     1     -33.009  27.564   3.596  0.00  0.00    +0.320 C 
ATOM     11  H   UNL     1     -33.895  26.567   5.164  0.00  0.00    +0.151 HD
BRANCH   9  13
ATOM     12  O   UNL     1     -32.074  27.189   6.408  0.00  0.00    -0.078 OA
ATOM     13  N   UNL     1     -32.534  28.246   5.964  0.00  0.00    +0.054 NA
ENDBRANCH   9  13
BRANCH   9  14
ATOM     14  C   UNL     1     -31.449  29.463   4.024  0.00  0.00    +0.134 C 
BRANCH  14  16
ATOM     15 CL   UNL     1     -33.566  31.111   3.516  0.00  0.00    -0.112 Cl
ATOM     16  C   UNL     1     -31.990  30.854   4.308  0.00  0.00    +0.118 C 
ENDBRANCH  14  16
ENDBRANCH   9  14
ENDBRANCH   2   8
BRANCH   3  17
ATOM     17  O   UNL     1     -34.737  23.291   2.961  0.00  0.00    -0.380 OA
ATOM     18  H   UNL     1     -34.056  22.601   2.977  0.00  0.00    +0.211 HD
ENDBRANCH   3  17
BRANCH   4  19
ATOM     19  O   UNL     1     -36.610  25.529   2.075  0.00  0.00    -0.378 OA
ATOM     20  H   UNL     1     -37.540  25.306   2.238  0.00  0.00    +0.211 HD
ENDBRANCH   4  19
BRANCH   6  21
ATOM     21  O   UNL     1     -36.623  26.655   5.536  0.00  0.00    -0.358 OA
ATOM     22  H   UNL     1     -36.828  26.221   6.379  0.00  0.00    +0.213 HD
ENDBRANCH   6  21
BRANCH   5  23
ATOM     23  C   UNL     1     -35.422  22.607   5.673  0.00  0.00    +0.169 C 
BRANCH  23  24
ATOM     24  O   UNL     1     -36.180  21.832   4.764  0.00  0.00    -0.379 OA
ATOM     25  H   UNL     1     -35.868  20.914   4.783  0.00  0.00    +0.211 HD
ENDBRANCH  23  24
ENDBRANCH   5  23
TORSDOF 9
ENDMDL
MODEL 2
REMARK VINA RESULT:      -5.0      3.471      3.740
REMARK  Name = 54748
REMARK  9 active torsions:
REMARK  status: ('A' for Active; 'I' for Inactive)
REMARK    1  A    between atoms: C_2  and  N_8
REMARK    2  A    between atoms: C_3  and  O_17
REMARK    3  A    between atoms: C_4  and  O_19
REMARK    4  A    between atoms: C_5  and  C_23
REMARK    5  A    between atoms: C_6  and  O_21
REMARK    6  A    between atoms: N_9  and  N_13
REMARK    7  A    between atoms: N_9  and  C_14
REMARK    8  A    between atoms: C_14  and  C_16
REMARK    9  A    between atoms: C_23  and  O_24
REMARK                            x       y       z     vdW  Elec       q    Type
REMARK                         _______ _______ _______ _____ _____    ______ ____
ROOT
ATOM      1  O   UNL     1     -36.026  24.126   6.049  0.00  0.00    -0.326 OA
ATOM      2  C   UNL     1     -35.697  24.393   3.190  0.00  0.00    +0.134 C 
ATOM      3  C   UNL     1     -35.618  23.036   3.905  0.00  0.00    +0.160 C 
ATOM      4  C   UNL     1     -36.387  25.470   4.040  0.00  0.00    +0.187 C 
ATOM      5  C   UNL     1     -35.188  23.185   5.371  0.00  0.00    +0.175 C 
ATOM      6  C   UNL     1     -35.958  25.449   5.510  0.00  0.00    +0.262 C 
ENDROOT
BRANCH   2   8
ATOM      7  O   UNL     1     -34.948  25.175   0.591  0.00  0.00    -0.251 OA
ATOM      8  N   UNL     1     -34.376  24.826   2.789  0.00  0.00    -0.284 N 
ATOM      9  N   UNL     1     -32.765  25.596   1.245  0.00  0.00    -0.163 N 
ATOM     10  C   UNL     1     -34.090  25.196   1.479  0.00  0.00    +0.320 C 
ATOM     11  H   UNL     1     -33.659  24.859   3.463  0.00  0.00    +0.151 HD
BRANCH   9  13
ATOM     12  O   UNL     1     -31.980  26.491   3.197  0.00  0.00    -0.078 OA
ATOM     13  N   UNL     1     -31.776  25.604   2.362  0.00  0.00    +0.054 NA
ENDBRANCH   9  13
BRANCH   9  14
ATOM     14  C   UNL     1     -32.321  26.013  -0.078  0.00  0.00    +0.134 C 
BRANCH  14  16
ATOM     15 CL   UNL     1     -32.003  23.367  -0.671  0.00  0.00    -0.112 Cl
ATOM     16  C   UNL     1     -31.352  25.025  -0.707  0.00  0.00    +0.118 C 
ENDBRANCH  14  16
ENDBRANCH   9  14
ENDBRANCH   2   8
BRANCH   3  17
ATOM     17  O   UNL     1     -36.887  22.387   3.812  0.00  0.00    -0.380 OA
ATOM     18  H   UNL     1     -37.096  21.962   4.658  0.00  0.00    +0.211 HD
ENDBRANCH   3  17
BRANCH   4  19
ATOM     19  O   UNL     1     -37.803  25.292   3.957  0.00  0.00    -0.378 OA
ATOM     20  H   UNL     1     -38.171  25.920   3.314  0.00  0.00    +0.211 HD
ENDBRANCH   4  19
BRANCH   6  21
ATOM     21  O   UNL     1     -34.660  26.020   5.641  0.00  0.00    -0.358 OA
ATOM     22  H   UNL     1     -34.133  25.487   6.257  0.00  0.00    +0.213 HD
ENDBRANCH   6  21
BRANCH   5  23
ATOM     23  C   UNL     1     -35.268  21.869   6.137  0.00  0.00    +0.169 C 
BRANCH  23  24
ATOM     24  O   UNL     1     -35.104  20.806   5.218  0.00  0.00    -0.379 OA
ATOM     25  H   UNL     1     -35.055  21.162   4.317  0.00  0.00    +0.211 HD
ENDBRANCH  23  24
ENDBRANCH   5  23
TORSDOF 9
ENDMDL
MODEL 3
REMARK VINA RESULT:      -4.9      4.703      6.548
REMARK  Name = 54748
REMARK  9 active torsions:
REMARK  status: ('A' for Active; 'I' for Inactive)
REMARK    1  A    between atoms: C_2  and  N_8
REMARK    2  A    between atoms: C_3  and  O_17
REMARK    3  A    between atoms: C_4  and  O_19
REMARK    4  A    between atoms: C_5  and  C_23
REMARK    5  A    between atoms: C_6  and  O_21
REMARK    6  A    between atoms: N_9  and  N_13
REMARK    7  A    between atoms: N_9  and  C_14
REMARK    8  A    between atoms: C_14  and  C_16
REMARK    9  A    between atoms: C_23  and  O_24
REMARK                            x       y       z     vdW  Elec       q    Type
REMARK                         _______ _______ _______ _____ _____    ______ ____
ROOT
ATOM      1  O   UNL     1     -37.358  24.821   4.515  0.00  0.00    -0.326 OA
ATOM      2  C   UNL     1     -35.396  24.199   2.487  0.00  0.00    +0.134 C 
ATOM      3  C   UNL     1     -36.788  24.749   2.146  0.00  0.00    +0.160 C 
ATOM      4  C   UNL     1     -35.011  24.437   3.956  0.00  0.00    +0.187 C 
ATOM      5  C   UNL     1     -37.821  24.406   3.227  0.00  0.00    +0.175 C 
ATOM      6  C   UNL     1     -36.158  24.166   4.934  0.00  0.00    +0.262 C 
ENDROOT
BRANCH   2   8
ATOM      7  O   UNL     1     -33.757  23.072   0.494  0.00  0.00    -0.251 OA
ATOM      8  N   UNL     1     -35.317  22.793   2.159  0.00  0.00    -0.284 N 
ATOM      9  N   UNL     1     -34.509  20.930   0.955  0.00  0.00    -0.163 N 
ATOM     10  C   UNL     1     -34.478  22.318   1.155  0.00  0.00    +0.320 C 
ATOM     11  H   UNL     1     -35.873  22.153   2.659  0.00  0.00    +0.151 HD
BRANCH   9  13
ATOM     12  O   UNL     1     -35.146  20.127   2.998  0.00  0.00    -0.078 OA
ATOM     13  N   UNL     1     -35.399  20.072   1.790  0.00  0.00    +0.054 NA
ENDBRANCH   9  13
BRANCH   9  14
ATOM     14  C   UNL     1     -33.682  20.291  -0.061  0.00  0.00    +0.134 C 
BRANCH  14  16
ATOM     15 CL   UNL     1     -32.479  18.269   1.324  0.00  0.00    -0.112 Cl
ATOM     16  C   UNL     1     -32.339  19.834   0.484  0.00  0.00    +0.118 C 
ENDBRANCH  14  16
ENDBRANCH   9  14
ENDBRANCH   2   8
BRANCH   3  17
ATOM     17  O   UNL     1     -36.698  26.162   1.960  0.00  0.00    -0.380 OA
ATOM     18  H   UNL     1     -36.143  26.352   1.188  0.00  0.00    +0.211 HD
ENDBRANCH   3  17
BRANCH   4  19
ATOM     19  O   UNL     1     -34.566  25.786   4.108  0.00  0.00    -0.378 OA
ATOM     20  H   UNL     1     -33.701  25.794   4.549  0.00  0.00    +0.211 HD
ENDBRANCH   4  19
BRANCH   6  21
ATOM     21  O   UNL     1     -36.335  22.761   5.091  0.00  0.00    -0.358 OA
ATOM     22  H   UNL     1     -36.958  22.593   5.815  0.00  0.00    +0.213 HD
ENDBRANCH   6  21
BRANCH   5  23
ATOM     23  C   UNL     1     -39.164  25.086   2.985  0.00  0.00    +0.169 C 
BRANCH  23  24
ATOM     24  O   UNL     1     -39.069  26.430   3.418  0.00  0.00    -0.379 OA
ATOM     25  H   UNL     1     -38.256  26.825   3.067  0.00  0.00    +0.211 HD
ENDBRANCH  23  24
ENDBRANCH   5  23
TORSDOF 9
ENDMDL
MODEL 4
REMARK VINA RESULT:      -4.9      4.248      5.891
REMARK  Name = 54748
REMARK  9 active torsions:
REMARK  status: ('A' for Active; 'I' for Inactive)
REMARK    1  A    between atoms: C_2  and  N_8
REMARK    2  A    between atoms: C_3  and  O_17
REMARK    3  A    between atoms: C_4  and  O_19
REMARK    4  A    between atoms: C_5  and  C_23
REMARK    5  A    between atoms: C_6  and  O_21
REMARK    6  A    between atoms: N_9  and  N_13
REMARK    7  A    between atoms: N_9  and  C_14
REMARK    8  A    between atoms: C_14  and  C_16
REMARK    9  A    between atoms: C_23  and  O_24
REMARK                            x       y       z     vdW  Elec       q    Type
REMARK                         _______ _______ _______ _____ _____    ______ ____
ROOT
ATOM      1  O   UNL     1     -38.157  21.140   0.030  0.00  0.00    -0.326 OA
ATOM      2  C   UNL     1     -37.884  22.197   2.706  0.00  0.00    +0.134 C 
ATOM      3  C   UNL     1     -39.242  22.091   1.997  0.00  0.00    +0.160 C 
ATOM      4  C   UNL     1     -36.809  21.307   2.062  0.00  0.00    +0.187 C 
ATOM      5  C   UNL     1     -39.094  22.127   0.470  0.00  0.00    +0.175 C 
ATOM      6  C   UNL     1     -36.833  21.342   0.531  0.00  0.00    +0.262 C 
ENDROOT
BRANCH   2   8
ATOM      7  O   UNL     1     -36.634  23.448   4.898  0.00  0.00    -0.251 OA
ATOM      8  N   UNL     1     -37.447  23.575   2.751  0.00  0.00    -0.284 N 
ATOM      9  N   UNL     1     -36.466  25.465   3.769  0.00  0.00    -0.163 N 
ATOM     10  C   UNL     1     -36.836  24.116   3.878  0.00  0.00    +0.320 C 
ATOM     11  H   UNL     1     -37.587  24.147   1.962  0.00  0.00    +0.151 HD
BRANCH   9  13
ATOM     12  O   UNL     1     -37.905  26.589   2.394  0.00  0.00    -0.078 OA
ATOM     13  N   UNL     1     -36.733  26.217   2.509  0.00  0.00    +0.054 NA
ENDBRANCH   9  13
BRANCH   9  14
ATOM     14  C   UNL     1     -35.815  26.165   4.869  0.00  0.00    +0.134 C 
BRANCH  14  16
ATOM     15 CL   UNL     1     -33.509  26.535   6.283  0.00  0.00    -0.112 Cl
ATOM     16  C   UNL     1     -34.303  26.202   4.723  0.00  0.00    +0.118 C 
ENDBRANCH  14  16
ENDBRANCH   9  14
ENDBRANCH   2   8
BRANCH   3  17
ATOM     17  O   UNL     1     -39.893  20.891   2.415  0.00  0.00    -0.380 OA
ATOM     18  H   UNL     1     -40.152  20.374   1.637  0.00  0.00    +0.211 HD
ENDBRANCH   3  17
BRANCH   4  19
ATOM     19  O   UNL     1     -36.990  19.961   2.509  0.00  0.00    -0.378 OA
ATOM     20  H   UNL     1     -37.752  19.919   3.109  0.00  0.00    +0.211 HD
ENDBRANCH   4  19
BRANCH   6  21
ATOM     21  O   UNL     1     -36.259  22.560   0.068  0.00  0.00    -0.358 OA
ATOM     22  H   UNL     1     -35.299  22.454  -0.018  0.00  0.00    +0.213 HD
ENDBRANCH   6  21
BRANCH   5  23
ATOM     23  C   UNL     1     -40.412  21.855  -0.248  0.00  0.00    +0.169 C 
BRANCH  23  24
ATOM     24  O   UNL     1     -40.636  20.458  -0.256  0.00  0.00    -0.379 OA
ATOM     25  H   UNL     1     -41.269  20.228   0.441  0.00  0.00    +0.211 HD
ENDBRANCH  23  24
ENDBRANCH   5  23
TORSDOF 9
ENDMDL
MODEL 5
REMARK VINA RESULT:      -4.9      1.912      3.602
REMARK  Name = 54748
REMARK  9 active torsions:
REMARK  status: ('A' for Active; 'I' for Inactive)
REMARK    1  A    between atoms: C_2  and  N_8
REMARK    2  A    between atoms: C_3  and  O_17
REMARK    3  A    between atoms: C_4  and  O_19
REMARK    4  A    between atoms: C_5  and  C_23
REMARK    5  A    between atoms: C_6  and  O_21
REMARK    6  A    between atoms: N_9  and  N_13
REMARK    7  A    between atoms: N_9  and  C_14
REMARK    8  A    between atoms: C_14  and  C_16
REMARK    9  A    between atoms: C_23  and  O_24
REMARK                            x       y       z     vdW  Elec       q    Type
REMARK                         _______ _______ _______ _____ _____    ______ ____
ROOT
ATOM      1  O   UNL     1     -37.074  23.667   1.793  0.00  0.00    -0.326 OA
ATOM      2  C   UNL     1     -35.878  24.736   4.197  0.00  0.00    +0.134 C 
ATOM      3  C   UNL     1     -37.135  25.347   3.560  0.00  0.00    +0.160 C 
ATOM      4  C   UNL     1     -35.607  23.303   3.713  0.00  0.00    +0.187 C 
ATOM      5  C   UNL     1     -37.207  25.068   2.053  0.00  0.00    +0.175 C 
ATOM      6  C   UNL     1     -35.818  23.122   2.207  0.00  0.00    +0.262 C 
ENDROOT
BRANCH   2   8
ATOM      7  O   UNL     1     -34.582  26.329   6.124  0.00  0.00    -0.251 OA
ATOM      8  N   UNL     1     -34.731  25.583   3.955  0.00  0.00    -0.284 N 
ATOM      9  N   UNL     1     -33.042  27.111   4.579  0.00  0.00    -0.163 N 
ATOM     10  C   UNL     1     -34.150  26.341   4.967  0.00  0.00    +0.320 C 
ATOM     11  H   UNL     1     -34.350  25.625   3.048  0.00  0.00    +0.151 HD
BRANCH   9  13
ATOM     12  O   UNL     1     -31.954  26.044   2.874  0.00  0.00    -0.078 OA
ATOM     13  N   UNL     1     -32.565  27.078   3.166  0.00  0.00    +0.054 NA
ENDBRANCH   9  13
BRANCH   9  14
ATOM     14  C   UNL     1     -32.331  27.952   5.533  0.00  0.00    +0.134 C 
BRANCH  14  16
ATOM     15 CL   UNL     1     -32.026  30.612   6.064  0.00  0.00    -0.112 Cl
ATOM     16  C   UNL     1     -31.857  29.258   4.918  0.00  0.00    +0.118 C 
ENDBRANCH  14  16
ENDBRANCH   9  14
ENDBRANCH   2   8
BRANCH   3  17
ATOM     17  O   UNL     1     -38.289  24.835   4.227  0.00  0.00    -0.380 OA
ATOM     18  H   UNL     1     -38.190  24.955   5.184  0.00  0.00    +0.211 HD
ENDBRANCH   3  17
BRANCH   4  19
ATOM     19  O   UNL     1     -36.460  22.403   4.424  0.00  0.00    -0.378 OA
ATOM     20  H   UNL     1     -37.327  22.817   4.558  0.00  0.00    +0.211 HD
ENDBRANCH   4  19
BRANCH   6  21
ATOM     21  O   UNL     1     -34.722  23.688   1.496  0.00  0.00    -0.358 OA
ATOM     22  H   UNL     1     -34.600  23.214   0.659  0.00  0.00    +0.213 HD
ENDBRANCH   6  21
BRANCH   5  23
ATOM     23  C   UNL     1     -38.527  25.521   1.440  0.00  0.00    +0.169 C 
BRANCH  23  24
ATOM     24  O   UNL     1     -38.999  26.637   2.171  0.00  0.00    -0.379 OA
ATOM     25  H   UNL     1     -39.904  26.466   2.474  0.00  0.00    +0.211 HD
ENDBRANCH  23  24
ENDBRANCH   5  23
TORSDOF 9
ENDMDL
MODEL 6
REMARK VINA RESULT:      -4.8      5.187      7.093
REMARK  Name = 54748
REMARK  9 active torsions:
REMARK  status: ('A' for Active; 'I' for Inactive)
REMARK    1  A    between atoms: C_2  and  N_8
REMARK    2  A    between atoms: C_3  and  O_17
REMARK    3  A    between atoms: C_4  and  O_19
REMARK    4  A    between atoms: C_5  and  C_23
REMARK    5  A    between atoms: C_6  and  O_21
REMARK    6  A    between atoms: N_9  and  N_13
REMARK    7  A    between atoms: N_9  and  C_14
REMARK    8  A    between atoms: C_14  and  C_16
REMARK    9  A    between atoms: C_23  and  O_24
REMARK                            x       y       z     vdW  Elec       q    Type
REMARK                         _______ _______ _______ _____ _____    ______ ____
ROOT
ATOM      1  O   UNL     1     -35.078  20.932   3.804  0.00  0.00    -0.326 OA
ATOM      2  C   UNL     1     -36.251  22.786   1.923  0.00  0.00    +0.134 C 
ATOM      3  C   UNL     1     -35.885  23.189   3.358  0.00  0.00    +0.160 C 
ATOM      4  C   UNL     1     -35.545  21.498   1.472  0.00  0.00    +0.187 C 
ATOM      5  C   UNL     1     -35.898  21.988   4.312  0.00  0.00    +0.175 C 
ATOM      6  C   UNL     1     -35.527  20.409   2.550  0.00  0.00    +0.262 C 
ENDROOT
BRANCH   2   8
ATOM      7  O   UNL     1     -37.911  24.466   0.389  0.00  0.00    -0.251 OA
ATOM      8  N   UNL     1     -37.686  22.657   1.788  0.00  0.00    -0.284 N 
ATOM      9  N   UNL     1     -39.813  23.278   0.974  0.00  0.00    -0.163 N 
ATOM     10  C   UNL     1     -38.433  23.534   1.008  0.00  0.00    +0.320 C 
ATOM     11  H   UNL     1     -38.147  21.927   2.263  0.00  0.00    +0.151 HD
BRANCH   9  13
ATOM     12  O   UNL     1     -40.357  21.062   1.121  0.00  0.00    -0.078 OA
ATOM     13  N   UNL     1     -40.382  22.132   1.740  0.00  0.00    +0.054 NA
ENDBRANCH   9  13
BRANCH   9  14
ATOM     14  C   UNL     1     -40.720  24.112   0.196  0.00  0.00    +0.134 C 
BRANCH  14  16
ATOM     15 CL   UNL     1     -40.886  25.603   2.477  0.00  0.00    -0.112 Cl
ATOM     16  C   UNL     1     -41.701  24.877   1.068  0.00  0.00    +0.118 C 
ENDBRANCH  14  16
ENDBRANCH   9  14
ENDBRANCH   2   8
BRANCH   3  17
ATOM     17  O   UNL     1     -34.603  23.819   3.352  0.00  0.00    -0.380 OA
ATOM     18  H   UNL     1     -34.419  24.169   2.466  0.00  0.00    +0.211 HD
ENDBRANCH   3  17
BRANCH   4  19
ATOM     19  O   UNL     1     -34.204  21.811   1.091  0.00  0.00    -0.378 OA
ATOM     20  H   UNL     1     -33.917  22.617   1.549  0.00  0.00    +0.211 HD
ENDBRANCH   4  19
BRANCH   6  21
ATOM     21  O   UNL     1     -36.812  19.803   2.645  0.00  0.00    -0.358 OA
ATOM     22  H   UNL     1     -37.098  19.795   3.571  0.00  0.00    +0.213 HD
ENDBRANCH   6  21
BRANCH   5  23
ATOM     23  C   UNL     1     -35.375  22.342   5.700  0.00  0.00    +0.169 C 
BRANCH  23  24
ATOM     24  O   UNL     1     -34.628  21.244   6.189  0.00  0.00    -0.379 OA
ATOM     25  H   UNL     1     -35.210  20.475   6.289  0.00  0.00    +0.211 HD
ENDBRANCH  23  24
ENDBRANCH   5  23
TORSDOF 9
ENDMDL
MODEL 7
REMARK VINA RESULT:      -4.7      3.770      6.438
REMARK  Name = 54748
REMARK  9 active torsions:
REMARK  status: ('A' for Active; 'I' for Inactive)
REMARK    1  A    between atoms: C_2  and  N_8
REMARK    2  A    between atoms: C_3  and  O_17
REMARK    3  A    between atoms: C_4  and  O_19
REMARK    4  A    between atoms: C_5  and  C_23
REMARK    5  A    between atoms: C_6  and  O_21
REMARK    6  A    between atoms: N_9  and  N_13
REMARK    7  A    between atoms: N_9  and  C_14
REMARK    8  A    between atoms: C_14  and  C_16
REMARK    9  A    between atoms: C_23  and  O_24
REMARK                            x       y       z     vdW  Elec       q    Type
REMARK                         _______ _______ _______ _____ _____    ______ ____
ROOT
ATOM      1  O   UNL     1     -34.651  27.765   3.664  0.00  0.00    -0.326 OA
ATOM      2  C   UNL     1     -35.140  25.043   4.501  0.00  0.00    +0.134 C 
ATOM      3  C   UNL     1     -33.807  25.759   4.762  0.00  0.00    +0.160 C 
ATOM      4  C   UNL     1     -36.282  26.019   4.178  0.00  0.00    +0.187 C 
ATOM      5  C   UNL     1     -33.540  26.867   3.735  0.00  0.00    +0.175 C 
ATOM      6  C   UNL     1     -35.864  27.146   3.228  0.00  0.00    +0.262 C 
ENDROOT
BRANCH   2   8
ATOM      7  O   UNL     1     -36.142  22.411   4.542  0.00  0.00    -0.251 OA
ATOM      8  N   UNL     1     -34.987  24.068   3.444  0.00  0.00    -0.284 N 
ATOM      9  N   UNL     1     -35.287  21.953   2.438  0.00  0.00    -0.163 N 
ATOM     10  C   UNL     1     -35.515  22.784   3.545  0.00  0.00    +0.320 C 
ATOM     11  H   UNL     1     -34.494  24.319   2.629  0.00  0.00    +0.151 HD
BRANCH   9  13
ATOM     12  O   UNL     1     -35.149  23.293   0.591  0.00  0.00    -0.078 OA
ATOM     13  N   UNL     1     -34.526  22.464   1.261  0.00  0.00    +0.054 NA
ENDBRANCH   9  13
BRANCH   9  14
ATOM     14  C   UNL     1     -35.783  20.583   2.402  0.00  0.00    +0.134 C 
BRANCH  14  16
ATOM     15 CL   UNL     1     -33.606  19.113   1.657  0.00  0.00    -0.112 Cl
ATOM     16  C   UNL     1     -35.205  19.783   1.247  0.00  0.00    +0.118 C 
ENDBRANCH  14  16
ENDBRANCH   9  14
ENDBRANCH   2   8
BRANCH   3  17
ATOM     17  O   UNL     1     -33.815  26.287   6.089  0.00  0.00    -0.380 OA
ATOM     18  H   UNL     1     -33.335  27.130   6.105  0.00  0.00    +0.211 HD
ENDBRANCH   3  17
BRANCH   4  19
ATOM     19  O   UNL     1     -36.771  26.583   5.397  0.00  0.00    -0.378 OA
ATOM     20  H   UNL     1     -37.590  26.132   5.656  0.00  0.00    +0.211 HD
ENDBRANCH   4  19
BRANCH   6  21
ATOM     21  O   UNL     1     -35.769  26.644   1.898  0.00  0.00    -0.358 OA
ATOM     22  H   UNL     1     -35.533  25.704   1.923  0.00  0.00    +0.213 HD
ENDBRANCH   6  21
BRANCH   5  23
ATOM     23  C   UNL     1     -32.307  27.695   4.079  0.00  0.00    +0.169 C 
BRANCH  23  24
ATOM     24  O   UNL     1     -32.721  28.827   4.820  0.00  0.00    -0.379 OA
ATOM     25  H   UNL     1     -32.017  29.087   5.434  0.00  0.00    +0.211 HD
ENDBRANCH  23  24
ENDBRANCH   5  23
TORSDOF 9
ENDMDL
MODEL 8
REMARK VINA RESULT:      -4.7      2.177      3.579
REMARK  Name = 54748
REMARK  9 active torsions:
REMARK  status: ('A' for Active; 'I' for Inactive)
REMARK    1  A    between atoms: C_2  and  N_8
REMARK    2  A    between atoms: C_3  and  O_17
REMARK    3  A    between atoms: C_4  and  O_19
REMARK    4  A    between atoms: C_5  and  C_23
REMARK    5  A    between atoms: C_6  and  O_21
REMARK    6  A    between atoms: N_9  and  N_13
REMARK    7  A    between atoms: N_9  and  C_14
REMARK    8  A    between atoms: C_14  and  C_16
REMARK    9  A    between atoms: C_23  and  O_24
REMARK                            x       y       z     vdW  Elec       q    Type
REMARK                         _______ _______ _______ _____ _____    ______ ____
ROOT
ATOM      1  O   UNL     1     -35.634  24.606   2.635  0.00  0.00    -0.326 OA
ATOM      2  C   UNL     1     -34.782  25.811   5.120  0.00  0.00    +0.134 C 
ATOM      3  C   UNL     1     -36.198  25.997   4.557  0.00  0.00    +0.160 C 
ATOM      4  C   UNL     1     -34.051  24.612   4.497  0.00  0.00    +0.187 C 
ATOM      5  C   UNL     1     -36.234  25.843   3.031  0.00  0.00    +0.175 C 
ATOM      6  C   UNL     1     -34.250  24.501   2.983  0.00  0.00    +0.262 C 
ENDROOT
BRANCH   2   8
ATOM      7  O   UNL     1     -32.611  26.612   6.726  0.00  0.00    -0.251 OA
ATOM      8  N   UNL     1     -34.012  27.024   4.950  0.00  0.00    -0.284 N 
ATOM      9  N   UNL     1     -32.299  28.553   5.499  0.00  0.00    -0.163 N 
ATOM     10  C   UNL     1     -32.951  27.345   5.792  0.00  0.00    +0.320 C 
ATOM     11  H   UNL     1     -34.245  27.640   4.218  0.00  0.00    +0.151 HD
BRANCH   9  13
ATOM     12  O   UNL     1     -32.497  28.902   3.249  0.00  0.00    -0.078 OA
ATOM     13  N   UNL     1     -32.753  29.392   4.353  0.00  0.00    +0.054 NA
ENDBRANCH   9  13
BRANCH   9  14
ATOM     14  C   UNL     1     -31.169  29.017   6.294  0.00  0.00    +0.134 C 
BRANCH  14  16
ATOM     15 CL   UNL     1     -28.784  27.772   6.756  0.00  0.00    -0.112 Cl
ATOM     16  C   UNL     1     -29.831  28.696   5.650  0.00  0.00    +0.118 C 
ENDBRANCH  14  16
ENDBRANCH   9  14
ENDBRANCH   2   8
BRANCH   3  17
ATOM     17  O   UNL     1     -37.073  25.057   5.183  0.00  0.00    -0.380 OA
ATOM     18  H   UNL     1     -37.372  24.407   4.528  0.00  0.00    +0.211 HD
ENDBRANCH   3  17
BRANCH   4  19
ATOM     19  O   UNL     1     -34.507  23.412   5.125  0.00  0.00    -0.378 OA
ATOM     20  H   UNL     1     -34.597  23.560   6.080  0.00  0.00    +0.211 HD
ENDBRANCH   4  19
BRANCH   6  21
ATOM     21  O   UNL     1     -33.451  25.475   2.319  0.00  0.00    -0.358 OA
ATOM     22  H   UNL     1     -34.018  26.188   1.986  0.00  0.00    +0.213 HD
ENDBRANCH   6  21
BRANCH   5  23
ATOM     23  C   UNL     1     -37.654  25.858   2.478  0.00  0.00    +0.169 C 
BRANCH  23  24
ATOM     24  O   UNL     1     -38.490  26.518   3.410  0.00  0.00    -0.379 OA
ATOM     25  H   UNL     1     -38.580  25.972   4.207  0.00  0.00    +0.211 HD
ENDBRANCH  23  24
ENDBRANCH   5  23
TORSDOF 9
ENDMDL
MODEL 9
REMARK VINA RESULT:      -4.7      3.917      5.414
REMARK  Name = 54748
REMARK  9 active torsions:
REMARK  status: ('A' for Active; 'I' for Inactive)
REMARK    1  A    between atoms: C_2  and  N_8
REMARK    2  A    between atoms: C_3  and  O_17
REMARK    3  A    between atoms: C_4  and  O_19
REMARK    4  A    between atoms: C_5  and  C_23
REMARK    5  A    between atoms: C_6  and  O_21
REMARK    6  A    between atoms: N_9  and  N_13
REMARK    7  A    between atoms: N_9  and  C_14
REMARK    8  A    between atoms: C_14  and  C_16
REMARK    9  A    between atoms: C_23  and  O_24
REMARK                            x       y       z     vdW  Elec       q    Type
REMARK                         _______ _______ _______ _____ _____    ______ ____
ROOT
ATOM      1  O   UNL     1     -35.487  19.584   0.822  0.00  0.00    -0.326 OA
ATOM      2  C   UNL     1     -35.844  22.385   1.437  0.00  0.00    +0.134 C 
ATOM      3  C   UNL     1     -34.479  21.793   1.056  0.00  0.00    +0.160 C 
ATOM      4  C   UNL     1     -37.016  21.479   1.031  0.00  0.00    +0.187 C 
ATOM      5  C   UNL     1     -34.388  20.299   1.395  0.00  0.00    +0.175 C 
ATOM      6  C   UNL     1     -36.763  19.996   1.319  0.00  0.00    +0.262 C 
ENDROOT
BRANCH   2   8
ATOM      7  O   UNL     1     -35.795  24.955   2.588  0.00  0.00    -0.251 OA
ATOM      8  N   UNL     1     -35.887  22.674   2.854  0.00  0.00    -0.284 N 
ATOM      9  N   UNL     1     -35.910  24.097   4.738  0.00  0.00    -0.163 N 
ATOM     10  C   UNL     1     -35.858  23.978   3.340  0.00  0.00    +0.320 C 
ATOM     11  H   UNL     1     -35.938  21.926   3.493  0.00  0.00    +0.151 HD
BRANCH   9  13
ATOM     12  O   UNL     1     -34.919  22.270   5.690  0.00  0.00    -0.078 OA
ATOM     13  N   UNL     1     -35.991  22.877   5.592  0.00  0.00    +0.054 NA
ENDBRANCH   9  13
BRANCH   9  14
ATOM     14  C   UNL     1     -35.889  25.400   5.389  0.00  0.00    +0.134 C 
BRANCH  14  16
ATOM     15 CL   UNL     1     -33.690  26.784   4.551  0.00  0.00    -0.112 Cl
ATOM     16  C   UNL     1     -34.492  25.818   5.815  0.00  0.00    +0.118 C 
ENDBRANCH  14  16
ENDBRANCH   9  14
ENDBRANCH   2   8
BRANCH   3  17
ATOM     17  O   UNL     1     -34.250  22.012  -0.336  0.00  0.00    -0.380 OA
ATOM     18  H   UNL     1     -33.585  22.709  -0.449  0.00  0.00    +0.211 HD
ENDBRANCH   3  17
BRANCH   4  19
ATOM     19  O   UNL     1     -37.278  21.654  -0.363  0.00  0.00    -0.378 OA
ATOM     20  H   UNL     1     -37.883  22.403  -0.487  0.00  0.00    +0.211 HD
ENDBRANCH   4  19
BRANCH   6  21
ATOM     21  O   UNL     1     -36.907  19.745   2.714  0.00  0.00    -0.358 OA
ATOM     22  H   UNL     1     -37.042  18.796   2.859  0.00  0.00    +0.213 HD
ENDBRANCH   6  21
BRANCH   5  23
ATOM     23  C   UNL     1     -33.107  19.661   0.871  0.00  0.00    +0.169 C 
BRANCH  23  24
ATOM     24  O   UNL     1     -32.881  18.460   1.585  0.00  0.00    -0.379 OA
ATOM     25  H   UNL     1     -31.935  18.374   1.781  0.00  0.00    +0.211 HD
ENDBRANCH  23  24
ENDBRANCH   5  23
TORSDOF 9
ENDMDL
