MODEL 1
REMARK VINA RESULT:      -6.6      0.000      0.000
REMARK  Name = 197438
REMARK  7 active torsions:
REMARK  status: ('A' for Active; 'I' for Inactive)
REMARK    1  A    between atoms: C_5  and  O_19
REMARK    2  A    between atoms: C_6  and  O_21
REMARK    3  A    between atoms: C_7  and  N_11
REMARK    4  A    between atoms: C_8  and  O_23
REMARK    5  A    between atoms: C_9  and  C_26
REMARK    6  A    between atoms: CA_15  and  C_18
REMARK    7  A    between atoms: C_26  and  O_27
REMARK                            x       y       z     vdW  Elec       q    Type
REMARK                         _______ _______ _______ _____ _____    ______ ____
ROOT
ATOM      1  O   UNL     1     -35.292  25.552   2.839  0.00  0.00    -0.333 OA
ATOM      2  O   UNL     1     -33.810  27.030   5.743  0.00  0.00    -0.341 OA
ATOM      3  C   UNL     1     -34.548  26.572   3.504  0.00  0.00    +0.176 C 
ATOM      4  C   UNL     1     -34.322  26.021   4.896  0.00  0.00    +0.176 C 
ATOM      5  C   UNL     1     -35.704  25.494   5.209  0.00  0.00    +0.187 C 
ATOM      6  C   UNL     1     -33.219  26.949   2.875  0.00  0.00    +0.170 C 
ATOM      7  C   UNL     1     -36.102  24.899   3.850  0.00  0.00    +0.229 C 
ATOM      8  C   UNL     1     -32.549  27.966   3.819  0.00  0.00    +0.178 C 
ATOM      9  C   UNL     1     -32.523  27.471   5.279  0.00  0.00    +0.243 C 
ENDROOT
BRANCH   7  11
ATOM     10  O   UNL     1     -35.953  22.808   6.065  0.00  0.00    -0.252 OA
ATOM     11  N   UNL     1     -35.857  23.484   3.778  0.00  0.00    -0.215 N 
ATOM     12  N   UNL     1     -35.536  21.318   4.266  0.00  0.00    -0.264 N 
ATOM     13  C   UNL     1     -35.631  22.786   2.609  0.00  0.00    +0.089 C 
ATOM     14  C   UNL     1     -35.805  22.575   4.875  0.00  0.00    +0.313 C 
ATOM     15  CA  UNL     1     -35.440  21.497   2.911  0.00  0.00    +0.109 C 
ATOM     16  H   UNL     1     -35.435  20.461   4.740  0.00  0.00    +0.157 HD
BRANCH  15  18
ATOM     17  O   UNL     1     -34.195  19.666   2.088  0.00  0.00    -0.282 OA
ATOM     18  C   UNL     1     -35.171  20.413   1.987  0.00  0.00    +0.250 C 
ENDBRANCH  15  18
ENDBRANCH   7  11
BRANCH   5  19
ATOM     19  O   UNL     1     -36.599  26.535   5.587  0.00  0.00    -0.378 OA
ATOM     20  H   UNL     1     -36.697  26.544   6.552  0.00  0.00    +0.211 HD
ENDBRANCH   5  19
BRANCH   6  21
ATOM     21  O   UNL     1     -32.400  25.797   2.683  0.00  0.00    -0.379 OA
ATOM     22  H   UNL     1     -32.122  25.749   1.756  0.00  0.00    +0.211 HD
ENDBRANCH   6  21
BRANCH   8  23
ATOM     23  O   UNL     1     -31.219  28.229   3.386  0.00  0.00    -0.379 OA
ATOM     24  H   UNL     1     -30.634  28.282   4.157  0.00  0.00    +0.211 HD
ENDBRANCH   8  23
BRANCH   9  26
ATOM     25  O   UNL     1     -32.022  29.755   5.877  0.00  0.00    -0.247 OA
ATOM     26  C   UNL     1     -32.206  28.595   6.212  0.00  0.00    +0.344 C 
BRANCH  26  27
ATOM     27  O   UNL     1     -32.145  28.152   7.491  0.00  0.00    -0.478 OA
ATOM     28  H   UNL     1     -31.961  27.250   7.667  0.00  0.00    +0.295 HD
ENDBRANCH  26  27
ENDBRANCH   9  26
TORSDOF 7
ENDMDL
MODEL 2
REMARK VINA RESULT:      -6.3      2.186      6.699
REMARK  Name = 197438
REMARK  7 active torsions:
REMARK  status: ('A' for Active; 'I' for Inactive)
REMARK    1  A    between atoms: C_5  and  O_19
REMARK    2  A    between atoms: C_6  and  O_21
REMARK    3  A    between atoms: C_7  and  N_11
REMARK    4  A    between atoms: C_8  and  O_23
REMARK    5  A    between atoms: C_9  and  C_26
REMARK    6  A    between atoms: CA_15  and  C_18
REMARK    7  A    between atoms: C_26  and  O_27
REMARK                            x       y       z     vdW  Elec       q    Type
REMARK                         _______ _______ _______ _____ _____    ______ ____
ROOT
ATOM      1  O   UNL     1     -36.369  25.339   4.548  0.00  0.00    -0.333 OA
ATOM      2  O   UNL     1     -35.719  22.690   2.230  0.00  0.00    -0.341 OA
ATOM      3  C   UNL     1     -36.384  23.969   4.151  0.00  0.00    +0.176 C 
ATOM      4  C   UNL     1     -35.581  23.943   2.868  0.00  0.00    +0.176 C 
ATOM      5  C   UNL     1     -36.161  25.145   2.158  0.00  0.00    +0.187 C 
ATOM      6  C   UNL     1     -35.804  22.978   5.145  0.00  0.00    +0.170 C 
ATOM      7  C   UNL     1     -36.317  26.126   3.330  0.00  0.00    +0.229 C 
ATOM      8  C   UNL     1     -35.816  21.598   4.460  0.00  0.00    +0.178 C 
ATOM      9  C   UNL     1     -35.180  21.644   3.055  0.00  0.00    +0.243 C 
ENDROOT
BRANCH   7  11
ATOM     10  O   UNL     1     -35.844  28.809   1.959  0.00  0.00    -0.252 OA
ATOM     11  N   UNL     1     -35.212  27.040   3.432  0.00  0.00    -0.215 N 
ATOM     12  N   UNL     1     -33.818  28.782   3.194  0.00  0.00    -0.264 N 
ATOM     13  C   UNL     1     -34.099  26.840   4.223  0.00  0.00    +0.089 C 
ATOM     14  C   UNL     1     -35.074  28.283   2.747  0.00  0.00    +0.313 C 
ATOM     15  CA  UNL     1     -33.275  27.883   4.074  0.00  0.00    +0.109 C 
ATOM     16  H   UNL     1     -33.407  29.632   2.916  0.00  0.00    +0.157 HD
BRANCH  15  18
ATOM     17  O   UNL     1     -31.724  27.641   5.839  0.00  0.00    -0.282 OA
ATOM     18  C   UNL     1     -31.993  28.084   4.720  0.00  0.00    +0.250 C 
ENDBRANCH  15  18
ENDBRANCH   7  11
BRANCH   5  19
ATOM     19  O   UNL     1     -37.425  24.858   1.568  0.00  0.00    -0.378 OA
ATOM     20  H   UNL     1     -37.294  24.549   0.658  0.00  0.00    +0.211 HD
ENDBRANCH   5  19
BRANCH   6  21
ATOM     21  O   UNL     1     -34.485  23.358   5.532  0.00  0.00    -0.379 OA
ATOM     22  H   UNL     1     -34.288  22.994   6.409  0.00  0.00    +0.211 HD
ENDBRANCH   6  21
BRANCH   8  23
ATOM     23  O   UNL     1     -35.120  20.651   5.262  0.00  0.00    -0.379 OA
ATOM     24  H   UNL     1     -35.760  20.120   5.761  0.00  0.00    +0.211 HD
ENDBRANCH   8  23
BRANCH   9  26
ATOM     25  O   UNL     1     -34.850  19.946   1.371  0.00  0.00    -0.247 OA
ATOM     26  C   UNL     1     -35.518  20.409   2.283  0.00  0.00    +0.344 C 
BRANCH  26  27
ATOM     27  O   UNL     1     -36.678  19.869   2.730  0.00  0.00    -0.478 OA
ATOM     28  H   UNL     1     -36.663  19.222   3.408  0.00  0.00    +0.295 HD
ENDBRANCH  26  27
ENDBRANCH   9  26
TORSDOF 7
ENDMDL
MODEL 3
REMARK VINA RESULT:      -6.2      1.603      2.049
REMARK  Name = 197438
REMARK  7 active torsions:
REMARK  status: ('A' for Active; 'I' for Inactive)
REMARK    1  A    between atoms: C_5  and  O_19
REMARK    2  A    between atoms: C_6  and  O_21
REMARK    3  A    between atoms: C_7  and  N_11
REMARK    4  A    between atoms: C_8  and  O_23
REMARK    5  A    between atoms: C_9  and  C_26
REMARK    6  A    between atoms: CA_15  and  C_18
REMARK    7  A    between atoms: C_26  and  O_27
REMARK                            x       y       z     vdW  Elec       q    Type
REMARK                         _______ _______ _______ _____ _____    ______ ____
ROOT
ATOM      1  O   UNL     1     -36.910  25.267   2.698  0.00  0.00    -0.333 OA
ATOM      2  O   UNL     1     -34.449  27.500   4.029  0.00  0.00    -0.341 OA
ATOM      3  C   UNL     1     -36.197  26.502   2.718  0.00  0.00    +0.176 C 
ATOM      4  C   UNL     1     -35.088  26.276   3.723  0.00  0.00    +0.176 C 
ATOM      5  C   UNL     1     -35.861  25.607   4.837  0.00  0.00    +0.187 C 
ATOM      6  C   UNL     1     -35.609  26.957   1.394  0.00  0.00    +0.170 C 
ATOM      7  C   UNL     1     -36.805  24.702   4.030  0.00  0.00    +0.229 C 
ATOM      8  C   UNL     1     -34.794  28.232   1.680  0.00  0.00    +0.178 C 
ATOM      9  C   UNL     1     -33.816  28.042   2.858  0.00  0.00    +0.243 C 
ENDROOT
BRANCH   7  11
ATOM     10  O   UNL     1     -35.880  22.745   6.179  0.00  0.00    -0.252 OA
ATOM     11  N   UNL     1     -36.308  23.358   3.912  0.00  0.00    -0.215 N 
ATOM     12  N   UNL     1     -35.498  21.308   4.329  0.00  0.00    -0.264 N 
ATOM     13  C   UNL     1     -36.155  22.681   2.719  0.00  0.00    +0.089 C 
ATOM     14  C   UNL     1     -35.895  22.509   4.981  0.00  0.00    +0.313 C 
ATOM     15  CA  UNL     1     -35.672  21.461   2.979  0.00  0.00    +0.109 C 
ATOM     16  H   UNL     1     -35.154  20.501   4.776  0.00  0.00    +0.157 HD
BRANCH  15  18
ATOM     17  O   UNL     1     -34.294  19.803   2.014  0.00  0.00    -0.282 OA
ATOM     18  C   UNL     1     -35.361  20.421   2.018  0.00  0.00    +0.250 C 
ENDBRANCH  15  18
ENDBRANCH   7  11
BRANCH   5  19
ATOM     19  O   UNL     1     -36.600  26.544   5.613  0.00  0.00    -0.378 OA
ATOM     20  H   UNL     1     -35.986  27.120   6.095  0.00  0.00    +0.211 HD
ENDBRANCH   5  19
BRANCH   6  21
ATOM     21  O   UNL     1     -34.797  25.935   0.818  0.00  0.00    -0.379 OA
ATOM     22  H   UNL     1     -34.204  26.327   0.159  0.00  0.00    +0.211 HD
ENDBRANCH   6  21
BRANCH   8  23
ATOM     23  O   UNL     1     -34.065  28.615   0.519  0.00  0.00    -0.379 OA
ATOM     24  H   UNL     1     -33.127  28.710   0.744  0.00  0.00    +0.211 HD
ENDBRANCH   8  23
BRANCH   9  26
ATOM     25  O   UNL     1     -33.268  30.385   2.674  0.00  0.00    -0.247 OA
ATOM     26  C   UNL     1     -33.309  29.362   3.341  0.00  0.00    +0.344 C 
BRANCH  26  27
ATOM     27  O   UNL     1     -32.893  29.273   4.627  0.00  0.00    -0.478 OA
ATOM     28  H   UNL     1     -32.055  29.611   4.874  0.00  0.00    +0.295 HD
ENDBRANCH  26  27
ENDBRANCH   9  26
TORSDOF 7
ENDMDL
MODEL 4
REMARK VINA RESULT:      -6.1      2.654      6.690
REMARK  Name = 197438
REMARK  7 active torsions:
REMARK  status: ('A' for Active; 'I' for Inactive)
REMARK    1  A    between atoms: C_5  and  O_19
REMARK    2  A    between atoms: C_6  and  O_21
REMARK    3  A    between atoms: C_7  and  N_11
REMARK    4  A    between atoms: C_8  and  O_23
REMARK    5  A    between atoms: C_9  and  C_26
REMARK    6  A    between atoms: CA_15  and  C_18
REMARK    7  A    between atoms: C_26  and  O_27
REMARK                            x       y       z     vdW  Elec       q    Type
REMARK                         _______ _______ _______ _____ _____    ______ ____
ROOT
ATOM      1  O   UNL     1     -34.431  27.884   3.743  0.00  0.00    -0.333 OA
ATOM      2  O   UNL     1     -34.664  24.379   3.058  0.00  0.00    -0.341 OA
ATOM      3  C   UNL     1     -35.138  26.718   3.325  0.00  0.00    +0.176 C 
ATOM      4  C   UNL     1     -34.196  25.577   3.645  0.00  0.00    +0.176 C 
ATOM      5  C   UNL     1     -32.896  26.139   3.118  0.00  0.00    +0.187 C 
ATOM      6  C   UNL     1     -36.483  26.479   3.987  0.00  0.00    +0.170 C 
ATOM      7  C   UNL     1     -33.019  27.608   3.552  0.00  0.00    +0.229 C 
ATOM      8  C   UNL     1     -36.998  25.119   3.476  0.00  0.00    +0.178 C 
ATOM      9  C   UNL     1     -35.936  24.010   3.616  0.00  0.00    +0.243 C 
ENDROOT
BRANCH   7  11
ATOM     10  O   UNL     1     -33.660  26.698   6.392  0.00  0.00    -0.252 OA
ATOM     11  N   UNL     1     -32.338  27.874   4.790  0.00  0.00    -0.215 N 
ATOM     12  N   UNL     1     -31.720  27.946   6.946  0.00  0.00    -0.264 N 
ATOM     13  C   UNL     1     -31.198  28.643   4.908  0.00  0.00    +0.089 C 
ATOM     14  C   UNL     1     -32.712  27.403   6.082  0.00  0.00    +0.313 C 
ATOM     15  CA  UNL     1     -30.839  28.680   6.196  0.00  0.00    +0.109 C 
ATOM     16  H   UNL     1     -31.675  27.817   7.921  0.00  0.00    +0.157 HD
BRANCH  15  18
ATOM     17  O   UNL     1     -28.691  28.793   7.174  0.00  0.00    -0.282 OA
ATOM     18  C   UNL     1     -29.701  29.373   6.767  0.00  0.00    +0.250 C 
ENDBRANCH  15  18
ENDBRANCH   7  11
BRANCH   5  19
ATOM     19  O   UNL     1     -32.805  26.037   1.701  0.00  0.00    -0.378 OA
ATOM     20  H   UNL     1     -33.547  25.511   1.366  0.00  0.00    +0.211 HD
ENDBRANCH   5  19
BRANCH   6  21
ATOM     21  O   UNL     1     -36.363  26.492   5.408  0.00  0.00    -0.379 OA
ATOM     22  H   UNL     1     -35.479  26.185   5.660  0.00  0.00    +0.211 HD
ENDBRANCH   6  21
BRANCH   8  23
ATOM     23  O   UNL     1     -38.170  24.743   4.191  0.00  0.00    -0.379 OA
ATOM     24  H   UNL     1     -38.717  24.168   3.633  0.00  0.00    +0.211 HD
ENDBRANCH   8  23
BRANCH   9  26
ATOM     25  O   UNL     1     -35.744  22.443   1.789  0.00  0.00    -0.247 OA
ATOM     26  C   UNL     1     -36.314  22.812   2.804  0.00  0.00    +0.344 C 
BRANCH  26  27
ATOM     27  O   UNL     1     -37.386  22.186   3.348  0.00  0.00    -0.478 OA
ATOM     28  H   UNL     1     -37.563  22.270   4.264  0.00  0.00    +0.295 HD
ENDBRANCH  26  27
ENDBRANCH   9  26
TORSDOF 7
ENDMDL
MODEL 5
REMARK VINA RESULT:      -6.1      1.991      6.926
REMARK  Name = 197438
REMARK  7 active torsions:
REMARK  status: ('A' for Active; 'I' for Inactive)
REMARK    1  A    between atoms: C_5  and  O_19
REMARK    2  A    between atoms: C_6  and  O_21
REMARK    3  A    between atoms: C_7  and  N_11
REMARK    4  A    between atoms: C_8  and  O_23
REMARK    5  A    between atoms: C_9  and  C_26
REMARK    6  A    between atoms: CA_15  and  C_18
REMARK    7  A    between atoms: C_26  and  O_27
REMARK                            x       y       z     vdW  Elec       q    Type
REMARK                         _______ _______ _______ _____ _____    ______ ____
ROOT
ATOM      1  O   UNL     1     -36.458  24.748   3.003  0.00  0.00    -0.333 OA
ATOM      2  O   UNL     1     -34.519  22.292   1.265  0.00  0.00    -0.341 OA
ATOM      3  C   UNL     1     -36.308  23.519   2.296  0.00  0.00    +0.176 C 
ATOM      4  C   UNL     1     -34.811  23.345   2.162  0.00  0.00    +0.176 C 
ATOM      5  C   UNL     1     -34.410  24.740   1.739  0.00  0.00    +0.187 C 
ATOM      6  C   UNL     1     -36.915  22.291   2.952  0.00  0.00    +0.170 C 
ATOM      7  C   UNL     1     -35.337  25.587   2.624  0.00  0.00    +0.229 C 
ATOM      8  C   UNL     1     -36.529  21.080   2.080  0.00  0.00    +0.178 C 
ATOM      9  C   UNL     1     -35.018  21.045   1.777  0.00  0.00    +0.243 C 
ENDROOT
BRANCH   7  11
ATOM     10  O   UNL     1     -35.804  24.805   5.534  0.00  0.00    -0.252 OA
ATOM     11  N   UNL     1     -34.688  26.040   3.824  0.00  0.00    -0.215 N 
ATOM     12  N   UNL     1     -34.062  26.360   5.955  0.00  0.00    -0.264 N 
ATOM     13  C   UNL     1     -33.672  26.973   3.862  0.00  0.00    +0.089 C 
ATOM     14  C   UNL     1     -34.974  25.616   5.155  0.00  0.00    +0.313 C 
ATOM     15  CA  UNL     1     -33.307  27.157   5.135  0.00  0.00    +0.109 C 
ATOM     16  H   UNL     1     -33.988  26.311   6.935  0.00  0.00    +0.157 HD
BRANCH  15  18
ATOM     17  O   UNL     1     -32.364  29.278   5.575  0.00  0.00    -0.282 OA
ATOM     18  C   UNL     1     -32.276  28.049   5.630  0.00  0.00    +0.250 C 
ENDBRANCH  15  18
ENDBRANCH   7  11
BRANCH   5  19
ATOM     19  O   UNL     1     -34.673  24.976   0.360  0.00  0.00    -0.378 OA
ATOM     20  H   UNL     1     -35.425  24.432   0.076  0.00  0.00    +0.211 HD
ENDBRANCH   5  19
BRANCH   6  21
ATOM     21  O   UNL     1     -36.444  22.142   4.290  0.00  0.00    -0.379 OA
ATOM     22  H   UNL     1     -37.198  22.028   4.888  0.00  0.00    +0.211 HD
ENDBRANCH   6  21
BRANCH   8  23
ATOM     23  O   UNL     1     -36.909  19.873   2.729  0.00  0.00    -0.379 OA
ATOM     24  H   UNL     1     -36.603  19.891   3.649  0.00  0.00    +0.211 HD
ENDBRANCH   8  23
BRANCH   9  26
ATOM     25  O   UNL     1     -34.565  20.410  -0.508  0.00  0.00    -0.247 OA
ATOM     26  C   UNL     1     -34.726  20.093   0.661  0.00  0.00    +0.344 C 
BRANCH  26  27
ATOM     27  O   UNL     1     -34.668  18.820   1.121  0.00  0.00    -0.478 OA
ATOM     28  H   UNL     1     -34.475  18.656   2.023  0.00  0.00    +0.295 HD
ENDBRANCH  26  27
ENDBRANCH   9  26
TORSDOF 7
ENDMDL
MODEL 6
REMARK VINA RESULT:      -6.0      2.794      6.188
REMARK  Name = 197438
REMARK  7 active torsions:
REMARK  status: ('A' for Active; 'I' for Inactive)
REMARK    1  A    between atoms: C_5  and  O_19
REMARK    2  A    between atoms: C_6  and  O_21
REMARK    3  A    between atoms: C_7  and  N_11
REMARK    4  A    between atoms: C_8  and  O_23
REMARK    5  A    between atoms: C_9  and  C_26
REMARK    6  A    between atoms: CA_15  and  C_18
REMARK    7  A    between atoms: C_26  and  O_27
REMARK                            x       y       z     vdW  Elec       q    Type
REMARK                         _______ _______ _______ _____ _____    ______ ____
ROOT
ATOM      1  O   UNL     1     -34.210  24.500   4.517  0.00  0.00    -0.333 OA
ATOM      2  O   UNL     1     -37.593  25.120   3.526  0.00  0.00    -0.341 OA
ATOM      3  C   UNL     1     -35.558  24.096   4.287  0.00  0.00    +0.176 C 
ATOM      4  C   UNL     1     -36.191  25.284   3.594  0.00  0.00    +0.176 C 
ATOM      5  C   UNL     1     -35.670  26.411   4.456  0.00  0.00    +0.187 C 
ATOM      6  C   UNL     1     -35.748  22.846   3.446  0.00  0.00    +0.170 C 
ATOM      7  C   UNL     1     -34.233  25.937   4.716  0.00  0.00    +0.229 C 
ATOM      8  C   UNL     1     -37.265  22.675   3.233  0.00  0.00    +0.178 C 
ATOM      9  C   UNL     1     -37.927  23.973   2.727  0.00  0.00    +0.243 C 
ENDROOT
BRANCH   7  11
ATOM     10  O   UNL     1     -32.811  28.632   4.841  0.00  0.00    -0.252 OA
ATOM     11  N   UNL     1     -33.286  26.531   3.812  0.00  0.00    -0.215 N 
ATOM     12  N   UNL     1     -31.831  27.910   2.804  0.00  0.00    -0.264 N 
ATOM     13  C   UNL     1     -32.830  25.938   2.652  0.00  0.00    +0.089 C 
ATOM     14  C   UNL     1     -32.667  27.808   3.951  0.00  0.00    +0.313 C 
ATOM     15  CA  UNL     1     -31.965  26.768   2.060  0.00  0.00    +0.109 C 
ATOM     16  H   UNL     1     -31.253  28.676   2.582  0.00  0.00    +0.157 HD
BRANCH  15  18
ATOM     17  O   UNL     1     -30.861  25.432   0.454  0.00  0.00    -0.282 OA
ATOM     18  C   UNL     1     -31.249  26.545   0.819  0.00  0.00    +0.250 C 
ENDBRANCH  15  18
ENDBRANCH   7  11
BRANCH   5  19
ATOM     19  O   UNL     1     -36.393  26.529   5.677  0.00  0.00    -0.378 OA
ATOM     20  H   UNL     1     -36.191  25.770   6.246  0.00  0.00    +0.211 HD
ENDBRANCH   5  19
BRANCH   6  21
ATOM     21  O   UNL     1     -35.055  22.956   2.205  0.00  0.00    -0.379 OA
ATOM     22  H   UNL     1     -34.106  22.826   2.352  0.00  0.00    +0.211 HD
ENDBRANCH   6  21
BRANCH   8  23
ATOM     23  O   UNL     1     -37.511  21.627   2.303  0.00  0.00    -0.379 OA
ATOM     24  H   UNL     1     -37.173  21.884   1.431  0.00  0.00    +0.211 HD
ENDBRANCH   8  23
BRANCH   9  26
ATOM     25  O   UNL     1     -40.143  23.165   2.218  0.00  0.00    -0.247 OA
ATOM     26  C   UNL     1     -39.413  23.897   2.868  0.00  0.00    +0.344 C 
BRANCH  26  27
ATOM     27  O   UNL     1     -39.848  24.758   3.820  0.00  0.00    -0.478 OA
ATOM     28  H   UNL     1     -39.492  25.624   3.867  0.00  0.00    +0.295 HD
ENDBRANCH  26  27
ENDBRANCH   9  26
TORSDOF 7
ENDMDL
MODEL 7
REMARK VINA RESULT:      -6.0      2.806      4.701
REMARK  Name = 197438
REMARK  7 active torsions:
REMARK  status: ('A' for Active; 'I' for Inactive)
REMARK    1  A    between atoms: C_5  and  O_19
REMARK    2  A    between atoms: C_6  and  O_21
REMARK    3  A    between atoms: C_7  and  N_11
REMARK    4  A    between atoms: C_8  and  O_23
REMARK    5  A    between atoms: C_9  and  C_26
REMARK    6  A    between atoms: CA_15  and  C_18
REMARK    7  A    between atoms: C_26  and  O_27
REMARK                            x       y       z     vdW  Elec       q    Type
REMARK                         _______ _______ _______ _____ _____    ______ ____
ROOT
ATOM      1  O   UNL     1     -36.694  23.766   4.586  0.00  0.00    -0.333 OA
ATOM      2  O   UNL     1     -34.055  25.010   2.512  0.00  0.00    -0.341 OA
ATOM      3  C   UNL     1     -35.408  24.349   4.383  0.00  0.00    +0.176 C 
ATOM      4  C   UNL     1     -35.366  24.654   2.901  0.00  0.00    +0.176 C 
ATOM      5  C   UNL     1     -35.925  23.366   2.341  0.00  0.00    +0.187 C 
ATOM      6  C   UNL     1     -35.111  25.608   5.179  0.00  0.00    +0.170 C 
ATOM      7  C   UNL     1     -37.031  23.062   3.363  0.00  0.00    +0.229 C 
ATOM      8  C   UNL     1     -33.734  26.118   4.712  0.00  0.00    +0.178 C 
ATOM      9  C   UNL     1     -33.644  26.217   3.176  0.00  0.00    +0.243 C 
ENDROOT
BRANCH   7  11
ATOM     10  O   UNL     1     -39.205  21.602   1.800  0.00  0.00    -0.252 OA
ATOM     11  N   UNL     1     -38.323  23.514   2.925  0.00  0.00    -0.215 N 
ATOM     12  N   UNL     1     -40.369  23.658   2.016  0.00  0.00    -0.264 N 
ATOM     13  C   UNL     1     -38.831  24.776   3.153  0.00  0.00    +0.089 C 
ATOM     14  C   UNL     1     -39.283  22.756   2.192  0.00  0.00    +0.313 C 
ATOM     15  CA  UNL     1     -40.050  24.852   2.608  0.00  0.00    +0.109 C 
ATOM     16  H   UNL     1     -41.211  23.458   1.546  0.00  0.00    +0.157 HD
BRANCH  15  18
ATOM     17  O   UNL     1     -40.787  26.974   1.877  0.00  0.00    -0.282 OA
ATOM     18  C   UNL     1     -40.941  25.996   2.612  0.00  0.00    +0.250 C 
ENDBRANCH  15  18
ENDBRANCH   7  11
BRANCH   5  19
ATOM     19  O   UNL     1     -34.953  22.325   2.323  0.00  0.00    -0.378 OA
ATOM     20  H   UNL     1     -34.543  22.250   3.199  0.00  0.00    +0.211 HD
ENDBRANCH   5  19
BRANCH   6  21
ATOM     21  O   UNL     1     -36.127  26.589   4.979  0.00  0.00    -0.379 OA
ATOM     22  H   UNL     1     -35.718  27.462   4.879  0.00  0.00    +0.211 HD
ENDBRANCH   6  21
BRANCH   8  23
ATOM     23  O   UNL     1     -33.470  27.394   5.283  0.00  0.00    -0.379 OA
ATOM     24  H   UNL     1     -33.009  27.949   4.635  0.00  0.00    +0.211 HD
ENDBRANCH   8  23
BRANCH   9  26
ATOM     25  O   UNL     1     -31.394  27.085   3.274  0.00  0.00    -0.247 OA
ATOM     26  C   UNL     1     -32.222  26.363   2.740  0.00  0.00    +0.344 C 
BRANCH  26  27
ATOM     27  O   UNL     1     -31.971  25.583   1.660  0.00  0.00    -0.478 OA
ATOM     28  H   UNL     1     -31.979  25.956   0.801  0.00  0.00    +0.295 HD
ENDBRANCH  26  27
ENDBRANCH   9  26
TORSDOF 7
ENDMDL
MODEL 8
REMARK VINA RESULT:      -5.9      4.367      6.268
REMARK  Name = 197438
REMARK  7 active torsions:
REMARK  status: ('A' for Active; 'I' for Inactive)
REMARK    1  A    between atoms: C_5  and  O_19
REMARK    2  A    between atoms: C_6  and  O_21
REMARK    3  A    between atoms: C_7  and  N_11
REMARK    4  A    between atoms: C_8  and  O_23
REMARK    5  A    between atoms: C_9  and  C_26
REMARK    6  A    between atoms: CA_15  and  C_18
REMARK    7  A    between atoms: C_26  and  O_27
REMARK                            x       y       z     vdW  Elec       q    Type
REMARK                         _______ _______ _______ _____ _____    ______ ____
ROOT
ATOM      1  O   UNL     1     -37.567  24.883   1.145  0.00  0.00    -0.333 OA
ATOM      2  O   UNL     1     -36.792  23.521   4.363  0.00  0.00    -0.341 OA
ATOM      3  C   UNL     1     -36.721  24.184   2.056  0.00  0.00    +0.176 C 
ATOM      4  C   UNL     1     -37.581  23.984   3.285  0.00  0.00    +0.176 C 
ATOM      5  C   UNL     1     -38.189  25.361   3.420  0.00  0.00    +0.187 C 
ATOM      6  C   UNL     1     -36.184  22.846   1.578  0.00  0.00    +0.170 C 
ATOM      7  C   UNL     1     -38.453  25.706   1.946  0.00  0.00    +0.229 C 
ATOM      8  C   UNL     1     -35.407  22.228   2.756  0.00  0.00    +0.178 C 
ATOM      9  C   UNL     1     -36.233  22.232   4.059  0.00  0.00    +0.243 C 
ENDROOT
BRANCH   7  11
ATOM     10  O   UNL     1     -41.074  26.982   2.844  0.00  0.00    -0.252 OA
ATOM     11  N   UNL     1     -39.807  25.426   1.551  0.00  0.00    -0.215 N 
ATOM     12  N   UNL     1     -42.039  25.431   1.329  0.00  0.00    -0.264 N 
ATOM     13  C   UNL     1     -40.173  24.462   0.634  0.00  0.00    +0.089 C 
ATOM     14  C   UNL     1     -40.982  26.078   2.028  0.00  0.00    +0.313 C 
ATOM     15  CA  UNL     1     -41.504  24.473   0.509  0.00  0.00    +0.109 C 
ATOM     16  H   UNL     1     -42.998  25.638   1.421  0.00  0.00    +0.157 HD
BRANCH  15  18
ATOM     17  O   UNL     1     -42.282  22.393  -0.295  0.00  0.00    -0.282 OA
ATOM     18  C   UNL     1     -42.310  23.625  -0.347  0.00  0.00    +0.250 C 
ENDBRANCH  15  18
ENDBRANCH   7  11
BRANCH   5  19
ATOM     19  O   UNL     1     -37.282  26.292   4.002  0.00  0.00    -0.378 OA
ATOM     20  H   UNL     1     -36.376  26.069   3.737  0.00  0.00    +0.211 HD
ENDBRANCH   5  19
BRANCH   6  21
ATOM     21  O   UNL     1     -37.245  21.995   1.147  0.00  0.00    -0.379 OA
ATOM     22  H   UNL     1     -37.145  21.807   0.202  0.00  0.00    +0.211 HD
ENDBRANCH   6  21
BRANCH   8  23
ATOM     23  O   UNL     1     -35.028  20.893   2.442  0.00  0.00    -0.379 OA
ATOM     24  H   UNL     1     -35.692  20.498   1.857  0.00  0.00    +0.211 HD
ENDBRANCH   8  23
BRANCH   9  26
ATOM     25  O   UNL     1     -34.889  22.827   5.974  0.00  0.00    -0.247 OA
ATOM     26  C   UNL     1     -35.355  21.969   5.240  0.00  0.00    +0.344 C 
BRANCH  26  27
ATOM     27  O   UNL     1     -35.141  20.639   5.388  0.00  0.00    -0.478 OA
ATOM     28  H   UNL     1     -35.226  20.241   6.232  0.00  0.00    +0.295 HD
ENDBRANCH  26  27
ENDBRANCH   9  26
TORSDOF 7
ENDMDL
MODEL 9
REMARK VINA RESULT:      -5.9      2.771      4.875
REMARK  Name = 197438
REMARK  7 active torsions:
REMARK  status: ('A' for Active; 'I' for Inactive)
REMARK    1  A    between atoms: C_5  and  O_19
REMARK    2  A    between atoms: C_6  and  O_21
REMARK    3  A    between atoms: C_7  and  N_11
REMARK    4  A    between atoms: C_8  and  O_23
REMARK    5  A    between atoms: C_9  and  C_26
REMARK    6  A    between atoms: CA_15  and  C_18
REMARK    7  A    between atoms: C_26  and  O_27
REMARK                            x       y       z     vdW  Elec       q    Type
REMARK                         _______ _______ _______ _____ _____    ______ ____
ROOT
ATOM      1  O   UNL     1     -37.346  21.590   2.239  0.00  0.00    -0.333 OA
ATOM      2  O   UNL     1     -35.383  23.783   4.276  0.00  0.00    -0.341 OA
ATOM      3  C   UNL     1     -37.186  22.710   3.106  0.00  0.00    +0.176 C 
ATOM      4  C   UNL     1     -35.686  22.863   3.247  0.00  0.00    +0.176 C 
ATOM      5  C   UNL     1     -35.285  21.422   3.471  0.00  0.00    +0.187 C 
ATOM      6  C   UNL     1     -37.796  24.017   2.631  0.00  0.00    +0.170 C 
ATOM      7  C   UNL     1     -36.224  20.705   2.489  0.00  0.00    +0.229 C 
ATOM      8  C   UNL     1     -37.398  25.097   3.656  0.00  0.00    +0.178 C 
ATOM      9  C   UNL     1     -35.883  25.089   3.945  0.00  0.00    +0.243 C 
ENDROOT
BRANCH   7  11
ATOM     10  O   UNL     1     -33.688  19.125   1.875  0.00  0.00    -0.252 OA
ATOM     11  N   UNL     1     -35.588  20.419   1.231  0.00  0.00    -0.215 N 
ATOM     12  N   UNL     1     -34.201  19.685  -0.373  0.00  0.00    -0.264 N 
ATOM     13  C   UNL     1     -36.051  20.845   0.003  0.00  0.00    +0.089 C 
ATOM     14  C   UNL     1     -34.393  19.666   1.037  0.00  0.00    +0.313 C 
ATOM     15  CA  UNL     1     -35.218  20.402  -0.945  0.00  0.00    +0.109 C 
ATOM     16  H   UNL     1     -33.460  19.254  -0.857  0.00  0.00    +0.157 HD
BRANCH  15  18
ATOM     17  O   UNL     1     -36.293  21.174  -2.902  0.00  0.00    -0.282 OA
ATOM     18  C   UNL     1     -35.327  20.619  -2.375  0.00  0.00    +0.250 C 
ENDBRANCH  15  18
ENDBRANCH   7  11
BRANCH   5  19
ATOM     19  O   UNL     1     -35.535  21.000   4.808  0.00  0.00    -0.378 OA
ATOM     20  H   UNL     1     -36.219  21.562   5.202  0.00  0.00    +0.211 HD
ENDBRANCH   5  19
BRANCH   6  21
ATOM     21  O   UNL     1     -37.338  24.347   1.321  0.00  0.00    -0.379 OA
ATOM     22  H   UNL     1     -38.095  24.403   0.718  0.00  0.00    +0.211 HD
ENDBRANCH   6  21
BRANCH   8  23
ATOM     23  O   UNL     1     -37.781  26.382   3.182  0.00  0.00    -0.379 OA
ATOM     24  H   UNL     1     -37.731  27.022   3.909  0.00  0.00    +0.211 HD
ENDBRANCH   8  23
BRANCH   9  26
ATOM     25  O   UNL     1     -34.483  25.945   5.716  0.00  0.00    -0.247 OA
ATOM     26  C   UNL     1     -35.578  25.878   5.178  0.00  0.00    +0.344 C 
BRANCH  26  27
ATOM     27  O   UNL     1     -36.687  26.514   5.625  0.00  0.00    -0.478 OA
ATOM     28  H   UNL     1     -37.485  26.466   5.136  0.00  0.00    +0.295 HD
ENDBRANCH  26  27
ENDBRANCH   9  26
TORSDOF 7
ENDMDL
