MODEL 1
REMARK VINA RESULT:      -6.2      0.000      0.000
REMARK  Name = 51050289
REMARK  7 active torsions:
REMARK  status: ('A' for Active; 'I' for Inactive)
REMARK    1  A    between atoms: C_5  and  C_21
REMARK    2  A    between atoms: C_8  and  C_12
REMARK    3  A    between atoms: C_13  and  N_18
REMARK    4  A    between atoms: C_21  and  C_22
REMARK    5  A    between atoms: C_22  and  C_23
REMARK    6  A    between atoms: C_23  and  N_24
REMARK    7  A    between atoms: N_24  and  C_27
REMARK                            x       y       z     vdW  Elec       q    Type
REMARK                         _______ _______ _______ _____ _____    ______ ____
ROOT
ATOM      1  O   UNL     1     -35.174  21.152   1.511  0.00  0.00    -0.429 OA
ATOM      2  O   UNL     1     -40.460  21.338   1.303  0.00  0.00    -0.268 OA
ATOM      3  N   UNL     1     -38.492  20.225   0.792  0.00  0.00    -0.288 N 
ATOM      4  N   UNL     1     -37.146  22.401   2.100  0.00  0.00    -0.369 NA
ATOM      5  C   UNL     1     -38.445  22.382   2.011  0.00  0.00    +0.165 C 
ATOM      6  C   UNL     1     -37.125  20.271   0.898  0.00  0.00    +0.188 C 
ATOM      7  C   UNL     1     -36.530  21.336   1.535  0.00  0.00    +0.280 C 
ATOM      8  C   UNL     1     -34.940  19.979   0.860  0.00  0.00    +0.147 C 
ATOM      9  C   UNL     1     -36.120  19.393   0.461  0.00  0.00    +0.041 C 
ATOM     10  C   UNL     1     -39.240  21.260   1.330  0.00  0.00    +0.272 C 
ATOM     11  H   UNL     1     -38.935  19.471   0.339  0.00  0.00    +0.151 HD
ENDROOT
BRANCH   8  12
ATOM     12  C   UNL     1     -33.557  19.614   0.736  0.00  0.00    +0.047 C 
ATOM     13  C   UNL     1     -32.648  20.432   0.065  0.00  0.00    +0.044 C 
ATOM     14  C   UNL     1     -33.127  18.414   1.303  0.00  0.00    +0.004 C 
ATOM     15  C   UNL     1     -31.311  20.050  -0.041  0.00  0.00    +0.014 C 
ATOM     16  C   UNL     1     -31.790  18.032   1.198  0.00  0.00    +0.000 C 
ATOM     17  C   UNL     1     -30.882  18.850   0.526  0.00  0.00    +0.001 C 
BRANCH  13  18
ATOM     18  N   UNL     1     -33.055  21.653  -0.521  0.00  0.00    -0.357 N 
ATOM     19  H   UNL     1     -33.520  22.329   0.024  0.00  0.00    +0.142 HD
ATOM     20  H   UNL     1     -32.872  21.828  -1.472  0.00  0.00    +0.142 HD
ENDBRANCH  13  18
ENDBRANCH   8  12
BRANCH   5  21
ATOM     21  C   UNL     1     -39.245  23.510   2.600  0.00  0.00    +0.066 C 
BRANCH  21  22
ATOM     22  C   UNL     1     -38.890  24.830   1.927  0.00  0.00    +0.034 C 
BRANCH  22  23
ATOM     23  C   UNL     1     -38.469  25.929   2.899  0.00  0.00    +0.129 C 
BRANCH  23  24
ATOM     24  N   UNL     1     -37.031  25.839   3.160  0.00  0.00    -0.240 NA
BRANCH  24  27
ATOM     25  N   UNL     1     -36.422  26.412   5.321  0.00  0.00    -0.370 N 
ATOM     26  N   UNL     1     -36.501  24.189   4.823  0.00  0.00    -0.370 N 
ATOM     27  C   UNL     1     -36.676  25.471   4.351  0.00  0.00    +0.189 C 
ATOM     28  H   UNL     1     -36.510  27.370   5.112  0.00  0.00    +0.159 HD
ATOM     29  H   UNL     1     -36.152  26.128   6.224  0.00  0.00    +0.159 HD
ATOM     30  H   UNL     1     -36.652  23.420   4.227  0.00  0.00    +0.159 HD
ATOM     31  H   UNL     1     -36.227  24.042   5.757  0.00  0.00    +0.159 HD
ENDBRANCH  24  27
ENDBRANCH  23  24
ENDBRANCH  22  23
ENDBRANCH  21  22
ENDBRANCH   5  21
TORSDOF 7
ENDMDL
MODEL 2
REMARK VINA RESULT:      -6.2      5.067      7.664
REMARK  Name = 51050289
REMARK  7 active torsions:
REMARK  status: ('A' for Active; 'I' for Inactive)
REMARK    1  A    between atoms: C_5  and  C_21
REMARK    2  A    between atoms: C_8  and  C_12
REMARK    3  A    between atoms: C_13  and  N_18
REMARK    4  A    between atoms: C_21  and  C_22
REMARK    5  A    between atoms: C_22  and  C_23
REMARK    6  A    between atoms: C_23  and  N_24
REMARK    7  A    between atoms: N_24  and  C_27
REMARK                            x       y       z     vdW  Elec       q    Type
REMARK                         _______ _______ _______ _____ _____    ______ ____
ROOT
ATOM      1  O   UNL     1     -33.535  25.596   4.067  0.00  0.00    -0.429 OA
ATOM      2  O   UNL     1     -34.202  30.658   2.669  0.00  0.00    -0.268 OA
ATOM      3  N   UNL     1     -35.140  28.619   3.246  0.00  0.00    -0.288 N 
ATOM      4  N   UNL     1     -32.442  27.659   3.482  0.00  0.00    -0.369 NA
ATOM      5  C   UNL     1     -32.680  28.894   3.141  0.00  0.00    +0.165 C 
ATOM      6  C   UNL     1     -34.862  27.323   3.603  0.00  0.00    +0.188 C 
ATOM      7  C   UNL     1     -33.551  26.915   3.701  0.00  0.00    +0.280 C 
ATOM      8  C   UNL     1     -34.833  25.198   4.190  0.00  0.00    +0.147 C 
ATOM      9  C   UNL     1     -35.695  26.236   3.912  0.00  0.00    +0.041 C 
ATOM     10  C   UNL     1     -34.089  29.484   2.993  0.00  0.00    +0.272 C 
ATOM     11  H   UNL     1     -36.072  28.929   3.170  0.00  0.00    +0.151 HD
ENDROOT
BRANCH   8  12
ATOM     12  C   UNL     1     -35.019  23.827   4.572  0.00  0.00    +0.047 C 
ATOM     13  C   UNL     1     -35.107  22.814   3.618  0.00  0.00    +0.044 C 
ATOM     14  C   UNL     1     -35.110  23.517   5.929  0.00  0.00    +0.004 C 
ATOM     15  C   UNL     1     -35.289  21.491   4.021  0.00  0.00    +0.014 C 
ATOM     16  C   UNL     1     -35.292  22.194   6.332  0.00  0.00    +0.000 C 
ATOM     17  C   UNL     1     -35.380  21.181   5.377  0.00  0.00    +0.001 C 
BRANCH  13  18
ATOM     18  N   UNL     1     -35.019  23.098   2.236  0.00  0.00    -0.357 N 
ATOM     19  H   UNL     1     -34.721  22.400   1.608  0.00  0.00    +0.142 HD
ATOM     20  H   UNL     1     -35.257  23.993   1.901  0.00  0.00    +0.142 HD
ENDBRANCH  13  18
ENDBRANCH   8  12
BRANCH   5  21
ATOM     21  C   UNL     1     -31.530  29.823   2.871  0.00  0.00    +0.066 C 
BRANCH  21  22
ATOM     22  C   UNL     1     -30.681  30.006   4.123  0.00  0.00    +0.034 C 
BRANCH  22  23
ATOM     23  C   UNL     1     -31.258  31.005   5.122  0.00  0.00    +0.129 C 
BRANCH  23  24
ATOM     24  N   UNL     1     -32.144  30.315   6.061  0.00  0.00    -0.240 NA
BRANCH  24  27
ATOM     25  N   UNL     1     -32.241  28.109   6.762  0.00  0.00    -0.370 N 
ATOM     26  N   UNL     1     -30.478  29.351   7.498  0.00  0.00    -0.370 N 
ATOM     27  C   UNL     1     -31.628  29.339   6.741  0.00  0.00    +0.189 C 
ATOM     28  H   UNL     1     -33.075  27.966   6.259  0.00  0.00    +0.159 HD
ATOM     29  H   UNL     1     -31.846  27.371   7.280  0.00  0.00    +0.159 HD
ATOM     30  H   UNL     1     -29.943  30.175   7.568  0.00  0.00    +0.159 HD
ATOM     31  H   UNL     1     -30.191  28.537   7.971  0.00  0.00    +0.159 HD
ENDBRANCH  24  27
ENDBRANCH  23  24
ENDBRANCH  22  23
ENDBRANCH  21  22
ENDBRANCH   5  21
TORSDOF 7
ENDMDL
MODEL 3
REMARK VINA RESULT:      -6.2      4.688      6.974
REMARK  Name = 51050289
REMARK  7 active torsions:
REMARK  status: ('A' for Active; 'I' for Inactive)
REMARK    1  A    between atoms: C_5  and  C_21
REMARK    2  A    between atoms: C_8  and  C_12
REMARK    3  A    between atoms: C_13  and  N_18
REMARK    4  A    between atoms: C_21  and  C_22
REMARK    5  A    between atoms: C_22  and  C_23
REMARK    6  A    between atoms: C_23  and  N_24
REMARK    7  A    between atoms: N_24  and  C_27
REMARK                            x       y       z     vdW  Elec       q    Type
REMARK                         _______ _______ _______ _____ _____    ______ ____
ROOT
ATOM      1  O   UNL     1     -39.045  25.315   3.823  0.00  0.00    -0.429 OA
ATOM      2  O   UNL     1     -41.941  27.642   0.051  0.00  0.00    -0.268 OA
ATOM      3  N   UNL     1     -40.010  26.511   0.657  0.00  0.00    -0.288 N 
ATOM      4  N   UNL     1     -41.089  26.481   3.319  0.00  0.00    -0.369 NA
ATOM      5  C   UNL     1     -41.747  27.038   2.342  0.00  0.00    +0.165 C 
ATOM      6  C   UNL     1     -39.337  25.933   1.703  0.00  0.00    +0.188 C 
ATOM      7  C   UNL     1     -39.899  25.946   2.960  0.00  0.00    +0.280 C 
ATOM      8  C   UNL     1     -37.962  24.918   3.096  0.00  0.00    +0.147 C 
ATOM      9  C   UNL     1     -38.097  25.278   1.774  0.00  0.00    +0.041 C 
ATOM     10  C   UNL     1     -41.243  27.096   0.895  0.00  0.00    +0.272 C 
ATOM     11  H   UNL     1     -39.623  26.512  -0.249  0.00  0.00    +0.151 HD
ENDROOT
BRANCH   8  12
ATOM     12  C   UNL     1     -36.946  24.229   3.841  0.00  0.00    +0.047 C 
ATOM     13  C   UNL     1     -36.271  24.850   4.892  0.00  0.00    +0.044 C 
ATOM     14  C   UNL     1     -36.638  22.914   3.494  0.00  0.00    +0.004 C 
ATOM     15  C   UNL     1     -35.288  24.155   5.596  0.00  0.00    +0.014 C 
ATOM     16  C   UNL     1     -35.654  22.219   4.198  0.00  0.00    +0.000 C 
ATOM     17  C   UNL     1     -34.980  22.840   5.249  0.00  0.00    +0.001 C 
BRANCH  13  18
ATOM     18  N   UNL     1     -36.561  26.182   5.265  0.00  0.00    -0.357 N 
ATOM     19  H   UNL     1     -37.310  26.661   4.839  0.00  0.00    +0.142 HD
ATOM     20  H   UNL     1     -36.017  26.631   5.951  0.00  0.00    +0.142 HD
ENDBRANCH  13  18
ENDBRANCH   8  12
BRANCH   5  21
ATOM     21  C   UNL     1     -43.085  27.669   2.614  0.00  0.00    +0.066 C 
BRANCH  21  22
ATOM     22  C   UNL     1     -43.324  27.796   4.113  0.00  0.00    +0.034 C 
BRANCH  22  23
ATOM     23  C   UNL     1     -43.825  29.171   4.547  0.00  0.00    +0.129 C 
BRANCH  23  24
ATOM     24  N   UNL     1     -42.922  29.737   5.550  0.00  0.00    -0.240 NA
BRANCH  24  27
ATOM     25  N   UNL     1     -43.502  30.370   7.702  0.00  0.00    -0.370 N 
ATOM     26  N   UNL     1     -43.924  31.865   6.035  0.00  0.00    -0.370 N 
ATOM     27  C   UNL     1     -43.423  30.623   6.353  0.00  0.00    +0.189 C 
ATOM     28  H   UNL     1     -43.176  29.514   8.062  0.00  0.00    +0.159 HD
ATOM     29  H   UNL     1     -43.884  31.045   8.308  0.00  0.00    +0.159 HD
ATOM     30  H   UNL     1     -43.927  32.170   5.098  0.00  0.00    +0.159 HD
ATOM     31  H   UNL     1     -44.280  32.449   6.743  0.00  0.00    +0.159 HD
ENDBRANCH  24  27
ENDBRANCH  23  24
ENDBRANCH  22  23
ENDBRANCH  21  22
ENDBRANCH   5  21
TORSDOF 7
ENDMDL
MODEL 4
REMARK VINA RESULT:      -6.1      4.629      7.969
REMARK  Name = 51050289
REMARK  7 active torsions:
REMARK  status: ('A' for Active; 'I' for Inactive)
REMARK    1  A    between atoms: C_5  and  C_21
REMARK    2  A    between atoms: C_8  and  C_12
REMARK    3  A    between atoms: C_13  and  N_18
REMARK    4  A    between atoms: C_21  and  C_22
REMARK    5  A    between atoms: C_22  and  C_23
REMARK    6  A    between atoms: C_23  and  N_24
REMARK    7  A    between atoms: N_24  and  C_27
REMARK                            x       y       z     vdW  Elec       q    Type
REMARK                         _______ _______ _______ _____ _____    ______ ____
ROOT
ATOM      1  O   UNL     1     -32.870  26.496   5.028  0.00  0.00    -0.429 OA
ATOM      2  O   UNL     1     -37.699  24.542   4.088  0.00  0.00    -0.268 OA
ATOM      3  N   UNL     1     -36.170  26.264   3.827  0.00  0.00    -0.288 N 
ATOM      4  N   UNL     1     -34.367  24.642   5.368  0.00  0.00    -0.369 NA
ATOM      5  C   UNL     1     -35.571  24.225   5.100  0.00  0.00    +0.165 C 
ATOM      6  C   UNL     1     -34.897  26.681   4.125  0.00  0.00    +0.188 C 
ATOM      7  C   UNL     1     -34.074  25.865   4.867  0.00  0.00    +0.280 C 
ATOM      8  C   UNL     1     -32.958  27.696   4.388  0.00  0.00    +0.147 C 
ATOM      9  C   UNL     1     -34.197  27.857   3.811  0.00  0.00    +0.041 C 
ATOM     10  C   UNL     1     -36.594  25.027   4.284  0.00  0.00    +0.272 C 
ATOM     11  H   UNL     1     -36.774  26.835   3.298  0.00  0.00    +0.151 HD
ENDROOT
BRANCH   8  12
ATOM     12  C   UNL     1     -31.776  28.510   4.449  0.00  0.00    +0.047 C 
ATOM     13  C   UNL     1     -31.223  28.895   5.671  0.00  0.00    +0.044 C 
ATOM     14  C   UNL     1     -31.180  28.914   3.255  0.00  0.00    +0.004 C 
ATOM     15  C   UNL     1     -30.075  29.686   5.697  0.00  0.00    +0.014 C 
ATOM     16  C   UNL     1     -30.032  29.706   3.282  0.00  0.00    +0.000 C 
ATOM     17  C   UNL     1     -29.479  30.091   4.503  0.00  0.00    +0.001 C 
BRANCH  13  18
ATOM     18  N   UNL     1     -31.806  28.500   6.897  0.00  0.00    -0.357 N 
ATOM     19  H   UNL     1     -31.736  29.086   7.686  0.00  0.00    +0.142 HD
ATOM     20  H   UNL     1     -32.283  27.642   6.962  0.00  0.00    +0.142 HD
ENDBRANCH  13  18
ENDBRANCH   8  12
BRANCH   5  21
ATOM     21  C   UNL     1     -36.019  22.879   5.601  0.00  0.00    +0.066 C 
BRANCH  21  22
ATOM     22  C   UNL     1     -35.249  21.764   4.906  0.00  0.00    +0.034 C 
BRANCH  22  23
ATOM     23  C   UNL     1     -35.381  21.773   3.385  0.00  0.00    +0.129 C 
BRANCH  23  24
ATOM     24  N   UNL     1     -35.550  20.405   2.892  0.00  0.00    -0.240 NA
BRANCH  24  27
ATOM     25  N   UNL     1     -36.567  19.171   1.215  0.00  0.00    -0.370 N 
ATOM     26  N   UNL     1     -37.800  20.834   2.168  0.00  0.00    -0.370 N 
ATOM     27  C   UNL     1     -36.591  20.175   2.153  0.00  0.00    +0.189 C 
ATOM     28  H   UNL     1     -35.758  18.622   1.102  0.00  0.00    +0.159 HD
ATOM     29  H   UNL     1     -37.360  19.001   0.656  0.00  0.00    +0.159 HD
ATOM     30  H   UNL     1     -37.948  21.578   2.797  0.00  0.00    +0.159 HD
ATOM     31  H   UNL     1     -38.516  20.561   1.552  0.00  0.00    +0.159 HD
ENDBRANCH  24  27
ENDBRANCH  23  24
ENDBRANCH  22  23
ENDBRANCH  21  22
ENDBRANCH   5  21
TORSDOF 7
ENDMDL
MODEL 5
REMARK VINA RESULT:      -6.1      4.439      7.602
REMARK  Name = 51050289
REMARK  7 active torsions:
REMARK  status: ('A' for Active; 'I' for Inactive)
REMARK    1  A    between atoms: C_5  and  C_21
REMARK    2  A    between atoms: C_8  and  C_12
REMARK    3  A    between atoms: C_13  and  N_18
REMARK    4  A    between atoms: C_21  and  C_22
REMARK    5  A    between atoms: C_22  and  C_23
REMARK    6  A    between atoms: C_23  and  N_24
REMARK    7  A    between atoms: N_24  and  C_27
REMARK                            x       y       z     vdW  Elec       q    Type
REMARK                         _______ _______ _______ _____ _____    ______ ____
ROOT
ATOM      1  O   UNL     1     -32.961  26.713   4.014  0.00  0.00    -0.429 OA
ATOM      2  O   UNL     1     -36.218  22.649   4.963  0.00  0.00    -0.268 OA
ATOM      3  N   UNL     1     -35.053  24.487   5.762  0.00  0.00    -0.288 N 
ATOM      4  N   UNL     1     -34.122  24.830   3.065  0.00  0.00    -0.369 NA
ATOM      5  C   UNL     1     -34.925  23.851   3.371  0.00  0.00    +0.165 C 
ATOM      6  C   UNL     1     -34.207  25.509   5.413  0.00  0.00    +0.188 C 
ATOM      7  C   UNL     1     -33.791  25.628   4.107  0.00  0.00    +0.280 C 
ATOM      8  C   UNL     1     -32.869  27.255   5.261  0.00  0.00    +0.147 C 
ATOM      9  C   UNL     1     -33.626  26.543   6.165  0.00  0.00    +0.041 C 
ATOM     10  C   UNL     1     -35.467  23.598   4.783  0.00  0.00    +0.272 C 
ATOM     11  H   UNL     1     -35.361  24.385   6.692  0.00  0.00    +0.151 HD
ENDROOT
BRANCH   8  12
ATOM     12  C   UNL     1     -32.031  28.417   5.362  0.00  0.00    +0.047 C 
ATOM     13  C   UNL     1     -32.309  29.576   4.638  0.00  0.00    +0.044 C 
ATOM     14  C   UNL     1     -30.922  28.370   6.206  0.00  0.00    +0.004 C 
ATOM     15  C   UNL     1     -31.475  30.688   4.757  0.00  0.00    +0.014 C 
ATOM     16  C   UNL     1     -30.089  29.482   6.325  0.00  0.00    +0.000 C 
ATOM     17  C   UNL     1     -30.366  30.641   5.601  0.00  0.00    +0.001 C 
BRANCH  13  18
ATOM     18  N   UNL     1     -33.425  29.652   3.774  0.00  0.00    -0.357 N 
ATOM     19  H   UNL     1     -34.332  29.502   4.128  0.00  0.00    +0.142 HD
ATOM     20  H   UNL     1     -33.297  29.857   2.820  0.00  0.00    +0.142 HD
ENDBRANCH  13  18
ENDBRANCH   8  12
BRANCH   5  21
ATOM     21  C   UNL     1     -35.368  22.893   2.299  0.00  0.00    +0.066 C 
BRANCH  21  22
ATOM     22  C   UNL     1     -36.225  23.607   1.261  0.00  0.00    +0.034 C 
BRANCH  22  23
ATOM     23  C   UNL     1     -37.714  23.629   1.595  0.00  0.00    +0.129 C 
BRANCH  23  24
ATOM     24  N   UNL     1     -38.150  25.006   1.833  0.00  0.00    -0.240 NA
BRANCH  24  27
ATOM     25  N   UNL     1     -39.336  24.825   3.815  0.00  0.00    -0.370 N 
ATOM     26  N   UNL     1     -37.565  26.260   3.796  0.00  0.00    -0.370 N 
ATOM     27  C   UNL     1     -38.314  25.362   3.069  0.00  0.00    +0.189 C 
ATOM     28  H   UNL     1     -39.948  24.168   3.412  0.00  0.00    +0.159 HD
ATOM     29  H   UNL     1     -39.456  25.099   4.753  0.00  0.00    +0.159 HD
ATOM     30  H   UNL     1     -36.800  26.717   3.376  0.00  0.00    +0.159 HD
ATOM     31  H   UNL     1     -37.794  26.445   4.735  0.00  0.00    +0.159 HD
ENDBRANCH  24  27
ENDBRANCH  23  24
ENDBRANCH  22  23
ENDBRANCH  21  22
ENDBRANCH   5  21
TORSDOF 7
ENDMDL
MODEL 6
REMARK VINA RESULT:      -6.0      5.541      8.584
REMARK  Name = 51050289
REMARK  7 active torsions:
REMARK  status: ('A' for Active; 'I' for Inactive)
REMARK    1  A    between atoms: C_5  and  C_21
REMARK    2  A    between atoms: C_8  and  C_12
REMARK    3  A    between atoms: C_13  and  N_18
REMARK    4  A    between atoms: C_21  and  C_22
REMARK    5  A    between atoms: C_22  and  C_23
REMARK    6  A    between atoms: C_23  and  N_24
REMARK    7  A    between atoms: N_24  and  C_27
REMARK                            x       y       z     vdW  Elec       q    Type
REMARK                         _______ _______ _______ _____ _____    ______ ____
ROOT
ATOM      1  O   UNL     1     -34.459  25.987   3.558  0.00  0.00    -0.429 OA
ATOM      2  O   UNL     1     -31.485  28.670   7.019  0.00  0.00    -0.268 OA
ATOM      3  N   UNL     1     -33.092  27.048   6.623  0.00  0.00    -0.288 N 
ATOM      4  N   UNL     1     -32.784  27.694   3.840  0.00  0.00    -0.369 NA
ATOM      5  C   UNL     1     -32.085  28.315   4.747  0.00  0.00    +0.165 C 
ATOM      6  C   UNL     1     -33.816  26.410   5.648  0.00  0.00    +0.188 C 
ATOM      7  C   UNL     1     -33.631  26.757   4.329  0.00  0.00    +0.280 C 
ATOM      8  C   UNL     1     -35.151  25.173   4.403  0.00  0.00    +0.147 C 
ATOM      9  C   UNL     1     -34.786  25.397   5.712  0.00  0.00    +0.041 C 
ATOM     10  C   UNL     1     -32.189  28.030   6.251  0.00  0.00    +0.272 C 
ATOM     11  H   UNL     1     -33.212  26.813   7.572  0.00  0.00    +0.151 HD
ENDROOT
BRANCH   8  12
ATOM     12  C   UNL     1     -36.081  24.282   3.768  0.00  0.00    +0.047 C 
ATOM     13  C   UNL     1     -37.372  24.696   3.438  0.00  0.00    +0.044 C 
ATOM     14  C   UNL     1     -35.672  22.980   3.482  0.00  0.00    +0.004 C 
ATOM     15  C   UNL     1     -38.253  23.807   2.823  0.00  0.00    +0.014 C 
ATOM     16  C   UNL     1     -36.553  22.091   2.867  0.00  0.00    +0.000 C 
ATOM     17  C   UNL     1     -37.843  22.505   2.537  0.00  0.00    +0.001 C 
BRANCH  13  18
ATOM     18  N   UNL     1     -37.815  26.009   3.717  0.00  0.00    -0.357 N 
ATOM     19  H   UNL     1     -37.344  26.781   3.326  0.00  0.00    +0.142 HD
ATOM     20  H   UNL     1     -38.594  26.152   4.301  0.00  0.00    +0.142 HD
ENDBRANCH  13  18
ENDBRANCH   8  12
BRANCH   5  21
ATOM     21  C   UNL     1     -31.108  29.378   4.330  0.00  0.00    +0.066 C 
BRANCH  21  22
ATOM     22  C   UNL     1     -29.837  28.751   3.771  0.00  0.00    +0.034 C 
BRANCH  22  23
ATOM     23  C   UNL     1     -28.682  28.696   4.767  0.00  0.00    +0.129 C 
BRANCH  23  24
ATOM     24  N   UNL     1     -28.613  27.367   5.377  0.00  0.00    -0.240 NA
BRANCH  24  27
ATOM     25  N   UNL     1     -28.599  28.323   7.487  0.00  0.00    -0.370 N 
ATOM     26  N   UNL     1     -27.521  26.329   7.247  0.00  0.00    -0.370 N 
ATOM     27  C   UNL     1     -28.252  27.313   6.621  0.00  0.00    +0.189 C 
ATOM     28  H   UNL     1     -29.124  29.090   7.164  0.00  0.00    +0.159 HD
ATOM     29  H   UNL     1     -28.322  28.279   8.431  0.00  0.00    +0.159 HD
ATOM     30  H   UNL     1     -27.209  25.547   6.737  0.00  0.00    +0.159 HD
ATOM     31  H   UNL     1     -27.311  26.407   8.205  0.00  0.00    +0.159 HD
ENDBRANCH  24  27
ENDBRANCH  23  24
ENDBRANCH  22  23
ENDBRANCH  21  22
ENDBRANCH   5  21
TORSDOF 7
ENDMDL
MODEL 7
REMARK VINA RESULT:      -6.0      2.258      2.738
REMARK  Name = 51050289
REMARK  7 active torsions:
REMARK  status: ('A' for Active; 'I' for Inactive)
REMARK    1  A    between atoms: C_5  and  C_21
REMARK    2  A    between atoms: C_8  and  C_12
REMARK    3  A    between atoms: C_13  and  N_18
REMARK    4  A    between atoms: C_21  and  C_22
REMARK    5  A    between atoms: C_22  and  C_23
REMARK    6  A    between atoms: C_23  and  N_24
REMARK    7  A    between atoms: N_24  and  C_27
REMARK                            x       y       z     vdW  Elec       q    Type
REMARK                         _______ _______ _______ _____ _____    ______ ____
ROOT
ATOM      1  O   UNL     1     -34.779  21.525   0.877  0.00  0.00    -0.429 OA
ATOM      2  O   UNL     1     -37.952  24.507   3.888  0.00  0.00    -0.268 OA
ATOM      3  N   UNL     1     -37.053  22.425   3.409  0.00  0.00    -0.288 N 
ATOM      4  N   UNL     1     -35.643  23.737   1.275  0.00  0.00    -0.369 NA
ATOM      5  C   UNL     1     -36.442  24.408   2.055  0.00  0.00    +0.165 C 
ATOM      6  C   UNL     1     -36.208  21.741   2.573  0.00  0.00    +0.188 C 
ATOM      7  C   UNL     1     -35.556  22.418   1.566  0.00  0.00    +0.280 C 
ATOM      8  C   UNL     1     -34.956  20.306   1.460  0.00  0.00    +0.147 C 
ATOM      9  C   UNL     1     -35.834  20.389   2.518  0.00  0.00    +0.041 C 
ATOM     10  C   UNL     1     -37.230  23.786   3.215  0.00  0.00    +0.272 C 
ATOM     11  H   UNL     1     -37.528  21.958   4.134  0.00  0.00    +0.151 HD
ENDROOT
BRANCH   8  12
ATOM     12  C   UNL     1     -34.212  19.231   0.867  0.00  0.00    +0.047 C 
ATOM     13  C   UNL     1     -34.597  18.669  -0.351  0.00  0.00    +0.044 C 
ATOM     14  C   UNL     1     -33.085  18.750   1.532  0.00  0.00    +0.004 C 
ATOM     15  C   UNL     1     -33.854  17.624  -0.901  0.00  0.00    +0.014 C 
ATOM     16  C   UNL     1     -32.342  17.706   0.981  0.00  0.00    +0.000 C 
ATOM     17  C   UNL     1     -32.727  17.144  -0.236  0.00  0.00    +0.001 C 
BRANCH  13  18
ATOM     18  N   UNL     1     -35.735  19.135  -1.047  0.00  0.00    -0.357 N 
ATOM     19  H   UNL     1     -36.313  19.823  -0.642  0.00  0.00    +0.142 HD
ATOM     20  H   UNL     1     -35.951  18.773  -1.937  0.00  0.00    +0.142 HD
ENDBRANCH  13  18
ENDBRANCH   8  12
BRANCH   5  21
ATOM     21  C   UNL     1     -36.624  25.885   1.835  0.00  0.00    +0.066 C 
BRANCH  21  22
ATOM     22  C   UNL     1     -35.297  26.618   1.986  0.00  0.00    +0.034 C 
BRANCH  22  23
ATOM     23  C   UNL     1     -35.260  27.597   3.156  0.00  0.00    +0.129 C 
BRANCH  23  24
ATOM     24  N   UNL     1     -34.477  27.030   4.256  0.00  0.00    -0.240 NA
BRANCH  24  27
ATOM     25  N   UNL     1     -36.371  26.482   5.472  0.00  0.00    -0.370 N 
ATOM     26  N   UNL     1     -34.625  25.020   5.563  0.00  0.00    -0.370 N 
ATOM     27  C   UNL     1     -35.093  26.208   5.047  0.00  0.00    +0.189 C 
ATOM     28  H   UNL     1     -36.823  27.304   5.175  0.00  0.00    +0.159 HD
ATOM     29  H   UNL     1     -36.835  25.856   6.074  0.00  0.00    +0.159 HD
ATOM     30  H   UNL     1     -33.719  24.707   5.336  0.00  0.00    +0.159 HD
ATOM     31  H   UNL     1     -35.196  24.484   6.159  0.00  0.00    +0.159 HD
ENDBRANCH  24  27
ENDBRANCH  23  24
ENDBRANCH  22  23
ENDBRANCH  21  22
ENDBRANCH   5  21
TORSDOF 7
ENDMDL
MODEL 8
REMARK VINA RESULT:      -5.9     13.652     14.661
REMARK  Name = 51050289
REMARK  7 active torsions:
REMARK  status: ('A' for Active; 'I' for Inactive)
REMARK    1  A    between atoms: C_5  and  C_21
REMARK    2  A    between atoms: C_8  and  C_12
REMARK    3  A    between atoms: C_13  and  N_18
REMARK    4  A    between atoms: C_21  and  C_22
REMARK    5  A    between atoms: C_22  and  C_23
REMARK    6  A    between atoms: C_23  and  N_24
REMARK    7  A    between atoms: N_24  and  C_27
REMARK                            x       y       z     vdW  Elec       q    Type
REMARK                         _______ _______ _______ _____ _____    ______ ____
ROOT
ATOM      1  O   UNL     1     -43.049  33.794   3.237  0.00  0.00    -0.429 OA
ATOM      2  O   UNL     1     -48.150  32.555   2.546  0.00  0.00    -0.268 OA
ATOM      3  N   UNL     1     -46.169  33.376   1.663  0.00  0.00    -0.288 N 
ATOM      4  N   UNL     1     -45.043  32.925   4.268  0.00  0.00    -0.369 NA
ATOM      5  C   UNL     1     -46.292  32.644   4.027  0.00  0.00    +0.165 C 
ATOM      6  C   UNL     1     -44.858  33.664   1.943  0.00  0.00    +0.188 C 
ATOM      7  C   UNL     1     -44.368  33.429   3.208  0.00  0.00    +0.280 C 
ATOM      8  C   UNL     1     -42.733  34.252   1.993  0.00  0.00    +0.147 C 
ATOM      9  C   UNL     1     -43.824  34.191   1.154  0.00  0.00    +0.041 C 
ATOM     10  C   UNL     1     -46.970  32.854   2.666  0.00  0.00    +0.272 C 
ATOM     11  H   UNL     1     -46.537  33.538   0.764  0.00  0.00    +0.151 HD
ENDROOT
BRANCH   8  12
ATOM     12  C   UNL     1     -41.374  34.686   1.828  0.00  0.00    +0.047 C 
ATOM     13  C   UNL     1     -40.768  35.538   2.751  0.00  0.00    +0.044 C 
ATOM     14  C   UNL     1     -40.659  34.237   0.718  0.00  0.00    +0.004 C 
ATOM     15  C   UNL     1     -39.447  35.943   2.562  0.00  0.00    +0.014 C 
ATOM     16  C   UNL     1     -39.338  34.642   0.530  0.00  0.00    +0.000 C 
ATOM     17  C   UNL     1     -38.732  35.494   1.453  0.00  0.00    +0.001 C 
BRANCH  13  18
ATOM     18  N   UNL     1     -41.469  36.009   3.885  0.00  0.00    -0.357 N 
ATOM     19  H   UNL     1     -41.218  35.695   4.784  0.00  0.00    +0.142 HD
ATOM     20  H   UNL     1     -42.206  36.653   3.776  0.00  0.00    +0.142 HD
ENDBRANCH  13  18
ENDBRANCH   8  12
BRANCH   5  21
ATOM     21  C   UNL     1     -47.150  32.078   5.124  0.00  0.00    +0.066 C 
BRANCH  21  22
ATOM     22  C   UNL     1     -46.752  32.664   6.473  0.00  0.00    +0.034 C 
BRANCH  22  23
ATOM     23  C   UNL     1     -46.411  31.616   7.529  0.00  0.00    +0.129 C 
BRANCH  23  24
ATOM     24  N   UNL     1     -45.464  30.645   6.978  0.00  0.00    -0.240 NA
BRANCH  24  27
ATOM     25  N   UNL     1     -43.421  31.557   6.373  0.00  0.00    -0.370 N 
ATOM     26  N   UNL     1     -43.498  30.400   8.336  0.00  0.00    -0.370 N 
ATOM     27  C   UNL     1     -44.209  30.838   7.241  0.00  0.00    +0.189 C 
ATOM     28  H   UNL     1     -43.809  31.927   5.548  0.00  0.00    +0.159 HD
ATOM     29  H   UNL     1     -42.469  31.700   6.577  0.00  0.00    +0.159 HD
ATOM     30  H   UNL     1     -43.947  29.872   9.035  0.00  0.00    +0.159 HD
ATOM     31  H   UNL     1     -42.542  30.615   8.419  0.00  0.00    +0.159 HD
ENDBRANCH  24  27
ENDBRANCH  23  24
ENDBRANCH  22  23
ENDBRANCH  21  22
ENDBRANCH   5  21
TORSDOF 7
ENDMDL
MODEL 9
REMARK VINA RESULT:      -5.9      4.243      7.970
REMARK  Name = 51050289
REMARK  7 active torsions:
REMARK  status: ('A' for Active; 'I' for Inactive)
REMARK    1  A    between atoms: C_5  and  C_21
REMARK    2  A    between atoms: C_8  and  C_12
REMARK    3  A    between atoms: C_13  and  N_18
REMARK    4  A    between atoms: C_21  and  C_22
REMARK    5  A    between atoms: C_22  and  C_23
REMARK    6  A    between atoms: C_23  and  N_24
REMARK    7  A    between atoms: N_24  and  C_27
REMARK                            x       y       z     vdW  Elec       q    Type
REMARK                         _______ _______ _______ _____ _____    ______ ____
ROOT
ATOM      1  O   UNL     1     -38.706  25.827   3.105  0.00  0.00    -0.429 OA
ATOM      2  O   UNL     1     -35.369  21.941   4.444  0.00  0.00    -0.268 OA
ATOM      3  N   UNL     1     -37.303  22.608   3.354  0.00  0.00    -0.288 N 
ATOM      4  N   UNL     1     -36.679  25.259   4.273  0.00  0.00    -0.369 NA
ATOM      5  C   UNL     1     -35.903  24.254   4.566  0.00  0.00    +0.165 C 
ATOM      6  C   UNL     1     -38.104  23.683   3.061  0.00  0.00    +0.188 C 
ATOM      7  C   UNL     1     -37.759  24.932   3.526  0.00  0.00    +0.280 C 
ATOM      8  C   UNL     1     -39.628  25.127   2.386  0.00  0.00    +0.147 C 
ATOM      9  C   UNL     1     -39.298  23.791   2.329  0.00  0.00    +0.041 C 
ATOM     10  C   UNL     1     -36.163  22.811   4.115  0.00  0.00    +0.272 C 
ATOM     11  H   UNL     1     -37.534  21.707   3.030  0.00  0.00    +0.151 HD
ENDROOT
BRANCH   8  12
ATOM     12  C   UNL     1     -40.711  25.907   1.857  0.00  0.00    +0.047 C 
ATOM     13  C   UNL     1     -41.571  26.615   2.695  0.00  0.00    +0.044 C 
ATOM     14  C   UNL     1     -40.893  25.947   0.475  0.00  0.00    +0.004 C 
ATOM     15  C   UNL     1     -42.615  27.363   2.151  0.00  0.00    +0.014 C 
ATOM     16  C   UNL     1     -41.937  26.695  -0.070  0.00  0.00    +0.000 C 
ATOM     17  C   UNL     1     -42.798  27.404   0.769  0.00  0.00    +0.001 C 
BRANCH  13  18
ATOM     18  N   UNL     1     -41.412  26.592   4.099  0.00  0.00    -0.357 N 
ATOM     19  H   UNL     1     -40.642  26.124   4.499  0.00  0.00    +0.142 HD
ATOM     20  H   UNL     1     -42.067  27.045   4.678  0.00  0.00    +0.142 HD
ENDBRANCH  13  18
ENDBRANCH   8  12
BRANCH   5  21
ATOM     21  C   UNL     1     -34.668  24.488   5.392  0.00  0.00    +0.066 C 
BRANCH  21  22
ATOM     22  C   UNL     1     -34.582  25.946   5.827  0.00  0.00    +0.034 C 
BRANCH  22  23
ATOM     23  C   UNL     1     -33.444  26.723   5.171  0.00  0.00    +0.129 C 
BRANCH  23  24
ATOM     24  N   UNL     1     -32.441  27.080   6.175  0.00  0.00    -0.240 NA
BRANCH  24  27
ATOM     25  N   UNL     1     -32.404  29.196   5.231  0.00  0.00    -0.370 N 
ATOM     26  N   UNL     1     -31.512  28.978   7.317  0.00  0.00    -0.370 N 
ATOM     27  C   UNL     1     -32.126  28.335   6.266  0.00  0.00    +0.189 C 
ATOM     28  H   UNL     1     -32.844  28.861   4.417  0.00  0.00    +0.159 HD
ATOM     29  H   UNL     1     -32.163  30.147   5.304  0.00  0.00    +0.159 HD
ATOM     30  H   UNL     1     -31.258  28.473   8.123  0.00  0.00    +0.159 HD
ATOM     31  H   UNL     1     -31.326  29.943   7.262  0.00  0.00    +0.159 HD
ENDBRANCH  24  27
ENDBRANCH  23  24
ENDBRANCH  22  23
ENDBRANCH  21  22
ENDBRANCH   5  21
TORSDOF 7
ENDMDL
