MODEL 1
REMARK VINA RESULT:      -6.0      0.000      0.000
REMARK  Name = 55914
REMARK  4 active torsions:
REMARK  status: ('A' for Active; 'I' for Inactive)
REMARK    1  A    between atoms: N_2  and  C1*_12
REMARK    2  A    between atoms: C3*_13  and  O3*_16
REMARK    3  A    between atoms: C4*_15  and  C5*_18
REMARK    4  A    between atoms: C5*_18  and  O5*_19
REMARK                            x       y       z     vdW  Elec       q    Type
REMARK                         _______ _______ _______ _____ _____    ______ ____
ROOT
ATOM      1 BR   UNL     1     -35.196  21.595   5.615  0.00  0.00    +0.062 Br
ATOM      2  N   UNL     1     -38.098  23.964   2.005  0.00  0.00    -0.238 N 
ATOM      3  N   UNL     1     -38.003  26.019   2.870  0.00  0.00    -0.240 NA
ATOM      4  N   UNL     1     -36.755  22.767   3.639  0.00  0.00    -0.317 NA
ATOM      5  N   UNL     1     -35.951  24.260   5.395  0.00  0.00    -0.318 NA
ATOM      6  C   UNL     1     -37.336  23.868   3.137  0.00  0.00    +0.221 C 
ATOM      7  C   UNL     1     -38.475  25.278   1.889  0.00  0.00    +0.224 C 
ATOM      8  C   UNL     1     -37.290  25.151   3.658  0.00  0.00    +0.167 C 
ATOM      9  C   UNL     1     -36.564  25.329   4.831  0.00  0.00    +0.211 C 
ATOM     10  C   UNL     1     -36.083  23.064   4.773  0.00  0.00    +0.178 C 
ATOM     11  N   UNL     1     -36.463  26.597   5.428  0.00  0.00    -0.331 N 
ATOM     12  H   UNL     1     -35.947  26.711   6.259  0.00  0.00    +0.145 HD
ATOM     13  H   UNL     1     -36.910  27.372   5.017  0.00  0.00    +0.145 HD
ENDROOT
BRANCH   2  15
ATOM     14  O4* UNL     1     -38.377  21.619   1.770  0.00  0.00    -0.335 OA
ATOM     15  C1* UNL     1     -38.449  22.884   1.090  0.00  0.00    +0.198 C 
ATOM     16  C3* UNL     1     -37.691  21.318  -0.492  0.00  0.00    +0.144 C 
ATOM     17  C2* UNL     1     -37.543  22.778  -0.129  0.00  0.00    +0.083 C 
ATOM     18  C4* UNL     1     -37.836  20.635   0.864  0.00  0.00    +0.173 C 
BRANCH  16  19
ATOM     19  O3* UNL     1     -38.896  21.159  -1.238  0.00  0.00    -0.382 OA
ATOM     20  H3* UNL     1     -39.487  20.548  -0.771  0.00  0.00    +0.210 HD
ENDBRANCH  16  19
BRANCH  18  21
ATOM     21  C5* UNL     1     -36.505  20.158   1.426  0.00  0.00    +0.169 C 
BRANCH  21  22
ATOM     22  O5* UNL     1     -36.682  19.822   2.791  0.00  0.00    -0.379 OA
ATOM     23  H5* UNL     1     -37.014  20.595   3.274  0.00  0.00    +0.211 HD
ENDBRANCH  21  22
ENDBRANCH  18  21
ENDBRANCH   2  15
TORSDOF 4
ENDMDL
MODEL 2
REMARK VINA RESULT:      -5.9      3.382      5.868
REMARK  Name = 55914
REMARK  4 active torsions:
REMARK  status: ('A' for Active; 'I' for Inactive)
REMARK    1  A    between atoms: N_2  and  C1*_12
REMARK    2  A    between atoms: C3*_13  and  O3*_16
REMARK    3  A    between atoms: C4*_15  and  C5*_18
REMARK    4  A    between atoms: C5*_18  and  O5*_19
REMARK                            x       y       z     vdW  Elec       q    Type
REMARK                         _______ _______ _______ _____ _____    ______ ____
ROOT
ATOM      1 BR   UNL     1     -32.654  18.383   1.069  0.00  0.00    +0.062 Br
ATOM      2  N   UNL     1     -36.283  21.780   2.602  0.00  0.00    -0.238 N 
ATOM      3  N   UNL     1     -37.965  20.968   1.380  0.00  0.00    -0.240 NA
ATOM      4  N   UNL     1     -34.518  20.242   1.949  0.00  0.00    -0.317 NA
ATOM      5  N   UNL     1     -35.327  18.593   0.341  0.00  0.00    -0.318 NA
ATOM      6  C   UNL     1     -35.774  20.716   1.910  0.00  0.00    +0.221 C 
ATOM      7  C   UNL     1     -37.603  21.890   2.248  0.00  0.00    +0.224 C 
ATOM      8  C   UNL     1     -36.831  20.227   1.160  0.00  0.00    +0.167 C 
ATOM      9  C   UNL     1     -36.573  19.124   0.352  0.00  0.00    +0.211 C 
ATOM     10  C   UNL     1     -34.392  19.176   1.128  0.00  0.00    +0.178 C 
ATOM     11  N   UNL     1     -37.588  18.563  -0.443  0.00  0.00    -0.331 N 
ATOM     12  H   UNL     1     -37.393  17.782  -1.010  0.00  0.00    +0.145 HD
ATOM     13  H   UNL     1     -38.492  18.951  -0.432  0.00  0.00    +0.145 HD
ENDROOT
BRANCH   2  15
ATOM     14  O4* UNL     1     -36.491  23.219   4.477  0.00  0.00    -0.335 OA
ATOM     15  C1* UNL     1     -35.568  22.640   3.539  0.00  0.00    +0.198 C 
ATOM     16  C3* UNL     1     -34.769  24.800   4.014  0.00  0.00    +0.144 C 
ATOM     17  C2* UNL     1     -34.825  23.797   2.885  0.00  0.00    +0.083 C 
ATOM     18  C4* UNL     1     -36.092  24.582   4.740  0.00  0.00    +0.173 C 
BRANCH  16  19
ATOM     19  O3* UNL     1     -33.687  24.449   4.875  0.00  0.00    -0.382 OA
ATOM     20  H3* UNL     1     -32.932  25.030   4.697  0.00  0.00    +0.210 HD
ENDBRANCH  16  19
BRANCH  18  21
ATOM     21  C5* UNL     1     -37.196  25.501   4.239  0.00  0.00    +0.169 C 
BRANCH  21  22
ATOM     22  O5* UNL     1     -38.394  24.753   4.125  0.00  0.00    -0.379 OA
ATOM     23  H5* UNL     1     -38.195  23.808   4.213  0.00  0.00    +0.211 HD
ENDBRANCH  21  22
ENDBRANCH  18  21
ENDBRANCH   2  15
TORSDOF 4
ENDMDL
MODEL 3
REMARK VINA RESULT:      -5.8      3.654      6.075
REMARK  Name = 55914
REMARK  4 active torsions:
REMARK  status: ('A' for Active; 'I' for Inactive)
REMARK    1  A    between atoms: N_2  and  C1*_12
REMARK    2  A    between atoms: C3*_13  and  O3*_16
REMARK    3  A    between atoms: C4*_15  and  C5*_18
REMARK    4  A    between atoms: C5*_18  and  O5*_19
REMARK                            x       y       z     vdW  Elec       q    Type
REMARK                         _______ _______ _______ _____ _____    ______ ____
ROOT
ATOM      1 BR   UNL     1     -39.814  22.680  -0.405  0.00  0.00    +0.062 Br
ATOM      2  N   UNL     1     -36.305  22.830   3.432  0.00  0.00    -0.238 N 
ATOM      3  N   UNL     1     -35.562  20.736   3.218  0.00  0.00    -0.240 NA
ATOM      4  N   UNL     1     -37.969  22.860   1.661  0.00  0.00    -0.317 NA
ATOM      5  N   UNL     1     -38.079  20.711   0.508  0.00  0.00    -0.318 NA
ATOM      6  C   UNL     1     -37.015  22.275   2.403  0.00  0.00    +0.221 C 
ATOM      7  C   UNL     1     -35.444  21.864   3.888  0.00  0.00    +0.224 C 
ATOM      8  C   UNL     1     -36.540  20.979   2.287  0.00  0.00    +0.167 C 
ATOM      9  C   UNL     1     -37.109  20.186   1.295  0.00  0.00    +0.211 C 
ATOM     10  C   UNL     1     -38.442  21.996   0.737  0.00  0.00    +0.178 C 
ATOM     11  N   UNL     1     -36.687  18.859   1.107  0.00  0.00    -0.331 N 
ATOM     12  H   UNL     1     -37.098  18.307   0.402  0.00  0.00    +0.145 HD
ATOM     13  H   UNL     1     -35.983  18.480   1.680  0.00  0.00    +0.145 HD
ENDROOT
BRANCH   2  15
ATOM     14  O4* UNL     1     -35.797  25.117   3.057  0.00  0.00    -0.335 OA
ATOM     15  C1* UNL     1     -36.429  24.187   3.953  0.00  0.00    +0.198 C 
ATOM     16  C3* UNL     1     -35.493  25.875   5.296  0.00  0.00    +0.144 C 
ATOM     17  C2* UNL     1     -35.791  24.393   5.320  0.00  0.00    +0.083 C 
ATOM     18  C4* UNL     1     -35.132  26.134   3.836  0.00  0.00    +0.173 C 
BRANCH  16  19
ATOM     19  O3* UNL     1     -36.688  26.581   5.625  0.00  0.00    -0.382 OA
ATOM     20  H3* UNL     1     -36.987  26.314   6.508  0.00  0.00    +0.210 HD
ENDBRANCH  16  19
BRANCH  18  21
ATOM     21  C5* UNL     1     -33.637  26.028   3.573  0.00  0.00    +0.169 C 
BRANCH  21  22
ATOM     22  O5* UNL     1     -32.941  26.542   4.695  0.00  0.00    -0.379 OA
ATOM     23  H5* UNL     1     -32.783  25.828   5.332  0.00  0.00    +0.211 HD
ENDBRANCH  21  22
ENDBRANCH  18  21
ENDBRANCH   2  15
TORSDOF 4
ENDMDL
MODEL 4
REMARK VINA RESULT:      -5.8      2.896      5.188
REMARK  Name = 55914
REMARK  4 active torsions:
REMARK  status: ('A' for Active; 'I' for Inactive)
REMARK    1  A    between atoms: N_2  and  C1*_12
REMARK    2  A    between atoms: C3*_13  and  O3*_16
REMARK    3  A    between atoms: C4*_15  and  C5*_18
REMARK    4  A    between atoms: C5*_18  and  O5*_19
REMARK                            x       y       z     vdW  Elec       q    Type
REMARK                         _______ _______ _______ _____ _____    ______ ____
ROOT
ATOM      1 BR   UNL     1     -36.270  19.202   0.109  0.00  0.00    +0.062 Br
ATOM      2  N   UNL     1     -37.359  23.444   2.918  0.00  0.00    -0.238 N 
ATOM      3  N   UNL     1     -39.530  23.567   2.414  0.00  0.00    -0.240 NA
ATOM      4  N   UNL     1     -36.750  21.469   1.638  0.00  0.00    -0.317 NA
ATOM      5  N   UNL     1     -38.673  20.557   0.443  0.00  0.00    -0.318 NA
ATOM      6  C   UNL     1     -37.617  22.395   2.079  0.00  0.00    +0.221 C 
ATOM      7  C   UNL     1     -38.541  24.118   3.088  0.00  0.00    +0.224 C 
ATOM      8  C   UNL     1     -38.966  22.490   1.778  0.00  0.00    +0.167 C 
ATOM      9  C   UNL     1     -39.490  21.523   0.926  0.00  0.00    +0.211 C 
ATOM     10  C   UNL     1     -37.373  20.590   0.823  0.00  0.00    +0.178 C 
ATOM     11  N   UNL     1     -40.850  21.542   0.568  0.00  0.00    -0.331 N 
ATOM     12  H   UNL     1     -41.209  20.853  -0.036  0.00  0.00    +0.145 HD
ATOM     13  H   UNL     1     -41.441  22.245   0.921  0.00  0.00    +0.145 HD
ENDROOT
BRANCH   2  15
ATOM     14  O4* UNL     1     -35.431  22.603   4.018  0.00  0.00    -0.335 OA
ATOM     15  C1* UNL     1     -36.077  23.789   3.523  0.00  0.00    +0.198 C 
ATOM     16  C3* UNL     1     -34.925  24.421   5.473  0.00  0.00    +0.144 C 
ATOM     17  C2* UNL     1     -36.178  24.755   4.695  0.00  0.00    +0.083 C 
ATOM     18  C4* UNL     1     -34.776  22.918   5.265  0.00  0.00    +0.173 C 
BRANCH  16  19
ATOM     19  O3* UNL     1     -33.826  25.099   4.868  0.00  0.00    -0.382 OA
ATOM     20  H3* UNL     1     -33.013  24.894   5.355  0.00  0.00    +0.210 HD
ENDBRANCH  16  19
BRANCH  18  21
ATOM     21  C5* UNL     1     -35.440  22.104   6.365  0.00  0.00    +0.169 C 
BRANCH  21  22
ATOM     22  O5* UNL     1     -35.502  20.749   5.955  0.00  0.00    -0.379 OA
ATOM     23  H5* UNL     1     -34.630  20.468   5.636  0.00  0.00    +0.211 HD
ENDBRANCH  21  22
ENDBRANCH  18  21
ENDBRANCH   2  15
TORSDOF 4
ENDMDL
MODEL 5
REMARK VINA RESULT:      -5.8      5.034      6.878
REMARK  Name = 55914
REMARK  4 active torsions:
REMARK  status: ('A' for Active; 'I' for Inactive)
REMARK    1  A    between atoms: N_2  and  C1*_12
REMARK    2  A    between atoms: C3*_13  and  O3*_16
REMARK    3  A    between atoms: C4*_15  and  C5*_18
REMARK    4  A    between atoms: C5*_18  and  O5*_19
REMARK                            x       y       z     vdW  Elec       q    Type
REMARK                         _______ _______ _______ _____ _____    ______ ____
ROOT
ATOM      1 BR   UNL     1     -35.184  22.217   6.094  0.00  0.00    +0.062 Br
ATOM      2  N   UNL     1     -34.438  26.731   3.617  0.00  0.00    -0.238 N 
ATOM      3  N   UNL     1     -36.437  26.846   2.631  0.00  0.00    -0.240 NA
ATOM      4  N   UNL     1     -34.689  24.630   4.814  0.00  0.00    -0.317 NA
ATOM      5  N   UNL     1     -36.887  23.642   4.424  0.00  0.00    -0.318 NA
ATOM      6  C   UNL     1     -35.121  25.610   4.004  0.00  0.00    +0.221 C 
ATOM      7  C   UNL     1     -35.273  27.441   2.792  0.00  0.00    +0.224 C 
ATOM      8  C   UNL     1     -36.356  25.701   3.382  0.00  0.00    +0.167 C 
ATOM      9  C   UNL     1     -37.255  24.666   3.616  0.00  0.00    +0.211 C 
ATOM     10  C   UNL     1     -35.646  23.688   4.964  0.00  0.00    +0.178 C 
ATOM     11  N   UNL     1     -38.531  24.677   3.026  0.00  0.00    -0.331 N 
ATOM     12  H   UNL     1     -39.159  23.938   3.199  0.00  0.00    +0.145 HD
ATOM     13  H   UNL     1     -38.796  25.421   2.440  0.00  0.00    +0.145 HD
ENDROOT
BRANCH   2  15
ATOM     14  O4* UNL     1     -33.116  28.285   4.828  0.00  0.00    -0.335 OA
ATOM     15  C1* UNL     1     -33.082  27.109   4.002  0.00  0.00    +0.198 C 
ATOM     16  C3* UNL     1     -31.158  28.351   3.470  0.00  0.00    +0.144 C 
ATOM     17  C2* UNL     1     -32.164  27.423   2.829  0.00  0.00    +0.083 C 
ATOM     18  C4* UNL     1     -31.996  29.128   4.482  0.00  0.00    +0.173 C 
BRANCH  16  19
ATOM     19  O3* UNL     1     -30.190  27.561   4.158  0.00  0.00    -0.382 OA
ATOM     20  H3* UNL     1     -29.306  27.765   3.817  0.00  0.00    +0.210 HD
ENDBRANCH  16  19
BRANCH  18  21
ATOM     21  C5* UNL     1     -32.543  30.429   3.915  0.00  0.00    +0.169 C 
BRANCH  21  22
ATOM     22  O5* UNL     1     -33.954  30.423   4.041  0.00  0.00    -0.379 OA
ATOM     23  H5* UNL     1     -34.272  29.507   4.062  0.00  0.00    +0.211 HD
ENDBRANCH  21  22
ENDBRANCH  18  21
ENDBRANCH   2  15
TORSDOF 4
ENDMDL
MODEL 6
REMARK VINA RESULT:      -5.7      4.100      5.550
REMARK  Name = 55914
REMARK  4 active torsions:
REMARK  status: ('A' for Active; 'I' for Inactive)
REMARK    1  A    between atoms: N_2  and  C1*_12
REMARK    2  A    between atoms: C3*_13  and  O3*_16
REMARK    3  A    between atoms: C4*_15  and  C5*_18
REMARK    4  A    between atoms: C5*_18  and  O5*_19
REMARK                            x       y       z     vdW  Elec       q    Type
REMARK                         _______ _______ _______ _____ _____    ______ ____
ROOT
ATOM      1 BR   UNL     1     -33.809  28.599   0.326  0.00  0.00    +0.062 Br
ATOM      2  N   UNL     1     -34.423  25.952   4.762  0.00  0.00    -0.238 N 
ATOM      3  N   UNL     1     -32.971  27.119   5.991  0.00  0.00    -0.240 NA
ATOM      4  N   UNL     1     -34.207  27.125   2.645  0.00  0.00    -0.317 NA
ATOM      5  N   UNL     1     -32.592  28.949   2.799  0.00  0.00    -0.318 NA
ATOM      6  C   UNL     1     -33.908  26.913   3.936  0.00  0.00    +0.221 C 
ATOM      7  C   UNL     1     -33.827  26.118   5.986  0.00  0.00    +0.224 C 
ATOM      8  C   UNL     1     -33.011  27.625   4.717  0.00  0.00    +0.167 C 
ATOM      9  C   UNL     1     -32.340  28.677   4.103  0.00  0.00    +0.211 C 
ATOM     10  C   UNL     1     -33.496  28.167   2.162  0.00  0.00    +0.178 C 
ATOM     11  N   UNL     1     -31.412  29.452   4.819  0.00  0.00    -0.331 N 
ATOM     12  H   UNL     1     -30.943  30.195   4.374  0.00  0.00    +0.145 HD
ATOM     13  H   UNL     1     -31.231  29.253   5.766  0.00  0.00    +0.145 HD
ENDROOT
BRANCH   2  15
ATOM     14  O4* UNL     1     -35.826  24.231   5.601  0.00  0.00    -0.335 OA
ATOM     15  C1* UNL     1     -35.416  24.940   4.419  0.00  0.00    +0.198 C 
ATOM     16  C3* UNL     1     -35.817  22.719   3.759  0.00  0.00    +0.144 C 
ATOM     17  C2* UNL     1     -34.924  23.893   3.428  0.00  0.00    +0.083 C 
ATOM     18  C4* UNL     1     -36.005  22.838   5.268  0.00  0.00    +0.173 C 
BRANCH  16  19
ATOM     19  O3* UNL     1     -37.070  22.907   3.105  0.00  0.00    -0.382 OA
ATOM     20  H3* UNL     1     -37.790  22.724   3.728  0.00  0.00    +0.210 HD
ENDBRANCH  16  19
BRANCH  18  21
ATOM     21  C5* UNL     1     -34.982  22.030   6.053  0.00  0.00    +0.169 C 
BRANCH  21  22
ATOM     22  O5* UNL     1     -35.218  20.652   5.822  0.00  0.00    -0.379 OA
ATOM     23  H5* UNL     1     -34.498  20.132   6.212  0.00  0.00    +0.211 HD
ENDBRANCH  21  22
ENDBRANCH  18  21
ENDBRANCH   2  15
TORSDOF 4
ENDMDL
MODEL 7
REMARK VINA RESULT:      -5.5      3.539      6.122
REMARK  Name = 55914
REMARK  4 active torsions:
REMARK  status: ('A' for Active; 'I' for Inactive)
REMARK    1  A    between atoms: N_2  and  C1*_12
REMARK    2  A    between atoms: C3*_13  and  O3*_16
REMARK    3  A    between atoms: C4*_15  and  C5*_18
REMARK    4  A    between atoms: C5*_18  and  O5*_19
REMARK                            x       y       z     vdW  Elec       q    Type
REMARK                         _______ _______ _______ _____ _____    ______ ____
ROOT
ATOM      1 BR   UNL     1     -37.002  24.249  -0.236  0.00  0.00    +0.062 Br
ATOM      2  N   UNL     1     -35.261  22.931   4.485  0.00  0.00    -0.238 N 
ATOM      3  N   UNL     1     -35.419  20.718   4.238  0.00  0.00    -0.240 NA
ATOM      4  N   UNL     1     -36.062  23.648   2.306  0.00  0.00    -0.317 NA
ATOM      5  N   UNL     1     -36.647  21.739   0.902  0.00  0.00    -0.318 NA
ATOM      6  C   UNL     1     -35.743  22.721   3.223  0.00  0.00    +0.221 C 
ATOM      7  C   UNL     1     -35.082  21.696   5.054  0.00  0.00    +0.224 C 
ATOM      8  C   UNL     1     -35.834  21.345   3.090  0.00  0.00    +0.167 C 
ATOM      9  C   UNL     1     -36.306  20.860   1.875  0.00  0.00    +0.211 C 
ATOM     10  C   UNL     1     -36.506  23.058   1.174  0.00  0.00    +0.178 C 
ATOM     11  N   UNL     1     -36.430  19.477   1.652  0.00  0.00    -0.331 N 
ATOM     12  H   UNL     1     -36.766  19.146   0.788  0.00  0.00    +0.145 HD
ATOM     13  H   UNL     1     -36.182  18.841   2.360  0.00  0.00    +0.145 HD
ENDROOT
BRANCH   2  15
ATOM     14  O4* UNL     1     -36.096  25.108   4.923  0.00  0.00    -0.335 OA
ATOM     15  C1* UNL     1     -34.985  24.217   5.117  0.00  0.00    +0.198 C 
ATOM     16  C3* UNL     1     -34.077  26.373   4.879  0.00  0.00    +0.144 C 
ATOM     17  C2* UNL     1     -33.753  24.929   4.574  0.00  0.00    +0.083 C 
ATOM     18  C4* UNL     1     -35.589  26.439   4.688  0.00  0.00    +0.173 C 
BRANCH  16  19
ATOM     19  O3* UNL     1     -33.757  26.628   6.246  0.00  0.00    -0.382 OA
ATOM     20  H3* UNL     1     -34.379  27.277   6.608  0.00  0.00    +0.210 HD
ENDBRANCH  16  19
BRANCH  18  21
ATOM     21  C5* UNL     1     -35.985  26.853   3.279  0.00  0.00    +0.169 C 
BRANCH  21  22
ATOM     22  O5* UNL     1     -37.295  26.379   3.017  0.00  0.00    -0.379 OA
ATOM     23  H5* UNL     1     -37.936  27.084   3.198  0.00  0.00    +0.211 HD
ENDBRANCH  21  22
ENDBRANCH  18  21
ENDBRANCH   2  15
TORSDOF 4
ENDMDL
MODEL 8
REMARK VINA RESULT:      -5.5      2.879      4.371
REMARK  Name = 55914
REMARK  4 active torsions:
REMARK  status: ('A' for Active; 'I' for Inactive)
REMARK    1  A    between atoms: N_2  and  C1*_12
REMARK    2  A    between atoms: C3*_13  and  O3*_16
REMARK    3  A    between atoms: C4*_15  and  C5*_18
REMARK    4  A    between atoms: C5*_18  and  O5*_19
REMARK                            x       y       z     vdW  Elec       q    Type
REMARK                         _______ _______ _______ _____ _____    ______ ____
ROOT
ATOM      1 BR   UNL     1     -35.489  19.767   1.142  0.00  0.00    +0.062 Br
ATOM      2  N   UNL     1     -37.009  24.277   3.245  0.00  0.00    -0.238 N 
ATOM      3  N   UNL     1     -36.213  23.913   5.299  0.00  0.00    -0.240 NA
ATOM      4  N   UNL     1     -36.341  22.201   2.171  0.00  0.00    -0.317 NA
ATOM      5  N   UNL     1     -35.169  20.732   3.729  0.00  0.00    -0.318 NA
ATOM      6  C   UNL     1     -36.426  23.039   3.216  0.00  0.00    +0.221 C 
ATOM      7  C   UNL     1     -36.854  24.760   4.519  0.00  0.00    +0.224 C 
ATOM      8  C   UNL     1     -35.940  22.834   4.497  0.00  0.00    +0.167 C 
ATOM      9  C   UNL     1     -35.291  21.627   4.738  0.00  0.00    +0.211 C 
ATOM     10  C   UNL     1     -35.693  21.070   2.526  0.00  0.00    +0.178 C 
ATOM     11  N   UNL     1     -34.767  21.335   6.009  0.00  0.00    -0.331 N 
ATOM     12  H   UNL     1     -34.309  20.477   6.167  0.00  0.00    +0.145 HD
ATOM     13  H   UNL     1     -34.857  21.987   6.741  0.00  0.00    +0.145 HD
ENDROOT
BRANCH   2  15
ATOM     14  O4* UNL     1     -38.425  26.080   2.634  0.00  0.00    -0.335 OA
ATOM     15  C1* UNL     1     -37.670  24.961   2.139  0.00  0.00    +0.198 C 
ATOM     16  C3* UNL     1     -39.587  25.122   0.786  0.00  0.00    +0.144 C 
ATOM     17  C2* UNL     1     -38.642  24.089   1.355  0.00  0.00    +0.083 C 
ATOM     18  C4* UNL     1     -39.659  26.173   1.889  0.00  0.00    +0.173 C 
BRANCH  16  19
ATOM     19  O3* UNL     1     -38.987  25.689  -0.377  0.00  0.00    -0.382 OA
ATOM     20  H3* UNL     1     -39.679  25.922  -1.015  0.00  0.00    +0.210 HD
ENDBRANCH  16  19
BRANCH  18  21
ATOM     21  C5* UNL     1     -40.811  25.935   2.854  0.00  0.00    +0.169 C 
BRANCH  21  22
ATOM     22  O5* UNL     1     -40.767  26.925   3.867  0.00  0.00    -0.379 OA
ATOM     23  H5* UNL     1     -40.323  26.565   4.650  0.00  0.00    +0.211 HD
ENDBRANCH  21  22
ENDBRANCH  18  21
ENDBRANCH   2  15
TORSDOF 4
ENDMDL
MODEL 9
REMARK VINA RESULT:      -5.4      2.449      3.446
REMARK  Name = 55914
REMARK  4 active torsions:
REMARK  status: ('A' for Active; 'I' for Inactive)
REMARK    1  A    between atoms: N_2  and  C1*_12
REMARK    2  A    between atoms: C3*_13  and  O3*_16
REMARK    3  A    between atoms: C4*_15  and  C5*_18
REMARK    4  A    between atoms: C5*_18  and  O5*_19
REMARK                            x       y       z     vdW  Elec       q    Type
REMARK                         _______ _______ _______ _____ _____    ______ ____
ROOT
ATOM      1 BR   UNL     1     -37.456  26.139   0.523  0.00  0.00    +0.062 Br
ATOM      2  N   UNL     1     -35.971  22.237   3.626  0.00  0.00    -0.238 N 
ATOM      3  N   UNL     1     -35.788  23.425   5.507  0.00  0.00    -0.240 NA
ATOM      4  N   UNL     1     -36.669  23.991   2.096  0.00  0.00    -0.317 NA
ATOM      5  N   UNL     1     -36.847  26.144   3.234  0.00  0.00    -0.318 NA
ATOM      6  C   UNL     1     -36.303  23.523   3.300  0.00  0.00    +0.221 C 
ATOM      7  C   UNL     1     -35.669  22.230   4.964  0.00  0.00    +0.224 C 
ATOM      8  C   UNL     1     -36.184  24.242   4.479  0.00  0.00    +0.167 C 
ATOM      9  C   UNL     1     -36.472  25.601   4.418  0.00  0.00    +0.211 C 
ATOM     10  C   UNL     1     -36.921  25.317   2.164  0.00  0.00    +0.178 C 
ATOM     11  N   UNL     1     -36.377  26.407   5.566  0.00  0.00    -0.331 N 
ATOM     12  H   UNL     1     -36.583  27.369   5.510  0.00  0.00    +0.145 HD
ATOM     13  H   UNL     1     -36.104  26.011   6.424  0.00  0.00    +0.145 HD
ENDROOT
BRANCH   2  15
ATOM     14  O4* UNL     1     -34.837  21.203   1.816  0.00  0.00    -0.335 OA
ATOM     15  C1* UNL     1     -35.939  21.085   2.731  0.00  0.00    +0.198 C 
ATOM     16  C3* UNL     1     -36.659  20.151   0.697  0.00  0.00    +0.144 C 
ATOM     17  C2* UNL     1     -37.194  20.915   1.886  0.00  0.00    +0.083 C 
ATOM     18  C4* UNL     1     -35.254  20.718   0.522  0.00  0.00    +0.173 C 
BRANCH  16  19
ATOM     19  O3* UNL     1     -36.576  18.771   1.048  0.00  0.00    -0.382 OA
ATOM     20  H3* UNL     1     -36.006  18.669   1.825  0.00  0.00    +0.210 HD
ENDBRANCH  16  19
BRANCH  18  21
ATOM     21  C5* UNL     1     -35.209  21.884  -0.455  0.00  0.00    +0.169 C 
BRANCH  21  22
ATOM     22  O5* UNL     1     -34.608  22.994   0.189  0.00  0.00    -0.379 OA
ATOM     23  H5* UNL     1     -35.029  23.812  -0.117  0.00  0.00    +0.211 HD
ENDBRANCH  21  22
ENDBRANCH  18  21
ENDBRANCH   2  15
TORSDOF 4
ENDMDL
