MODEL 1
REMARK VINA RESULT:      -5.0      0.000      0.000
REMARK  Name = 20848
REMARK  8 active torsions:
REMARK  status: ('A' for Active; 'I' for Inactive)
REMARK    1  A    between atoms: C_1  and  N_17
REMARK    2  A    between atoms: C_2  and  N_13
REMARK    3  A    between atoms: C_3  and  N_16
REMARK    4  A    between atoms: C_4  and  S_7
REMARK    5  A    between atoms: N_17  and  C_18
REMARK    6  A    between atoms: N_17  and  C_21
REMARK    7  A    between atoms: C_18  and  C_19
REMARK    8  A    between atoms: C_21  and  C_22
REMARK                            x       y       z     vdW  Elec       q    Type
REMARK                         _______ _______ _______ _____ _____    ______ ____
ROOT
ATOM      1  C   UNL     1     -35.685  25.636   2.963  0.00  0.00    +0.093 C 
ATOM      2  C   UNL     1     -36.831  26.036   2.262  0.00  0.00    +0.159 C 
ATOM      3  C   UNL     1     -34.635  26.551   3.130  0.00  0.00    +0.159 C 
ATOM      4  C   UNL     1     -35.876  28.228   1.911  0.00  0.00    +0.109 C 
ATOM      5  C   UNL     1     -36.926  27.325   1.739  0.00  0.00    +0.044 C 
ATOM      6  C   UNL     1     -34.730  27.840   2.606  0.00  0.00    +0.044 C 
ENDROOT
BRANCH   4   7
ATOM      7  S   UNL     1     -35.995  29.842   1.255  0.00  0.00    +0.011 S 
ATOM      8  O   UNL     1     -34.960  29.992   0.241  0.00  0.00    -0.169 OA
ATOM      9  O   UNL     1     -37.386  30.110   0.912  0.00  0.00    -0.169 OA
ATOM     10  C   UNL     1     -35.583  30.905   2.619  0.00  0.00    +0.182 C 
ENDBRANCH   4   7
BRANCH   2  13
ATOM     11  O   UNL     1     -38.780  25.032   2.976  0.00  0.00    -0.126 OA
ATOM     12  O   UNL     1     -37.981  24.482   1.006  0.00  0.00    -0.126 OA
ATOM     13  N   UNL     1     -37.919  25.138   2.072  0.00  0.00    +0.059 N 
ENDBRANCH   2  13
BRANCH   3  16
ATOM     14  O   UNL     1     -32.507  25.666   3.200  0.00  0.00    -0.126 OA
ATOM     15  O   UNL     1     -33.400  26.390   5.071  0.00  0.00    -0.126 OA
ATOM     16  N   UNL     1     -33.455  26.184   3.836  0.00  0.00    +0.059 N 
ENDBRANCH   3  16
BRANCH   1  17
ATOM     17  N   UNL     1     -35.590  24.340   3.491  0.00  0.00    -0.305 N 
BRANCH  17  18
ATOM     18  C   UNL     1     -35.042  23.256   2.674  0.00  0.00    +0.091 C 
BRANCH  18  19
ATOM     19  C   UNL     1     -36.035  22.103   2.568  0.00  0.00    +0.021 C 
ATOM     20  C   UNL     1     -35.369  20.739   2.670  0.00  0.00    +0.002 C 
ENDBRANCH  18  19
ENDBRANCH  17  18
BRANCH  17  21
ATOM     21  C   UNL     1     -36.036  24.037   4.830  0.00  0.00    +0.091 C 
BRANCH  21  22
ATOM     22  C   UNL     1     -34.931  23.346   5.623  0.00  0.00    +0.021 C 
ATOM     23  C   UNL     1     -35.408  22.077   6.317  0.00  0.00    +0.002 C 
ENDBRANCH  21  22
ENDBRANCH  17  21
ENDBRANCH   1  17
TORSDOF 8
ENDMDL
MODEL 2
REMARK VINA RESULT:      -5.0      3.595      6.243
REMARK  Name = 20848
REMARK  8 active torsions:
REMARK  status: ('A' for Active; 'I' for Inactive)
REMARK    1  A    between atoms: C_1  and  N_17
REMARK    2  A    between atoms: C_2  and  N_13
REMARK    3  A    between atoms: C_3  and  N_16
REMARK    4  A    between atoms: C_4  and  S_7
REMARK    5  A    between atoms: N_17  and  C_18
REMARK    6  A    between atoms: N_17  and  C_21
REMARK    7  A    between atoms: C_18  and  C_19
REMARK    8  A    between atoms: C_21  and  C_22
REMARK                            x       y       z     vdW  Elec       q    Type
REMARK                         _______ _______ _______ _____ _____    ______ ____
ROOT
ATOM      1  C   UNL     1     -37.122  23.030   2.506  0.00  0.00    +0.093 C 
ATOM      2  C   UNL     1     -36.732  21.807   1.942  0.00  0.00    +0.159 C 
ATOM      3  C   UNL     1     -38.395  23.540   2.212  0.00  0.00    +0.159 C 
ATOM      4  C   UNL     1     -38.862  21.625   0.816  0.00  0.00    +0.109 C 
ATOM      5  C   UNL     1     -37.598  21.108   1.101  0.00  0.00    +0.044 C 
ATOM      6  C   UNL     1     -39.260  22.841   1.371  0.00  0.00    +0.044 C 
ENDROOT
BRANCH   4   7
ATOM      7  S   UNL     1     -39.946  20.749  -0.237  0.00  0.00    +0.011 S 
ATOM      8  O   UNL     1     -39.349  19.449  -0.513  0.00  0.00    -0.169 OA
ATOM      9  O   UNL     1     -41.295  20.823   0.308  0.00  0.00    -0.169 OA
ATOM     10  C   UNL     1     -39.946  21.684  -1.749  0.00  0.00    +0.182 C 
ENDBRANCH   4   7
BRANCH   2  13
ATOM     11  O   UNL     1     -35.324  20.470   3.184  0.00  0.00    -0.126 OA
ATOM     12  O   UNL     1     -34.485  21.572   1.481  0.00  0.00    -0.126 OA
ATOM     13  N   UNL     1     -35.450  21.255   2.217  0.00  0.00    +0.059 N 
ENDBRANCH   2  13
BRANCH   3  16
ATOM     14  O   UNL     1     -39.477  24.766   3.837  0.00  0.00    -0.126 OA
ATOM     15  O   UNL     1     -38.546  25.841   2.164  0.00  0.00    -0.126 OA
ATOM     16  N   UNL     1     -38.828  24.778   2.765  0.00  0.00    +0.059 N 
ENDBRANCH   3  16
BRANCH   1  17
ATOM     17  N   UNL     1     -36.252  23.733   3.353  0.00  0.00    -0.305 N 
BRANCH  17  18
ATOM     18  C   UNL     1     -35.240  24.625   2.783  0.00  0.00    +0.091 C 
BRANCH  18  19
ATOM     19  C   UNL     1     -35.362  26.026   3.374  0.00  0.00    +0.021 C 
ATOM     20  C   UNL     1     -34.078  26.500   4.040  0.00  0.00    +0.002 C 
ENDBRANCH  18  19
ENDBRANCH  17  18
BRANCH  17  21
ATOM     21  C   UNL     1     -36.317  23.589   4.787  0.00  0.00    +0.091 C 
BRANCH  21  22
ATOM     22  C   UNL     1     -34.994  23.067   5.338  0.00  0.00    +0.021 C 
ATOM     23  C   UNL     1     -35.179  21.973   6.381  0.00  0.00    +0.002 C 
ENDBRANCH  21  22
ENDBRANCH  17  21
ENDBRANCH   1  17
TORSDOF 8
ENDMDL
MODEL 3
REMARK VINA RESULT:      -5.0      3.594      5.884
REMARK  Name = 20848
REMARK  8 active torsions:
REMARK  status: ('A' for Active; 'I' for Inactive)
REMARK    1  A    between atoms: C_1  and  N_17
REMARK    2  A    between atoms: C_2  and  N_13
REMARK    3  A    between atoms: C_3  and  N_16
REMARK    4  A    between atoms: C_4  and  S_7
REMARK    5  A    between atoms: N_17  and  C_18
REMARK    6  A    between atoms: N_17  and  C_21
REMARK    7  A    between atoms: C_18  and  C_19
REMARK    8  A    between atoms: C_21  and  C_22
REMARK                            x       y       z     vdW  Elec       q    Type
REMARK                         _______ _______ _______ _____ _____    ______ ____
ROOT
ATOM      1  C   UNL     1     -37.081  23.006   2.505  0.00  0.00    +0.093 C 
ATOM      2  C   UNL     1     -38.348  23.527   2.212  0.00  0.00    +0.159 C 
ATOM      3  C   UNL     1     -36.704  21.778   1.942  0.00  0.00    +0.159 C 
ATOM      4  C   UNL     1     -38.836  21.615   0.818  0.00  0.00    +0.109 C 
ATOM      5  C   UNL     1     -39.222  22.835   1.373  0.00  0.00    +0.044 C 
ATOM      6  C   UNL     1     -37.577  21.086   1.103  0.00  0.00    +0.044 C 
ENDROOT
BRANCH   4   7
ATOM      7  S   UNL     1     -39.929  20.749  -0.233  0.00  0.00    +0.011 S 
ATOM      8  O   UNL     1     -39.343  19.446  -0.515  0.00  0.00    -0.169 OA
ATOM      9  O   UNL     1     -41.276  20.831   0.316  0.00  0.00    -0.169 OA
ATOM     10  C   UNL     1     -39.927  21.687  -1.743  0.00  0.00    +0.182 C 
ENDBRANCH   4   7
BRANCH   2  13
ATOM     11  O   UNL     1     -39.419  24.768   3.833  0.00  0.00    -0.126 OA
ATOM     12  O   UNL     1     -38.476  25.829   2.159  0.00  0.00    -0.126 OA
ATOM     13  N   UNL     1     -38.769  24.770   2.762  0.00  0.00    +0.059 N 
ENDBRANCH   2  13
BRANCH   3  16
ATOM     14  O   UNL     1     -34.465  21.503   1.461  0.00  0.00    -0.126 OA
ATOM     15  O   UNL     1     -35.297  20.450   3.199  0.00  0.00    -0.126 OA
ATOM     16  N   UNL     1     -35.425  21.215   2.214  0.00  0.00    +0.059 N 
ENDBRANCH   3  16
BRANCH   1  17
ATOM     17  N   UNL     1     -36.202  23.702   3.348  0.00  0.00    -0.305 N 
BRANCH  17  18
ATOM     18  C   UNL     1     -35.162  24.557   2.773  0.00  0.00    +0.091 C 
BRANCH  18  19
ATOM     19  C   UNL     1     -35.266  25.977   3.321  0.00  0.00    +0.021 C 
ATOM     20  C   UNL     1     -33.990  26.440   4.009  0.00  0.00    +0.002 C 
ENDBRANCH  18  19
ENDBRANCH  17  18
BRANCH  17  21
ATOM     21  C   UNL     1     -36.287  23.588   4.784  0.00  0.00    +0.091 C 
BRANCH  21  22
ATOM     22  C   UNL     1     -34.980  23.053   5.361  0.00  0.00    +0.021 C 
ATOM     23  C   UNL     1     -35.195  21.961   6.400  0.00  0.00    +0.002 C 
ENDBRANCH  21  22
ENDBRANCH  17  21
ENDBRANCH   1  17
TORSDOF 8
ENDMDL
MODEL 4
REMARK VINA RESULT:      -5.0      0.038      3.499
REMARK  Name = 20848
REMARK  8 active torsions:
REMARK  status: ('A' for Active; 'I' for Inactive)
REMARK    1  A    between atoms: C_1  and  N_17
REMARK    2  A    between atoms: C_2  and  N_13
REMARK    3  A    between atoms: C_3  and  N_16
REMARK    4  A    between atoms: C_4  and  S_7
REMARK    5  A    between atoms: N_17  and  C_18
REMARK    6  A    between atoms: N_17  and  C_21
REMARK    7  A    between atoms: C_18  and  C_19
REMARK    8  A    between atoms: C_21  and  C_22
REMARK                            x       y       z     vdW  Elec       q    Type
REMARK                         _______ _______ _______ _____ _____    ______ ____
ROOT
ATOM      1  C   UNL     1     -35.681  25.621   2.948  0.00  0.00    +0.093 C 
ATOM      2  C   UNL     1     -34.637  26.537   3.137  0.00  0.00    +0.159 C 
ATOM      3  C   UNL     1     -36.820  26.026   2.236  0.00  0.00    +0.159 C 
ATOM      4  C   UNL     1     -35.866  28.222   1.916  0.00  0.00    +0.109 C 
ATOM      5  C   UNL     1     -34.728  27.831   2.623  0.00  0.00    +0.044 C 
ATOM      6  C   UNL     1     -36.912  27.319   1.723  0.00  0.00    +0.044 C 
ENDROOT
BRANCH   4   7
ATOM      7  S   UNL     1     -35.980  29.841   1.273  0.00  0.00    +0.011 S 
ATOM      8  O   UNL     1     -34.943  29.997   0.263  0.00  0.00    -0.169 OA
ATOM      9  O   UNL     1     -37.369  30.116   0.930  0.00  0.00    -0.169 OA
ATOM     10  C   UNL     1     -35.568  30.893   2.647  0.00  0.00    +0.182 C 
ENDBRANCH   4   7
BRANCH   2  13
ATOM     11  O   UNL     1     -33.419  26.373   5.087  0.00  0.00    -0.126 OA
ATOM     12  O   UNL     1     -32.512  25.644   3.225  0.00  0.00    -0.126 OA
ATOM     13  N   UNL     1     -33.464  26.166   3.853  0.00  0.00    +0.059 N 
ENDBRANCH   2  13
BRANCH   3  16
ATOM     14  O   UNL     1     -37.940  24.471   0.954  0.00  0.00    -0.126 OA
ATOM     15  O   UNL     1     -38.780  25.014   2.909  0.00  0.00    -0.126 OA
ATOM     16  N   UNL     1     -37.902  25.125   2.023  0.00  0.00    +0.059 N 
ENDBRANCH   3  16
BRANCH   1  17
ATOM     17  N   UNL     1     -35.588  24.320   3.463  0.00  0.00    -0.305 N 
BRANCH  17  18
ATOM     18  C   UNL     1     -36.049  24.038   4.824  0.00  0.00    +0.091 C 
BRANCH  18  19
ATOM     19  C   UNL     1     -34.956  23.346   5.632  0.00  0.00    +0.021 C 
ATOM     20  C   UNL     1     -35.430  22.056   6.284  0.00  0.00    +0.002 C 
ENDBRANCH  18  19
ENDBRANCH  17  18
BRANCH  17  21
ATOM     21  C   UNL     1     -35.032  23.240   2.685  0.00  0.00    +0.091 C 
BRANCH  21  22
ATOM     22  C   UNL     1     -36.028  22.091   2.567  0.00  0.00    +0.021 C 
ATOM     23  C   UNL     1     -35.359  20.724   2.588  0.00  0.00    +0.002 C 
ENDBRANCH  21  22
ENDBRANCH  17  21
ENDBRANCH   1  17
TORSDOF 8
ENDMDL
MODEL 5
REMARK VINA RESULT:      -5.0      3.592      5.977
REMARK  Name = 20848
REMARK  8 active torsions:
REMARK  status: ('A' for Active; 'I' for Inactive)
REMARK    1  A    between atoms: C_1  and  N_17
REMARK    2  A    between atoms: C_2  and  N_13
REMARK    3  A    between atoms: C_3  and  N_16
REMARK    4  A    between atoms: C_4  and  S_7
REMARK    5  A    between atoms: N_17  and  C_18
REMARK    6  A    between atoms: N_17  and  C_21
REMARK    7  A    between atoms: C_18  and  C_19
REMARK    8  A    between atoms: C_21  and  C_22
REMARK                            x       y       z     vdW  Elec       q    Type
REMARK                         _______ _______ _______ _____ _____    ______ ____
ROOT
ATOM      1  C   UNL     1     -37.078  23.019   2.497  0.00  0.00    +0.093 C 
ATOM      2  C   UNL     1     -38.348  23.541   2.215  0.00  0.00    +0.159 C 
ATOM      3  C   UNL     1     -36.706  21.792   1.931  0.00  0.00    +0.159 C 
ATOM      4  C   UNL     1     -38.847  21.629   0.824  0.00  0.00    +0.109 C 
ATOM      5  C   UNL     1     -39.228  22.849   1.382  0.00  0.00    +0.044 C 
ATOM      6  C   UNL     1     -37.585  21.100   1.098  0.00  0.00    +0.044 C 
ENDROOT
BRANCH   4   7
ATOM      7  S   UNL     1     -39.948  20.764  -0.219  0.00  0.00    +0.011 S 
ATOM      8  O   UNL     1     -39.360  19.465  -0.513  0.00  0.00    -0.169 OA
ATOM      9  O   UNL     1     -41.289  20.838   0.346  0.00  0.00    -0.169 OA
ATOM     10  C   UNL     1     -39.967  21.709  -1.725  0.00  0.00    +0.182 C 
ENDBRANCH   4   7
BRANCH   2  13
ATOM     11  O   UNL     1     -39.397  24.781   3.851  0.00  0.00    -0.126 OA
ATOM     12  O   UNL     1     -38.485  25.842   2.159  0.00  0.00    -0.126 OA
ATOM     13  N   UNL     1     -38.765  24.784   2.769  0.00  0.00    +0.059 N 
ENDBRANCH   2  13
BRANCH   3  16
ATOM     14  O   UNL     1     -35.295  20.446   3.163  0.00  0.00    -0.126 OA
ATOM     15  O   UNL     1     -34.467  21.532   1.444  0.00  0.00    -0.126 OA
ATOM     16  N   UNL     1     -35.424  21.229   2.192  0.00  0.00    +0.059 N 
ENDBRANCH   3  16
BRANCH   1  17
ATOM     17  N   UNL     1     -36.193  23.716   3.334  0.00  0.00    -0.305 N 
BRANCH  17  18
ATOM     18  C   UNL     1     -36.303  23.582   4.787  0.00  0.00    +0.091 C 
BRANCH  18  19
ATOM     19  C   UNL     1     -34.995  23.072   5.384  0.00  0.00    +0.021 C 
ATOM     20  C   UNL     1     -35.201  21.945   6.384  0.00  0.00    +0.002 C 
ENDBRANCH  18  19
ENDBRANCH  17  18
BRANCH  17  21
ATOM     21  C   UNL     1     -35.172  24.581   2.795  0.00  0.00    +0.091 C 
BRANCH  21  22
ATOM     22  C   UNL     1     -35.314  25.995   3.352  0.00  0.00    +0.021 C 
ATOM     23  C   UNL     1     -34.064  26.472   4.078  0.00  0.00    +0.002 C 
ENDBRANCH  21  22
ENDBRANCH  17  21
ENDBRANCH   1  17
TORSDOF 8
ENDMDL
MODEL 6
REMARK VINA RESULT:      -5.0      0.024      1.711
REMARK  Name = 20848
REMARK  8 active torsions:
REMARK  status: ('A' for Active; 'I' for Inactive)
REMARK    1  A    between atoms: C_1  and  N_17
REMARK    2  A    between atoms: C_2  and  N_13
REMARK    3  A    between atoms: C_3  and  N_16
REMARK    4  A    between atoms: C_4  and  S_7
REMARK    5  A    between atoms: N_17  and  C_18
REMARK    6  A    between atoms: N_17  and  C_21
REMARK    7  A    between atoms: C_18  and  C_19
REMARK    8  A    between atoms: C_21  and  C_22
REMARK                            x       y       z     vdW  Elec       q    Type
REMARK                         _______ _______ _______ _____ _____    ______ ____
ROOT
ATOM      1  C   UNL     1     -35.681  25.625   2.946  0.00  0.00    +0.093 C 
ATOM      2  C   UNL     1     -36.828  26.026   2.248  0.00  0.00    +0.159 C 
ATOM      3  C   UNL     1     -34.633  26.542   3.115  0.00  0.00    +0.159 C 
ATOM      4  C   UNL     1     -35.878  28.220   1.903  0.00  0.00    +0.109 C 
ATOM      5  C   UNL     1     -36.927  27.317   1.729  0.00  0.00    +0.044 C 
ATOM      6  C   UNL     1     -34.731  27.833   2.596  0.00  0.00    +0.044 C 
ENDROOT
BRANCH   4   7
ATOM      7  S   UNL     1     -36.002  29.837   1.254  0.00  0.00    +0.011 S 
ATOM      8  O   UNL     1     -34.978  29.988   0.230  0.00  0.00    -0.169 OA
ATOM      9  O   UNL     1     -37.395  30.109   0.928  0.00  0.00    -0.169 OA
ATOM     10  C   UNL     1     -35.572  30.895   2.617  0.00  0.00    +0.182 C 
ENDBRANCH   4   7
BRANCH   2  13
ATOM     11  O   UNL     1     -38.784  25.028   2.951  0.00  0.00    -0.126 OA
ATOM     12  O   UNL     1     -37.967  24.460   0.994  0.00  0.00    -0.126 OA
ATOM     13  N   UNL     1     -37.914  25.126   2.055  0.00  0.00    +0.059 N 
ENDBRANCH   2  13
BRANCH   3  16
ATOM     14  O   UNL     1     -32.503  25.661   3.179  0.00  0.00    -0.126 OA
ATOM     15  O   UNL     1     -33.395  26.376   5.054  0.00  0.00    -0.126 OA
ATOM     16  N   UNL     1     -33.451  26.174   3.819  0.00  0.00    +0.059 N 
ENDBRANCH   3  16
BRANCH   1  17
ATOM     17  N   UNL     1     -35.583  24.327   3.468  0.00  0.00    -0.305 N 
BRANCH  17  18
ATOM     18  C   UNL     1     -36.028  24.055   4.836  0.00  0.00    +0.091 C 
BRANCH  18  19
ATOM     19  C   UNL     1     -34.930  23.357   5.633  0.00  0.00    +0.021 C 
ATOM     20  C   UNL     1     -35.412  22.087   6.318  0.00  0.00    +0.002 C 
ENDBRANCH  18  19
ENDBRANCH  17  18
BRANCH  17  21
ATOM     21  C   UNL     1     -35.036  23.241   2.691  0.00  0.00    +0.091 C 
BRANCH  21  22
ATOM     22  C   UNL     1     -36.034  22.091   2.595  0.00  0.00    +0.021 C 
ATOM     23  C   UNL     1     -35.363  20.724   2.610  0.00  0.00    +0.002 C 
ENDBRANCH  21  22
ENDBRANCH  17  21
ENDBRANCH   1  17
TORSDOF 8
ENDMDL
MODEL 7
REMARK VINA RESULT:      -5.0      3.596      6.307
REMARK  Name = 20848
REMARK  8 active torsions:
REMARK  status: ('A' for Active; 'I' for Inactive)
REMARK    1  A    between atoms: C_1  and  N_17
REMARK    2  A    between atoms: C_2  and  N_13
REMARK    3  A    between atoms: C_3  and  N_16
REMARK    4  A    between atoms: C_4  and  S_7
REMARK    5  A    between atoms: N_17  and  C_18
REMARK    6  A    between atoms: N_17  and  C_21
REMARK    7  A    between atoms: C_18  and  C_19
REMARK    8  A    between atoms: C_21  and  C_22
REMARK                            x       y       z     vdW  Elec       q    Type
REMARK                         _______ _______ _______ _____ _____    ______ ____
ROOT
ATOM      1  C   UNL     1     -37.067  23.009   2.479  0.00  0.00    +0.093 C 
ATOM      2  C   UNL     1     -36.691  21.782   1.915  0.00  0.00    +0.159 C 
ATOM      3  C   UNL     1     -38.338  23.528   2.192  0.00  0.00    +0.159 C 
ATOM      4  C   UNL     1     -38.830  21.613   0.805  0.00  0.00    +0.109 C 
ATOM      5  C   UNL     1     -37.568  21.087   1.082  0.00  0.00    +0.044 C 
ATOM      6  C   UNL     1     -39.215  22.833   1.360  0.00  0.00    +0.044 C 
ENDROOT
BRANCH   4   7
ATOM      7  S   UNL     1     -39.928  20.742  -0.238  0.00  0.00    +0.011 S 
ATOM      8  O   UNL     1     -39.343  19.438  -0.517  0.00  0.00    -0.169 OA
ATOM      9  O   UNL     1     -41.273  20.826   0.318  0.00  0.00    -0.169 OA
ATOM     10  C   UNL     1     -39.934  21.674  -1.751  0.00  0.00    +0.182 C 
ENDBRANCH   4   7
BRANCH   2  13
ATOM     11  O   UNL     1     -34.453  21.516   1.429  0.00  0.00    -0.126 OA
ATOM     12  O   UNL     1     -35.280  20.449   3.160  0.00  0.00    -0.126 OA
ATOM     13  N   UNL     1     -35.410  21.221   2.181  0.00  0.00    +0.059 N 
ENDBRANCH   2  13
BRANCH   3  16
ATOM     14  O   UNL     1     -38.474  25.829   2.138  0.00  0.00    -0.126 OA
ATOM     15  O   UNL     1     -39.400  24.767   3.822  0.00  0.00    -0.126 OA
ATOM     16  N   UNL     1     -38.759  24.770   2.746  0.00  0.00    +0.059 N 
ENDBRANCH   3  16
BRANCH   1  17
ATOM     17  N   UNL     1     -36.186  23.707   3.317  0.00  0.00    -0.305 N 
BRANCH  17  18
ATOM     18  C   UNL     1     -36.292  23.564   4.770  0.00  0.00    +0.091 C 
BRANCH  18  19
ATOM     19  C   UNL     1     -34.987  23.035   5.358  0.00  0.00    +0.021 C 
ATOM     20  C   UNL     1     -35.205  21.940   6.392  0.00  0.00    +0.002 C 
ENDBRANCH  18  19
ENDBRANCH  17  18
BRANCH  17  21
ATOM     21  C   UNL     1     -35.173  24.584   2.782  0.00  0.00    +0.091 C 
BRANCH  21  22
ATOM     22  C   UNL     1     -35.290  25.978   3.391  0.00  0.00    +0.021 C 
ATOM     23  C   UNL     1     -33.996  26.450   4.040  0.00  0.00    +0.002 C 
ENDBRANCH  21  22
ENDBRANCH  17  21
ENDBRANCH   1  17
TORSDOF 8
ENDMDL
MODEL 8
REMARK VINA RESULT:      -4.7      3.322      5.289
REMARK  Name = 20848
REMARK  8 active torsions:
REMARK  status: ('A' for Active; 'I' for Inactive)
REMARK    1  A    between atoms: C_1  and  N_17
REMARK    2  A    between atoms: C_2  and  N_13
REMARK    3  A    between atoms: C_3  and  N_16
REMARK    4  A    between atoms: C_4  and  S_7
REMARK    5  A    between atoms: N_17  and  C_18
REMARK    6  A    between atoms: N_17  and  C_21
REMARK    7  A    between atoms: C_18  and  C_19
REMARK    8  A    between atoms: C_21  and  C_22
REMARK                            x       y       z     vdW  Elec       q    Type
REMARK                         _______ _______ _______ _____ _____    ______ ____
ROOT
ATOM      1  C   UNL     1     -36.498  24.477   2.703  0.00  0.00    +0.093 C 
ATOM      2  C   UNL     1     -37.278  25.097   1.717  0.00  0.00    +0.159 C 
ATOM      3  C   UNL     1     -36.851  23.193   3.143  0.00  0.00    +0.159 C 
ATOM      4  C   UNL     1     -38.732  23.169   1.626  0.00  0.00    +0.109 C 
ATOM      5  C   UNL     1     -38.390  24.446   1.182  0.00  0.00    +0.044 C 
ATOM      6  C   UNL     1     -37.963  22.543   2.607  0.00  0.00    +0.044 C 
ENDROOT
BRANCH   4   7
ATOM      7  S   UNL     1     -40.123  22.354   0.956  0.00  0.00    +0.011 S 
ATOM      8  O   UNL     1     -40.360  21.151   1.741  0.00  0.00    -0.169 OA
ATOM      9  O   UNL     1     -41.197  23.323   0.778  0.00  0.00    -0.169 OA
ATOM     10  C   UNL     1     -39.602  21.854  -0.669  0.00  0.00    +0.182 C 
ENDBRANCH   4   7
BRANCH   2  13
ATOM     11  O   UNL     1     -37.417  27.395   1.845  0.00  0.00    -0.126 OA
ATOM     12  O   UNL     1     -36.212  26.509   0.238  0.00  0.00    -0.126 OA
ATOM     13  N   UNL     1     -36.953  26.399   1.243  0.00  0.00    +0.059 N 
ENDBRANCH   2  13
BRANCH   3  16
ATOM     14  O   UNL     1     -35.191  21.726   3.782  0.00  0.00    -0.126 OA
ATOM     15  O   UNL     1     -36.323  22.770   5.347  0.00  0.00    -0.126 OA
ATOM     16  N   UNL     1     -36.084  22.530   4.141  0.00  0.00    +0.059 N 
ENDBRANCH   3  16
BRANCH   1  17
ATOM     17  N   UNL     1     -35.379  25.131   3.240  0.00  0.00    -0.305 N 
BRANCH  17  18
ATOM     18  C   UNL     1     -34.054  24.912   2.657  0.00  0.00    +0.091 C 
BRANCH  18  19
ATOM     19  C   UNL     1     -33.444  26.231   2.192  0.00  0.00    +0.021 C 
ATOM     20  C   UNL     1     -31.934  26.279   2.370  0.00  0.00    +0.002 C 
ENDBRANCH  18  19
ENDBRANCH  17  18
BRANCH  17  21
ATOM     21  C   UNL     1     -35.496  26.015   4.375  0.00  0.00    +0.091 C 
BRANCH  21  22
ATOM     22  C   UNL     1     -34.635  25.522   5.534  0.00  0.00    +0.021 C 
ATOM     23  C   UNL     1     -33.604  26.548   5.982  0.00  0.00    +0.002 C 
ENDBRANCH  21  22
ENDBRANCH  17  21
ENDBRANCH   1  17
TORSDOF 8
ENDMDL
MODEL 9
REMARK VINA RESULT:      -4.7      3.324      5.512
REMARK  Name = 20848
REMARK  8 active torsions:
REMARK  status: ('A' for Active; 'I' for Inactive)
REMARK    1  A    between atoms: C_1  and  N_17
REMARK    2  A    between atoms: C_2  and  N_13
REMARK    3  A    between atoms: C_3  and  N_16
REMARK    4  A    between atoms: C_4  and  S_7
REMARK    5  A    between atoms: N_17  and  C_18
REMARK    6  A    between atoms: N_17  and  C_21
REMARK    7  A    between atoms: C_18  and  C_19
REMARK    8  A    between atoms: C_21  and  C_22
REMARK                            x       y       z     vdW  Elec       q    Type
REMARK                         _______ _______ _______ _____ _____    ______ ____
ROOT
ATOM      1  C   UNL     1     -36.515  24.410   2.700  0.00  0.00    +0.093 C 
ATOM      2  C   UNL     1     -36.842  23.114   3.121  0.00  0.00    +0.159 C 
ATOM      3  C   UNL     1     -37.305  25.027   1.719  0.00  0.00    +0.159 C 
ATOM      4  C   UNL     1     -38.718  23.072   1.598  0.00  0.00    +0.109 C 
ATOM      5  C   UNL     1     -37.939  22.448   2.573  0.00  0.00    +0.044 C 
ATOM      6  C   UNL     1     -38.401  24.361   1.171  0.00  0.00    +0.044 C 
ENDROOT
BRANCH   4   7
ATOM      7  S   UNL     1     -40.091  22.238   0.913  0.00  0.00    +0.011 S 
ATOM      8  O   UNL     1     -40.401  21.104   1.772  0.00  0.00    -0.169 OA
ATOM      9  O   UNL     1     -41.128  23.213   0.601  0.00  0.00    -0.169 OA
ATOM     10  C   UNL     1     -39.494  21.602  -0.637  0.00  0.00    +0.182 C 
ENDBRANCH   4   7
BRANCH   2  13
ATOM     11  O   UNL     1     -36.300  22.692   5.322  0.00  0.00    -0.126 OA
ATOM     12  O   UNL     1     -35.173  21.653   3.750  0.00  0.00    -0.126 OA
ATOM     13  N   UNL     1     -36.067  22.454   4.114  0.00  0.00    +0.059 N 
ENDBRANCH   2  13
BRANCH   3  16
ATOM     14  O   UNL     1     -36.238  26.483   0.285  0.00  0.00    -0.126 OA
ATOM     15  O   UNL     1     -37.520  27.319   1.859  0.00  0.00    -0.126 OA
ATOM     16  N   UNL     1     -37.006  26.343   1.265  0.00  0.00    +0.059 N 
ENDBRANCH   3  16
BRANCH   1  17
ATOM     17  N   UNL     1     -35.413  25.081   3.252  0.00  0.00    -0.305 N 
BRANCH  17  18
ATOM     18  C   UNL     1     -34.079  24.888   2.680  0.00  0.00    +0.091 C 
BRANCH  18  19
ATOM     19  C   UNL     1     -33.515  26.211   2.169  0.00  0.00    +0.021 C 
ATOM     20  C   UNL     1     -32.020  26.350   2.417  0.00  0.00    +0.002 C 
ENDBRANCH  18  19
ENDBRANCH  17  18
BRANCH  17  21
ATOM     21  C   UNL     1     -35.557  25.955   4.390  0.00  0.00    +0.091 C 
BRANCH  21  22
ATOM     22  C   UNL     1     -34.672  25.491   5.543  0.00  0.00    +0.021 C 
ATOM     23  C   UNL     1     -33.645  26.535   5.958  0.00  0.00    +0.002 C 
ENDBRANCH  21  22
ENDBRANCH  17  21
ENDBRANCH   1  17
TORSDOF 8
ENDMDL
