MODEL 1
REMARK VINA RESULT:      -5.9      0.000      0.000
REMARK  Name = 199028
REMARK  8 active torsions:
REMARK  status: ('A' for Active; 'I' for Inactive)
REMARK    1  A    between atoms: C_1  and  C_13
REMARK    2  A    between atoms: C_4  and  C_10
REMARK    3  A    between atoms: C_6  and  O_7
REMARK    4  A    between atoms: C_10  and  O_11
REMARK    5  A    between atoms: C_13  and  CA_14
REMARK    6  A    between atoms: CA_14  and  N_15
REMARK    7  A    between atoms: CA_14  and  C_20
REMARK    8  A    between atoms: C_20  and  O_21
REMARK                            x       y       z     vdW  Elec       q    Type
REMARK                         _______ _______ _______ _____ _____    ______ ____
ROOT
ATOM      1  C   UNL     1     -36.005  24.296   4.224  0.00  0.00    -0.023 C 
ATOM      2  C   UNL     1     -35.959  23.258   3.308  0.00  0.00    +0.005 C 
ATOM      3  C   UNL     1     -35.720  24.089   5.563  0.00  0.00    -0.001 C 
ATOM      4  C   UNL     1     -35.617  21.978   3.743  0.00  0.00    +0.109 C 
ATOM      5  C   UNL     1     -35.377  22.809   5.999  0.00  0.00    +0.037 C 
ATOM      6  C   UNL     1     -35.326  21.753   5.088  0.00  0.00    +0.140 C 
ENDROOT
BRANCH   6   7
ATOM      7  O   UNL     1     -34.989  20.509   5.533  0.00  0.00    -0.505 OA
ATOM      8  H   UNL     1     -34.223  20.085   5.201  0.00  0.00    +0.292 HD
ENDBRANCH   6   7
BRANCH   4  10
ATOM      9  O   UNL     1     -34.725  20.763   1.885  0.00  0.00    -0.245 OA
ATOM     10  C   UNL     1     -35.569  20.889   2.776  0.00  0.00    +0.341 C 
BRANCH  10  11
ATOM     11  O   UNL     1     -36.577  19.992   2.954  0.00  0.00    -0.477 OA
ATOM     12  H   UNL     1     -37.151  20.073   3.691  0.00  0.00    +0.295 HD
ENDBRANCH  10  11
ENDBRANCH   4  10
BRANCH   1  13
ATOM     13  C   UNL     1     -36.375  25.683   3.753  0.00  0.00    +0.015 C 
BRANCH  13  14
ATOM     14  CA  UNL     1     -37.440  25.674   2.646  0.00  0.00    +0.040 C 
BRANCH  14  15
ATOM     15  N   UNL     1     -37.454  26.965   1.963  0.00  0.00    +0.389 N 
ATOM     16  H1  UNL     1     -36.557  27.430   2.095  0.00  0.00    -0.088 HD
ATOM     17  H2  UNL     1     -38.199  27.546   2.349  0.00  0.00    -0.088 HD
ATOM     18  H3  UNL     1     -37.619  26.821   0.966  0.00  0.00    -0.088 HD
ENDBRANCH  14  15
BRANCH  14  20
ATOM     19  OXT UNL     1     -39.331  24.367   3.450  0.00  0.00    -0.253 OA
ATOM     20  C   UNL     1     -38.838  25.459   3.200  0.00  0.00    +0.293 C 
BRANCH  20  21
ATOM     21  O   UNL     1     -39.489  26.628   3.429  0.00  0.00    -0.482 OA
ATOM     22  H   UNL     1     -39.561  26.961   4.302  0.00  0.00    +0.295 HD
ENDBRANCH  20  21
ENDBRANCH  14  20
ENDBRANCH  13  14
ENDBRANCH   1  13
TORSDOF 8
ENDMDL
MODEL 2
REMARK VINA RESULT:      -5.8      2.724      3.167
REMARK  Name = 199028
REMARK  8 active torsions:
REMARK  status: ('A' for Active; 'I' for Inactive)
REMARK    1  A    between atoms: C_1  and  C_13
REMARK    2  A    between atoms: C_4  and  C_10
REMARK    3  A    between atoms: C_6  and  O_7
REMARK    4  A    between atoms: C_10  and  O_11
REMARK    5  A    between atoms: C_13  and  CA_14
REMARK    6  A    between atoms: CA_14  and  N_15
REMARK    7  A    between atoms: CA_14  and  C_20
REMARK    8  A    between atoms: C_20  and  O_21
REMARK                            x       y       z     vdW  Elec       q    Type
REMARK                         _______ _______ _______ _____ _____    ______ ____
ROOT
ATOM      1  C   UNL     1     -35.006  24.236   3.666  0.00  0.00    -0.023 C 
ATOM      2  C   UNL     1     -35.133  23.077   2.917  0.00  0.00    +0.005 C 
ATOM      3  C   UNL     1     -35.026  24.206   5.050  0.00  0.00    -0.001 C 
ATOM      4  C   UNL     1     -35.283  21.855   3.572  0.00  0.00    +0.109 C 
ATOM      5  C   UNL     1     -35.175  22.984   5.705  0.00  0.00    +0.037 C 
ATOM      6  C   UNL     1     -35.304  21.808   4.965  0.00  0.00    +0.140 C 
ENDROOT
BRANCH   6   7
ATOM      7  O   UNL     1     -35.449  20.622   5.623  0.00  0.00    -0.505 OA
ATOM      8  H   UNL     1     -36.144  20.040   5.391  0.00  0.00    +0.292 HD
ENDBRANCH   6   7
BRANCH   4  10
ATOM      9  O   UNL     1     -34.538  20.159   2.058  0.00  0.00    -0.245 OA
ATOM     10  C   UNL     1     -35.415  20.638   2.781  0.00  0.00    +0.341 C 
BRANCH  10  11
ATOM     11  O   UNL     1     -36.639  20.060   2.920  0.00  0.00    -0.477 OA
ATOM     12  H   UNL     1     -37.414  20.552   2.730  0.00  0.00    +0.295 HD
ENDBRANCH  10  11
ENDBRANCH   4  10
BRANCH   1  13
ATOM     13  C   UNL     1     -34.843  25.561   2.957  0.00  0.00    +0.015 C 
BRANCH  13  14
ATOM     14  CA  UNL     1     -34.649  26.736   3.927  0.00  0.00    +0.040 C 
BRANCH  14  15
ATOM     15  N   UNL     1     -35.464  27.870   3.496  0.00  0.00    +0.389 N 
ATOM     16  H1  UNL     1     -35.470  28.581   4.227  0.00  0.00    -0.088 HD
ATOM     17  H2  UNL     1     -36.417  27.556   3.319  0.00  0.00    -0.088 HD
ATOM     18  H3  UNL     1     -35.072  28.265   2.641  0.00  0.00    -0.088 HD
ENDBRANCH  14  15
BRANCH  14  20
ATOM     19  OXT UNL     1     -32.245  26.572   3.573  0.00  0.00    -0.253 OA
ATOM     20  C   UNL     1     -33.210  27.221   3.958  0.00  0.00    +0.293 C 
BRANCH  20  21
ATOM     21  O   UNL     1     -33.101  28.488   4.433  0.00  0.00    -0.482 OA
ATOM     22  H   UNL     1     -33.822  28.884   4.881  0.00  0.00    +0.295 HD
ENDBRANCH  20  21
ENDBRANCH  14  20
ENDBRANCH  13  14
ENDBRANCH   1  13
TORSDOF 8
ENDMDL
MODEL 3
REMARK VINA RESULT:      -5.6      2.993      3.862
REMARK  Name = 199028
REMARK  8 active torsions:
REMARK  status: ('A' for Active; 'I' for Inactive)
REMARK    1  A    between atoms: C_1  and  C_13
REMARK    2  A    between atoms: C_4  and  C_10
REMARK    3  A    between atoms: C_6  and  O_7
REMARK    4  A    between atoms: C_10  and  O_11
REMARK    5  A    between atoms: C_13  and  CA_14
REMARK    6  A    between atoms: CA_14  and  N_15
REMARK    7  A    between atoms: CA_14  and  C_20
REMARK    8  A    between atoms: C_20  and  O_21
REMARK                            x       y       z     vdW  Elec       q    Type
REMARK                         _______ _______ _______ _____ _____    ______ ____
ROOT
ATOM      1  C   UNL     1     -35.935  24.854   4.898  0.00  0.00    -0.023 C 
ATOM      2  C   UNL     1     -35.411  23.574   4.983  0.00  0.00    +0.005 C 
ATOM      3  C   UNL     1     -36.995  25.146   4.057  0.00  0.00    -0.001 C 
ATOM      4  C   UNL     1     -35.964  22.558   4.204  0.00  0.00    +0.109 C 
ATOM      5  C   UNL     1     -37.549  24.130   3.278  0.00  0.00    +0.037 C 
ATOM      6  C   UNL     1     -37.033  22.835   3.351  0.00  0.00    +0.140 C 
ENDROOT
BRANCH   6   7
ATOM      7  O   UNL     1     -37.587  21.856   2.583  0.00  0.00    -0.505 OA
ATOM      8  H   UNL     1     -37.242  21.678   1.731  0.00  0.00    +0.292 HD
ENDBRANCH   6   7
BRANCH   4  10
ATOM      9  O   UNL     1     -35.142  20.486   3.336  0.00  0.00    -0.245 OA
ATOM     10  C   UNL     1     -35.411  21.213   4.296  0.00  0.00    +0.341 C 
BRANCH  10  11
ATOM     11  O   UNL     1     -35.211  20.821   5.583  0.00  0.00    -0.477 OA
ATOM     12  H   UNL     1     -35.660  20.070   5.919  0.00  0.00    +0.295 HD
ENDBRANCH  10  11
ENDBRANCH   4  10
BRANCH   1  13
ATOM     13  C   UNL     1     -35.336  25.955   5.743  0.00  0.00    +0.015 C 
BRANCH  13  14
ATOM     14  CA  UNL     1     -33.817  26.093   5.556  0.00  0.00    +0.040 C 
BRANCH  14  15
ATOM     15  N   UNL     1     -33.264  26.933   6.616  0.00  0.00    +0.389 N 
ATOM     16  H1  UNL     1     -34.001  27.179   7.275  0.00  0.00    -0.088 HD
ATOM     17  H2  UNL     1     -32.875  27.782   6.207  0.00  0.00    -0.088 HD
ATOM     18  H3  UNL     1     -32.527  26.423   7.104  0.00  0.00    -0.088 HD
ENDBRANCH  14  15
BRANCH  14  20
ATOM     19  OXT UNL     1     -32.623  26.348   3.449  0.00  0.00    -0.253 OA
ATOM     20  C   UNL     1     -33.462  26.761   4.240  0.00  0.00    +0.293 C 
BRANCH  20  21
ATOM     21  O   UNL     1     -34.209  27.870   4.004  0.00  0.00    -0.482 OA
ATOM     22  H   UNL     1     -35.119  27.787   3.796  0.00  0.00    +0.295 HD
ENDBRANCH  20  21
ENDBRANCH  14  20
ENDBRANCH  13  14
ENDBRANCH   1  13
TORSDOF 8
ENDMDL
MODEL 4
REMARK VINA RESULT:      -5.6      2.366      5.262
REMARK  Name = 199028
REMARK  8 active torsions:
REMARK  status: ('A' for Active; 'I' for Inactive)
REMARK    1  A    between atoms: C_1  and  C_13
REMARK    2  A    between atoms: C_4  and  C_10
REMARK    3  A    between atoms: C_6  and  O_7
REMARK    4  A    between atoms: C_10  and  O_11
REMARK    5  A    between atoms: C_13  and  CA_14
REMARK    6  A    between atoms: CA_14  and  N_15
REMARK    7  A    between atoms: CA_14  and  C_20
REMARK    8  A    between atoms: C_20  and  O_21
REMARK                            x       y       z     vdW  Elec       q    Type
REMARK                         _______ _______ _______ _____ _____    ______ ____
ROOT
ATOM      1  C   UNL     1     -35.713  22.752   4.202  0.00  0.00    -0.023 C 
ATOM      2  C   UNL     1     -36.808  23.401   3.656  0.00  0.00    +0.005 C 
ATOM      3  C   UNL     1     -34.880  23.382   5.112  0.00  0.00    -0.001 C 
ATOM      4  C   UNL     1     -37.079  24.716   4.032  0.00  0.00    +0.109 C 
ATOM      5  C   UNL     1     -35.152  24.697   5.489  0.00  0.00    +0.037 C 
ATOM      6  C   UNL     1     -36.252  25.365   4.948  0.00  0.00    +0.140 C 
ENDROOT
BRANCH   6   7
ATOM      7  O   UNL     1     -36.501  26.650   5.329  0.00  0.00    -0.505 OA
ATOM      8  H   UNL     1     -35.872  27.117   5.842  0.00  0.00    +0.292 HD
ENDBRANCH   6   7
BRANCH   4  10
ATOM      9  O   UNL     1     -38.184  26.377   2.711  0.00  0.00    -0.245 OA
ATOM     10  C   UNL     1     -38.233  25.395   3.456  0.00  0.00    +0.341 C 
BRANCH  10  11
ATOM     11  O   UNL     1     -39.410  24.824   3.829  0.00  0.00    -0.477 OA
ATOM     12  H   UNL     1     -39.538  24.553   4.717  0.00  0.00    +0.295 HD
ENDBRANCH  10  11
ENDBRANCH   4  10
BRANCH   1  13
ATOM     13  C   UNL     1     -35.419  21.327   3.795  0.00  0.00    +0.015 C 
BRANCH  13  14
ATOM     14  CA  UNL     1     -35.860  21.013   2.358  0.00  0.00    +0.040 C 
BRANCH  14  15
ATOM     15  N   UNL     1     -36.830  19.920   2.366  0.00  0.00    +0.389 N 
ATOM     16  H1  UNL     1     -36.341  19.030   2.281  0.00  0.00    -0.088 HD
ATOM     17  H2  UNL     1     -37.474  20.032   1.583  0.00  0.00    -0.088 HD
ATOM     18  H3  UNL     1     -37.354  19.938   3.242  0.00  0.00    -0.088 HD
ENDBRANCH  14  15
BRANCH  14  20
ATOM     19  OXT UNL     1     -33.989  21.301   0.825  0.00  0.00    -0.253 OA
ATOM     20  C   UNL     1     -34.699  20.558   1.490  0.00  0.00    +0.293 C 
BRANCH  20  21
ATOM     21  O   UNL     1     -34.502  19.216   1.553  0.00  0.00    -0.482 OA
ATOM     22  H   UNL     1     -33.634  18.874   1.645  0.00  0.00    +0.295 HD
ENDBRANCH  20  21
ENDBRANCH  14  20
ENDBRANCH  13  14
ENDBRANCH   1  13
TORSDOF 8
ENDMDL
MODEL 5
REMARK VINA RESULT:      -5.6      3.042      4.039
REMARK  Name = 199028
REMARK  8 active torsions:
REMARK  status: ('A' for Active; 'I' for Inactive)
REMARK    1  A    between atoms: C_1  and  C_13
REMARK    2  A    between atoms: C_4  and  C_10
REMARK    3  A    between atoms: C_6  and  O_7
REMARK    4  A    between atoms: C_10  and  O_11
REMARK    5  A    between atoms: C_13  and  CA_14
REMARK    6  A    between atoms: CA_14  and  N_15
REMARK    7  A    between atoms: CA_14  and  C_20
REMARK    8  A    between atoms: C_20  and  O_21
REMARK                            x       y       z     vdW  Elec       q    Type
REMARK                         _______ _______ _______ _____ _____    ______ ____
ROOT
ATOM      1  C   UNL     1     -34.718  24.293   2.946  0.00  0.00    -0.023 C 
ATOM      2  C   UNL     1     -34.884  23.715   4.194  0.00  0.00    +0.005 C 
ATOM      3  C   UNL     1     -35.010  23.598   1.784  0.00  0.00    -0.001 C 
ATOM      4  C   UNL     1     -35.356  22.406   4.282  0.00  0.00    +0.109 C 
ATOM      5  C   UNL     1     -35.483  22.289   1.872  0.00  0.00    +0.037 C 
ATOM      6  C   UNL     1     -35.656  21.693   3.122  0.00  0.00    +0.140 C 
ENDROOT
BRANCH   6   7
ATOM      7  O   UNL     1     -36.119  20.412   3.188  0.00  0.00    -0.505 OA
ATOM      8  H   UNL     1     -36.799  20.191   3.793  0.00  0.00    +0.292 HD
ENDBRANCH   6   7
BRANCH   4  10
ATOM      9  O   UNL     1     -36.072  22.343   6.564  0.00  0.00    -0.245 OA
ATOM     10  C   UNL     1     -35.530  21.802   5.597  0.00  0.00    +0.341 C 
BRANCH  10  11
ATOM     11  O   UNL     1     -35.023  20.541   5.659  0.00  0.00    -0.477 OA
ATOM     12  H   UNL     1     -34.868  20.139   6.492  0.00  0.00    +0.295 HD
ENDBRANCH  10  11
ENDBRANCH   4  10
BRANCH   1  13
ATOM     13  C   UNL     1     -34.207  25.712   2.850  0.00  0.00    +0.015 C 
BRANCH  13  14
ATOM     14  CA  UNL     1     -34.510  26.542   4.107  0.00  0.00    +0.040 C 
BRANCH  14  15
ATOM     15  N   UNL     1     -35.232  27.757   3.735  0.00  0.00    +0.389 N 
ATOM     16  H1  UNL     1     -35.753  28.103   4.539  0.00  0.00    -0.088 HD
ATOM     17  H2  UNL     1     -35.879  27.548   2.975  0.00  0.00    -0.088 HD
ATOM     18  H3  UNL     1     -34.567  28.467   3.429  0.00  0.00    -0.088 HD
ENDBRANCH  14  15
BRANCH  14  20
ATOM     19  OXT UNL     1     -32.205  27.316   4.253  0.00  0.00    -0.253 OA
ATOM     20  C   UNL     1     -33.242  26.989   4.815  0.00  0.00    +0.293 C 
BRANCH  20  21
ATOM     21  O   UNL     1     -33.389  27.023   6.165  0.00  0.00    -0.482 OA
ATOM     22  H   UNL     1     -32.939  27.673   6.668  0.00  0.00    +0.295 HD
ENDBRANCH  20  21
ENDBRANCH  14  20
ENDBRANCH  13  14
ENDBRANCH   1  13
TORSDOF 8
ENDMDL
MODEL 6
REMARK VINA RESULT:      -5.6      3.606      4.535
REMARK  Name = 199028
REMARK  8 active torsions:
REMARK  status: ('A' for Active; 'I' for Inactive)
REMARK    1  A    between atoms: C_1  and  C_13
REMARK    2  A    between atoms: C_4  and  C_10
REMARK    3  A    between atoms: C_6  and  O_7
REMARK    4  A    between atoms: C_10  and  O_11
REMARK    5  A    between atoms: C_13  and  CA_14
REMARK    6  A    between atoms: CA_14  and  N_15
REMARK    7  A    between atoms: CA_14  and  C_20
REMARK    8  A    between atoms: C_20  and  O_21
REMARK                            x       y       z     vdW  Elec       q    Type
REMARK                         _______ _______ _______ _____ _____    ______ ____
ROOT
ATOM      1  C   UNL     1     -34.926  25.033   5.318  0.00  0.00    -0.023 C 
ATOM      2  C   UNL     1     -34.702  23.667   5.283  0.00  0.00    +0.005 C 
ATOM      3  C   UNL     1     -36.031  25.599   4.706  0.00  0.00    -0.001 C 
ATOM      4  C   UNL     1     -35.609  22.843   4.618  0.00  0.00    +0.109 C 
ATOM      5  C   UNL     1     -36.940  24.776   4.041  0.00  0.00    +0.037 C 
ATOM      6  C   UNL     1     -36.728  23.397   3.997  0.00  0.00    +0.140 C 
ENDROOT
BRANCH   6   7
ATOM      7  O   UNL     1     -37.627  22.609   3.342  0.00  0.00    -0.505 OA
ATOM      8  H   UNL     1     -38.154  22.969   2.657  0.00  0.00    +0.292 HD
ENDBRANCH   6   7
BRANCH   4  10
ATOM      9  O   UNL     1     -35.258  20.726   3.561  0.00  0.00    -0.245 OA
ATOM     10  C   UNL     1     -35.371  21.406   4.584  0.00  0.00    +0.341 C 
BRANCH  10  11
ATOM     11  O   UNL     1     -35.279  20.866   5.829  0.00  0.00    -0.477 OA
ATOM     12  H   UNL     1     -35.580  21.351   6.573  0.00  0.00    +0.295 HD
ENDBRANCH  10  11
ENDBRANCH   4  10
BRANCH   1  13
ATOM     13  C   UNL     1     -33.943  25.926   6.040  0.00  0.00    +0.015 C 
BRANCH  13  14
ATOM     14  CA  UNL     1     -33.465  27.106   5.180  0.00  0.00    +0.040 C 
BRANCH  14  15
ATOM     15  N   UNL     1     -32.841  26.604   3.957  0.00  0.00    +0.389 N 
ATOM     16  H1  UNL     1     -33.201  25.674   3.748  0.00  0.00    -0.088 HD
ATOM     17  H2  UNL     1     -31.831  26.557   4.086  0.00  0.00    -0.088 HD
ATOM     18  H3  UNL     1     -33.056  27.234   3.183  0.00  0.00    -0.088 HD
ENDBRANCH  14  15
BRANCH  14  20
ATOM     19  OXT UNL     1     -32.302  29.158   5.785  0.00  0.00    -0.253 OA
ATOM     20  C   UNL     1     -32.417  27.944   5.891  0.00  0.00    +0.293 C 
BRANCH  20  21
ATOM     21  O   UNL     1     -31.623  27.200   6.703  0.00  0.00    -0.482 OA
ATOM     22  H   UNL     1     -31.814  26.293   6.843  0.00  0.00    +0.295 HD
ENDBRANCH  20  21
ENDBRANCH  14  20
ENDBRANCH  13  14
ENDBRANCH   1  13
TORSDOF 8
ENDMDL
MODEL 7
REMARK VINA RESULT:      -5.3      2.855      3.764
REMARK  Name = 199028
REMARK  8 active torsions:
REMARK  status: ('A' for Active; 'I' for Inactive)
REMARK    1  A    between atoms: C_1  and  C_13
REMARK    2  A    between atoms: C_4  and  C_10
REMARK    3  A    between atoms: C_6  and  O_7
REMARK    4  A    between atoms: C_10  and  O_11
REMARK    5  A    between atoms: C_13  and  CA_14
REMARK    6  A    between atoms: CA_14  and  N_15
REMARK    7  A    between atoms: CA_14  and  C_20
REMARK    8  A    between atoms: C_20  and  O_21
REMARK                            x       y       z     vdW  Elec       q    Type
REMARK                         _______ _______ _______ _____ _____    ______ ____
ROOT
ATOM      1  C   UNL     1     -36.267  23.606   3.098  0.00  0.00    -0.023 C 
ATOM      2  C   UNL     1     -37.484  23.208   2.569  0.00  0.00    +0.005 C 
ATOM      3  C   UNL     1     -35.269  22.689   3.380  0.00  0.00    -0.001 C 
ATOM      4  C   UNL     1     -37.708  21.855   2.314  0.00  0.00    +0.109 C 
ATOM      5  C   UNL     1     -35.492  21.336   3.125  0.00  0.00    +0.037 C 
ATOM      6  C   UNL     1     -36.712  20.919   2.592  0.00  0.00    +0.140 C 
ENDROOT
BRANCH   6   7
ATOM      7  O   UNL     1     -36.912  19.592   2.350  0.00  0.00    -0.505 OA
ATOM      8  H   UNL     1     -36.577  18.952   2.946  0.00  0.00    +0.292 HD
ENDBRANCH   6   7
BRANCH   4  10
ATOM      9  O   UNL     1     -40.094  21.819   2.153  0.00  0.00    -0.245 OA
ATOM     10  C   UNL     1     -38.989  21.441   1.757  0.00  0.00    +0.341 C 
BRANCH  10  11
ATOM     11  O   UNL     1     -38.847  20.568   0.723  0.00  0.00    -0.477 OA
ATOM     12  H   UNL     1     -39.050  20.841  -0.151  0.00  0.00    +0.295 HD
ENDBRANCH  10  11
ENDBRANCH   4  10
BRANCH   1  13
ATOM     13  C   UNL     1     -36.024  25.072   3.373  0.00  0.00    +0.015 C 
BRANCH  13  14
ATOM     14  CA  UNL     1     -35.670  25.353   4.841  0.00  0.00    +0.040 C 
BRANCH  14  15
ATOM     15  N   UNL     1     -36.473  26.468   5.338  0.00  0.00    +0.389 N 
ATOM     16  H1  UNL     1     -37.442  26.345   5.047  0.00  0.00    -0.088 HD
ATOM     17  H2  UNL     1     -36.112  27.343   4.957  0.00  0.00    -0.088 HD
ATOM     18  H3  UNL     1     -36.424  26.495   6.356  0.00  0.00    -0.088 HD
ENDBRANCH  14  15
BRANCH  14  20
ATOM     19  OXT UNL     1     -33.311  25.453   4.243  0.00  0.00    -0.253 OA
ATOM     20  C   UNL     1     -34.215  25.754   5.012  0.00  0.00    +0.293 C 
BRANCH  20  21
ATOM     21  O   UNL     1     -34.017  26.528   6.110  0.00  0.00    -0.482 OA
ATOM     22  H   UNL     1     -34.482  27.336   6.204  0.00  0.00    +0.295 HD
ENDBRANCH  20  21
ENDBRANCH  14  20
ENDBRANCH  13  14
ENDBRANCH   1  13
TORSDOF 8
ENDMDL
MODEL 8
REMARK VINA RESULT:      -5.1      1.962      3.097
REMARK  Name = 199028
REMARK  8 active torsions:
REMARK  status: ('A' for Active; 'I' for Inactive)
REMARK    1  A    between atoms: C_1  and  C_13
REMARK    2  A    between atoms: C_4  and  C_10
REMARK    3  A    between atoms: C_6  and  O_7
REMARK    4  A    between atoms: C_10  and  O_11
REMARK    5  A    between atoms: C_13  and  CA_14
REMARK    6  A    between atoms: CA_14  and  N_15
REMARK    7  A    between atoms: CA_14  and  C_20
REMARK    8  A    between atoms: C_20  and  O_21
REMARK                            x       y       z     vdW  Elec       q    Type
REMARK                         _______ _______ _______ _____ _____    ______ ____
ROOT
ATOM      1  C   UNL     1     -34.648  24.470   3.225  0.00  0.00    -0.023 C 
ATOM      2  C   UNL     1     -34.821  23.809   4.430  0.00  0.00    +0.005 C 
ATOM      3  C   UNL     1     -34.967  23.868   2.019  0.00  0.00    -0.001 C 
ATOM      4  C   UNL     1     -35.328  22.510   4.429  0.00  0.00    +0.109 C 
ATOM      5  C   UNL     1     -35.475  22.569   2.018  0.00  0.00    +0.037 C 
ATOM      6  C   UNL     1     -35.655  21.890   3.224  0.00  0.00    +0.140 C 
ENDROOT
BRANCH   6   7
ATOM      7  O   UNL     1     -36.153  20.621   3.202  0.00  0.00    -0.505 OA
ATOM      8  H   UNL     1     -37.066  20.478   3.053  0.00  0.00    +0.292 HD
ENDBRANCH   6   7
BRANCH   4  10
ATOM      9  O   UNL     1     -36.029  22.304   6.707  0.00  0.00    -0.245 OA
ATOM     10  C   UNL     1     -35.510  21.819   5.699  0.00  0.00    +0.341 C 
BRANCH  10  11
ATOM     11  O   UNL     1     -35.038  20.543   5.667  0.00  0.00    -0.477 OA
ATOM     12  H   UNL     1     -34.769  20.164   4.853  0.00  0.00    +0.295 HD
ENDBRANCH  10  11
ENDBRANCH   4  10
BRANCH   1  13
ATOM     13  C   UNL     1     -34.100  25.879   3.226  0.00  0.00    +0.015 C 
BRANCH  13  14
ATOM     14  CA  UNL     1     -35.186  26.942   3.448  0.00  0.00    +0.040 C 
BRANCH  14  15
ATOM     15  N   UNL     1     -35.895  26.670   4.696  0.00  0.00    +0.389 N 
ATOM     16  H1  UNL     1     -36.869  26.449   4.492  0.00  0.00    -0.088 HD
ATOM     17  H2  UNL     1     -35.851  27.493   5.298  0.00  0.00    -0.088 HD
ATOM     18  H3  UNL     1     -35.458  25.879   5.170  0.00  0.00    -0.088 HD
ENDBRANCH  14  15
BRANCH  14  20
ATOM     19  OXT UNL     1     -35.983  27.043   1.149  0.00  0.00    -0.253 OA
ATOM     20  C   UNL     1     -36.228  26.934   2.343  0.00  0.00    +0.293 C 
BRANCH  20  21
ATOM     21  O   UNL     1     -37.487  26.754   2.821  0.00  0.00    -0.482 OA
ATOM     22  H   UNL     1     -37.771  25.899   3.080  0.00  0.00    +0.295 HD
ENDBRANCH  20  21
ENDBRANCH  14  20
ENDBRANCH  13  14
ENDBRANCH   1  13
TORSDOF 8
ENDMDL
MODEL 9
REMARK VINA RESULT:      -5.1      3.261      5.075
REMARK  Name = 199028
REMARK  8 active torsions:
REMARK  status: ('A' for Active; 'I' for Inactive)
REMARK    1  A    between atoms: C_1  and  C_13
REMARK    2  A    between atoms: C_4  and  C_10
REMARK    3  A    between atoms: C_6  and  O_7
REMARK    4  A    between atoms: C_10  and  O_11
REMARK    5  A    between atoms: C_13  and  CA_14
REMARK    6  A    between atoms: CA_14  and  N_15
REMARK    7  A    between atoms: CA_14  and  C_20
REMARK    8  A    between atoms: C_20  and  O_21
REMARK                            x       y       z     vdW  Elec       q    Type
REMARK                         _______ _______ _______ _____ _____    ______ ____
ROOT
ATOM      1  C   UNL     1     -35.176  23.758   4.493  0.00  0.00    -0.023 C 
ATOM      2  C   UNL     1     -34.399  24.234   3.449  0.00  0.00    +0.005 C 
ATOM      3  C   UNL     1     -35.421  24.527   5.619  0.00  0.00    -0.001 C 
ATOM      4  C   UNL     1     -33.853  25.514   3.533  0.00  0.00    +0.109 C 
ATOM      5  C   UNL     1     -34.876  25.808   5.702  0.00  0.00    +0.037 C 
ATOM      6  C   UNL     1     -34.091  26.302   4.659  0.00  0.00    +0.140 C 
ENDROOT
BRANCH   6   7
ATOM      7  O   UNL     1     -33.567  27.556   4.759  0.00  0.00    -0.505 OA
ATOM      8  H   UNL     1     -33.542  28.115   4.008  0.00  0.00    +0.292 HD
ENDBRANCH   6   7
BRANCH   4  10
ATOM      9  O   UNL     1     -33.453  26.281   1.303  0.00  0.00    -0.245 OA
ATOM     10  C   UNL     1     -33.038  26.011   2.433  0.00  0.00    +0.341 C 
BRANCH  10  11
ATOM     11  O   UNL     1     -31.730  26.156   2.780  0.00  0.00    -0.477 OA
ATOM     12  H   UNL     1     -31.205  26.812   2.365  0.00  0.00    +0.295 HD
ENDBRANCH  10  11
ENDBRANCH   4  10
BRANCH   1  13
ATOM     13  C   UNL     1     -35.768  22.371   4.402  0.00  0.00    +0.015 C 
BRANCH  13  14
ATOM     14  CA  UNL     1     -36.143  21.974   2.966  0.00  0.00    +0.040 C 
BRANCH  14  15
ATOM     15  N   UNL     1     -37.584  22.115   2.775  0.00  0.00    +0.389 N 
ATOM     16  H1  UNL     1     -38.011  21.192   2.714  0.00  0.00    -0.088 HD
ATOM     17  H2  UNL     1     -37.764  22.631   1.914  0.00  0.00    -0.088 HD
ATOM     18  H3  UNL     1     -37.984  22.624   3.564  0.00  0.00    -0.088 HD
ENDBRANCH  14  15
BRANCH  14  20
ATOM     19  OXT UNL     1     -34.667  20.080   2.558  0.00  0.00    -0.253 OA
ATOM     20  C   UNL     1     -35.803  20.525   2.666  0.00  0.00    +0.293 C 
BRANCH  20  21
ATOM     21  O   UNL     1     -36.910  19.745   2.563  0.00  0.00    -0.482 OA
ATOM     22  H   UNL     1     -37.740  20.069   2.852  0.00  0.00    +0.295 HD
ENDBRANCH  20  21
ENDBRANCH  14  20
ENDBRANCH  13  14
ENDBRANCH   1  13
TORSDOF 8
ENDMDL
