MODEL 1
REMARK VINA RESULT:      -5.7      0.000      0.000
REMARK  Name = 21578028
REMARK  9 active torsions:
REMARK  status: ('A' for Active; 'I' for Inactive)
REMARK    1  A    between atoms: C_4  and  O_20
REMARK    2  A    between atoms: C_6  and  O_26
REMARK    3  A    between atoms: C_7  and  O_30
REMARK    4  A    between atoms: C_9  and  O_22
REMARK    5  A    between atoms: C_10  and  C_24
REMARK    6  A    between atoms: C_16  and  O_34
REMARK    7  A    between atoms: O_26  and  C_28
REMARK    8  A    between atoms: O_30  and  C_32
REMARK    9  A    between atoms: O_34  and  C_36
REMARK                            x       y       z     vdW  Elec       q    Type
REMARK                         _______ _______ _______ _____ _____    ______ ____
ROOT
ATOM      1  O   UNL     1     -36.955  25.902   3.686  0.00  0.00    -0.288 OA
ATOM      2  C   UNL     1     -35.428  21.270   0.803  0.00  0.00    +0.062 C 
ATOM      3  C   UNL     1     -36.239  22.529   1.349  0.00  0.00    +0.027 C 
ATOM      4  C   UNL     1     -35.025  21.393  -0.713  0.00  0.00    +0.164 C 
ATOM      5  C   UNL     1     -35.417  23.829   1.001  0.00  0.00    +0.015 C 
ATOM      6  C   UNL     1     -34.263  22.705  -0.976  0.00  0.00    +0.197 C 
ATOM      7  C   UNL     1     -34.323  20.097  -1.252  0.00  0.00    +0.200 C 
ATOM      8  C   UNL     1     -35.063  23.922  -0.498  0.00  0.00    +0.047 C 
ATOM      9  C   UNL     1     -36.051  19.858   0.980  0.00  0.00    +0.114 C 
ATOM     10  C   UNL     1     -33.821  19.106  -0.170  0.00  0.00    +0.060 C 
ATOM     11  C   UNL     1     -35.988  25.165   1.591  0.00  0.00    +0.059 C 
ATOM     12  C   UNL     1     -35.007  18.741   0.763  0.00  0.00    +0.037 C 
ATOM     13  C   UNL     1     -36.335  22.522   2.871  0.00  0.00    +0.014 C 
ATOM     14  C   UNL     1     -37.687  22.539   0.818  0.00  0.00    +0.005 C 
ATOM     15  C   UNL     1     -36.512  24.964   3.020  0.00  0.00    +0.206 C 
ATOM     16  C   UNL     1     -36.460  23.614   3.636  0.00  0.00    +0.179 C 
ATOM     17  C   UNL     1     -33.289  17.807  -0.812  0.00  0.00    +0.008 C 
ATOM     18  C   UNL     1     -37.099  25.812   0.746  0.00  0.00    +0.008 C 
ATOM     19  C   UNL     1     -34.840  26.202   1.712  0.00  0.00    +0.008 C 
ENDROOT
BRANCH   4  20
ATOM     20  O   UNL     1     -36.238  21.488  -1.490  0.00  0.00    -0.380 OA
ATOM     21  H   UNL     1     -36.373  22.407  -1.770  0.00  0.00    +0.211 HD
ENDBRANCH   4  20
BRANCH   9  22
ATOM     22  O   UNL     1     -36.644  19.650   2.253  0.00  0.00    -0.384 OA
ATOM     23  H   UNL     1     -37.476  19.164   2.146  0.00  0.00    +0.210 HD
ENDBRANCH   9  22
BRANCH  10  24
ATOM     24  C   UNL     1     -32.669  19.676   0.625  0.00  0.00    -0.023 C 
ATOM     25  C   UNL     1     -31.384  19.393   0.388  0.00  0.00    -0.005 C 
ENDBRANCH  10  24
BRANCH   6  26
ATOM     26  O   UNL     1     -32.995  22.680  -0.329  0.00  0.00    -0.450 OA
BRANCH  26  28
ATOM     27  O   UNL     1     -31.632  24.519  -0.020  0.00  0.00    -0.250 OA
ATOM     28  C   UNL     1     -32.110  23.641  -0.726  0.00  0.00    +0.318 C 
ATOM     29  C   UNL     1     -31.797  23.470  -2.181  0.00  0.00    +0.121 C 
ENDBRANCH  26  28
ENDBRANCH   6  26
BRANCH   7  30
ATOM     30  O   UNL     1     -33.293  20.433  -2.182  0.00  0.00    -0.449 OA
BRANCH  30  32
ATOM     31  O   UNL     1     -34.666  20.509  -4.039  0.00  0.00    -0.250 OA
ATOM     32  C   UNL     1     -33.606  20.235  -3.493  0.00  0.00    +0.318 C 
ATOM     33  C   UNL     1     -32.435  19.617  -4.195  0.00  0.00    +0.121 C 
ENDBRANCH  30  32
ENDBRANCH   7  30
BRANCH  16  34
ATOM     34  O   UNL     1     -36.596  23.511   5.005  0.00  0.00    -0.421 OA
BRANCH  34  36
ATOM     35  O   UNL     1     -34.517  24.269   5.731  0.00  0.00    -0.250 OA
ATOM     36  C   UNL     1     -35.405  23.428   5.680  0.00  0.00    +0.322 C 
ATOM     37  C   UNL     1     -35.338  22.107   6.391  0.00  0.00    +0.122 C 
ENDBRANCH  34  36
ENDBRANCH  16  34
TORSDOF 9
ENDMDL
MODEL 2
REMARK VINA RESULT:      -5.4      2.007      2.480
REMARK  Name = 21578028
REMARK  9 active torsions:
REMARK  status: ('A' for Active; 'I' for Inactive)
REMARK    1  A    between atoms: C_4  and  O_20
REMARK    2  A    between atoms: C_6  and  O_26
REMARK    3  A    between atoms: C_7  and  O_30
REMARK    4  A    between atoms: C_9  and  O_22
REMARK    5  A    between atoms: C_10  and  C_24
REMARK    6  A    between atoms: C_16  and  O_34
REMARK    7  A    between atoms: O_26  and  C_28
REMARK    8  A    between atoms: O_30  and  C_32
REMARK    9  A    between atoms: O_34  and  C_36
REMARK                            x       y       z     vdW  Elec       q    Type
REMARK                         _______ _______ _______ _____ _____    ______ ____
ROOT
ATOM      1  O   UNL     1     -39.075  26.250   3.022  0.00  0.00    -0.288 OA
ATOM      2  C   UNL     1     -36.171  21.655   1.423  0.00  0.00    +0.062 C 
ATOM      3  C   UNL     1     -37.337  22.639   1.885  0.00  0.00    +0.027 C 
ATOM      4  C   UNL     1     -36.390  21.057  -0.016  0.00  0.00    +0.164 C 
ATOM      5  C   UNL     1     -37.541  23.722   0.757  0.00  0.00    +0.015 C 
ATOM      6  C   UNL     1     -36.620  22.175  -1.048  0.00  0.00    +0.197 C 
ATOM      7  C   UNL     1     -35.285  20.012  -0.403  0.00  0.00    +0.200 C 
ATOM      8  C   UNL     1     -37.775  23.093  -0.632  0.00  0.00    +0.047 C 
ATOM      9  C   UNL     1     -35.803  20.461   2.346  0.00  0.00    +0.114 C 
ATOM     10  C   UNL     1     -34.013  20.019   0.485  0.00  0.00    +0.060 C 
ATOM     11  C   UNL     1     -38.552  24.870   1.101  0.00  0.00    +0.059 C 
ATOM     12  C   UNL     1     -34.438  19.847   1.968  0.00  0.00    +0.037 C 
ATOM     13  C   UNL     1     -36.946  23.434   3.127  0.00  0.00    +0.014 C 
ATOM     14  C   UNL     1     -38.618  21.860   2.250  0.00  0.00    +0.005 C 
ATOM     15  C   UNL     1     -38.409  25.320   2.562  0.00  0.00    +0.206 C 
ATOM     16  C   UNL     1     -37.424  24.645   3.443  0.00  0.00    +0.179 C 
ATOM     17  C   UNL     1     -33.068  18.858   0.110  0.00  0.00    +0.008 C 
ATOM     18  C   UNL     1     -40.027  24.521   0.835  0.00  0.00    +0.008 C 
ATOM     19  C   UNL     1     -38.215  26.120   0.247  0.00  0.00    +0.008 C 
ENDROOT
BRANCH   4  20
ATOM     20  O   UNL     1     -37.612  20.289   0.002  0.00  0.00    -0.380 OA
ATOM     21  H   UNL     1     -37.401  19.342  -0.022  0.00  0.00    +0.211 HD
ENDBRANCH   4  20
BRANCH   9  22
ATOM     22  O   UNL     1     -35.757  20.797   3.724  0.00  0.00    -0.384 OA
ATOM     23  H   UNL     1     -36.288  21.594   3.880  0.00  0.00    +0.210 HD
ENDBRANCH   9  22
BRANCH  10  24
ATOM     24  C   UNL     1     -33.206  21.284   0.302  0.00  0.00    -0.023 C 
ATOM     25  C   UNL     1     -32.055  21.346  -0.375  0.00  0.00    -0.005 C 
ENDBRANCH  10  24
BRANCH   6  26
ATOM     26  O   UNL     1     -35.435  22.944  -1.220  0.00  0.00    -0.450 OA
BRANCH  26  28
ATOM     27  O   UNL     1     -35.471  23.106  -3.524  0.00  0.00    -0.250 OA
ATOM     28  C   UNL     1     -35.322  23.598  -2.414  0.00  0.00    +0.318 C 
ATOM     29  C   UNL     1     -34.984  25.038  -2.172  0.00  0.00    +0.121 C 
ENDBRANCH  26  28
ENDBRANCH   6  26
BRANCH   7  30
ATOM     30  O   UNL     1     -34.963  20.111  -1.790  0.00  0.00    -0.449 OA
BRANCH  30  32
ATOM     31  O   UNL     1     -36.640  18.741  -2.597  0.00  0.00    -0.250 OA
ATOM     32  C   UNL     1     -35.479  19.128  -2.579  0.00  0.00    +0.318 C 
ATOM     33  C   UNL     1     -34.394  18.568  -3.450  0.00  0.00    +0.121 C 
ENDBRANCH  30  32
ENDBRANCH   7  30
BRANCH  16  34
ATOM     34  O   UNL     1     -37.056  25.269   4.616  0.00  0.00    -0.421 OA
BRANCH  34  36
ATOM     35  O   UNL     1     -35.471  26.768   3.800  0.00  0.00    -0.250 OA
ATOM     36  C   UNL     1     -35.828  25.880   4.563  0.00  0.00    +0.322 C 
ATOM     37  C   UNL     1     -34.944  25.294   5.625  0.00  0.00    +0.122 C 
ENDBRANCH  34  36
ENDBRANCH  16  34
TORSDOF 9
ENDMDL
MODEL 3
REMARK VINA RESULT:      -5.3      3.095      6.425
REMARK  Name = 21578028
REMARK  9 active torsions:
REMARK  status: ('A' for Active; 'I' for Inactive)
REMARK    1  A    between atoms: C_4  and  O_20
REMARK    2  A    between atoms: C_6  and  O_26
REMARK    3  A    between atoms: C_7  and  O_30
REMARK    4  A    between atoms: C_9  and  O_22
REMARK    5  A    between atoms: C_10  and  C_24
REMARK    6  A    between atoms: C_16  and  O_34
REMARK    7  A    between atoms: O_26  and  C_28
REMARK    8  A    between atoms: O_30  and  C_32
REMARK    9  A    between atoms: O_34  and  C_36
REMARK                            x       y       z     vdW  Elec       q    Type
REMARK                         _______ _______ _______ _____ _____    ______ ____
ROOT
ATOM      1  O   UNL     1     -33.170  29.683   3.192  0.00  0.00    -0.288 OA
ATOM      2  C   UNL     1     -36.475  25.360   1.613  0.00  0.00    +0.062 C 
ATOM      3  C   UNL     1     -35.295  26.429   1.692  0.00  0.00    +0.027 C 
ATOM      4  C   UNL     1     -35.998  23.882   1.867  0.00  0.00    +0.164 C 
ATOM      5  C   UNL     1     -34.533  26.219   3.056  0.00  0.00    +0.015 C 
ATOM      6  C   UNL     1     -35.230  23.770   3.196  0.00  0.00    +0.197 C 
ATOM      7  C   UNL     1     -37.156  22.839   1.679  0.00  0.00    +0.200 C 
ATOM      8  C   UNL     1     -34.063  24.763   3.254  0.00  0.00    +0.047 C 
ATOM      9  C   UNL     1     -37.356  25.326   0.335  0.00  0.00    +0.114 C 
ATOM     10  C   UNL     1     -38.591  23.428   1.653  0.00  0.00    +0.060 C 
ATOM     11  C   UNL     1     -33.426  27.281   3.379  0.00  0.00    +0.059 C 
ATOM     12  C   UNL     1     -38.660  24.529   0.561  0.00  0.00    +0.037 C 
ATOM     13  C   UNL     1     -35.831  27.856   1.757  0.00  0.00    +0.014 C 
ATOM     14  C   UNL     1     -34.388  26.358   0.446  0.00  0.00    +0.005 C 
ATOM     15  C   UNL     1     -33.873  28.693   2.975  0.00  0.00    +0.206 C 
ATOM     16  C   UNL     1     -35.197  28.886   2.332  0.00  0.00    +0.179 C 
ATOM     17  C   UNL     1     -39.631  22.339   1.313  0.00  0.00    +0.008 C 
ATOM     18  C   UNL     1     -32.058  26.994   2.735  0.00  0.00    +0.008 C 
ATOM     19  C   UNL     1     -33.206  27.340   4.914  0.00  0.00    +0.008 C 
ENDROOT
BRANCH   4  20
ATOM     20  O   UNL     1     -35.043  23.539   0.839  0.00  0.00    -0.380 OA
ATOM     21  H   UNL     1     -34.243  24.075   0.948  0.00  0.00    +0.211 HD
ENDBRANCH   4  20
BRANCH   9  22
ATOM     22  O   UNL     1     -37.716  26.612  -0.146  0.00  0.00    -0.384 OA
ATOM     23  H   UNL     1     -38.370  26.519  -0.855  0.00  0.00    +0.210 HD
ENDBRANCH   9  22
BRANCH  10  24
ATOM     24  C   UNL     1     -38.997  23.981   3.000  0.00  0.00    -0.023 C 
ATOM     25  C   UNL     1     -39.839  25.006   3.165  0.00  0.00    -0.005 C 
ENDBRANCH  10  24
BRANCH   6  26
ATOM     26  O   UNL     1     -36.106  23.996   4.295  0.00  0.00    -0.450 OA
BRANCH  26  28
ATOM     27  O   UNL     1     -35.178  24.679   6.298  0.00  0.00    -0.250 OA
ATOM     28  C   UNL     1     -35.562  23.804   5.534  0.00  0.00    +0.318 C 
ATOM     29  C   UNL     1     -35.498  22.338   5.836  0.00  0.00    +0.121 C 
ENDBRANCH  26  28
ENDBRANCH   6  26
BRANCH   7  30
ATOM     30  O   UNL     1     -37.036  21.778   2.626  0.00  0.00    -0.449 OA
BRANCH  30  32
ATOM     31  O   UNL     1     -35.320  20.250   2.869  0.00  0.00    -0.250 OA
ATOM     32  C   UNL     1     -36.248  20.737   2.237  0.00  0.00    +0.318 C 
ATOM     33  C   UNL     1     -36.688  20.257   0.887  0.00  0.00    +0.121 C 
ENDBRANCH  30  32
ENDBRANCH   7  30
BRANCH  16  34
ATOM     34  O   UNL     1     -35.730  30.157   2.297  0.00  0.00    -0.421 OA
BRANCH  34  36
ATOM     35  O   UNL     1     -37.437  30.506   0.750  0.00  0.00    -0.250 OA
ATOM     36  C   UNL     1     -36.258  30.508   1.079  0.00  0.00    +0.322 C 
ATOM     37  C   UNL     1     -35.143  30.927   0.166  0.00  0.00    +0.122 C 
ENDBRANCH  34  36
ENDBRANCH  16  34
TORSDOF 9
ENDMDL
MODEL 4
REMARK VINA RESULT:      -5.2      2.351      6.915
REMARK  Name = 21578028
REMARK  9 active torsions:
REMARK  status: ('A' for Active; 'I' for Inactive)
REMARK    1  A    between atoms: C_4  and  O_20
REMARK    2  A    between atoms: C_6  and  O_26
REMARK    3  A    between atoms: C_7  and  O_30
REMARK    4  A    between atoms: C_9  and  O_22
REMARK    5  A    between atoms: C_10  and  C_24
REMARK    6  A    between atoms: C_16  and  O_34
REMARK    7  A    between atoms: O_26  and  C_28
REMARK    8  A    between atoms: O_30  and  C_32
REMARK    9  A    between atoms: O_34  and  C_36
REMARK                            x       y       z     vdW  Elec       q    Type
REMARK                         _______ _______ _______ _____ _____    ______ ____
ROOT
ATOM      1  O   UNL     1     -34.976  18.198  -1.194  0.00  0.00    -0.288 OA
ATOM      2  C   UNL     1     -37.761  22.250   1.620  0.00  0.00    +0.062 C 
ATOM      3  C   UNL     1     -36.935  20.936   1.259  0.00  0.00    +0.027 C 
ATOM      4  C   UNL     1     -36.962  23.265   2.518  0.00  0.00    +0.164 C 
ATOM      5  C   UNL     1     -35.547  21.379   0.657  0.00  0.00    +0.015 C 
ATOM      6  C   UNL     1     -35.605  23.615   1.881  0.00  0.00    +0.197 C 
ATOM      7  C   UNL     1     -37.833  24.499   2.946  0.00  0.00    +0.200 C 
ATOM      8  C   UNL     1     -34.786  22.354   1.579  0.00  0.00    +0.047 C 
ATOM      9  C   UNL     1     -39.159  22.086   2.277  0.00  0.00    +0.114 C 
ATOM     10  C   UNL     1     -39.147  24.703   2.148  0.00  0.00    +0.060 C 
ATOM     11  C   UNL     1     -34.651  20.217   0.103  0.00  0.00    +0.059 C 
ATOM     12  C   UNL     1     -39.978  23.394   2.211  0.00  0.00    +0.037 C 
ATOM     13  C   UNL     1     -37.607  20.134   0.148  0.00  0.00    +0.014 C 
ATOM     14  C   UNL     1     -36.823  19.991   2.473  0.00  0.00    +0.005 C 
ATOM     15  C   UNL     1     -35.493  19.168  -0.636  0.00  0.00    +0.206 C 
ATOM     16  C   UNL     1     -36.966  19.332  -0.713  0.00  0.00    +0.179 C 
ATOM     17  C   UNL     1     -39.990  25.846   2.750  0.00  0.00    +0.008 C 
ATOM     18  C   UNL     1     -33.800  19.504   1.170  0.00  0.00    +0.008 C 
ATOM     19  C   UNL     1     -33.673  20.787  -0.958  0.00  0.00    +0.008 C 
ENDROOT
BRANCH   4  20
ATOM     20  O   UNL     1     -36.646  22.606   3.763  0.00  0.00    -0.380 OA
ATOM     21  H   UNL     1     -36.153  21.790   3.582  0.00  0.00    +0.211 HD
ENDBRANCH   4  20
BRANCH   9  22
ATOM     22  O   UNL     1     -39.945  21.056   1.698  0.00  0.00    -0.384 OA
ATOM     23  H   UNL     1     -40.525  20.674   2.375  0.00  0.00    +0.210 HD
ENDBRANCH   9  22
BRANCH  10  24
ATOM     24  C   UNL     1     -38.878  25.099   0.714  0.00  0.00    -0.023 C 
ATOM     25  C   UNL     1     -39.671  24.778  -0.313  0.00  0.00    -0.005 C 
ENDBRANCH  10  24
BRANCH   6  26
ATOM     26  O   UNL     1     -35.797  24.360   0.683  0.00  0.00    -0.450 OA
BRANCH  26  28
ATOM     27  O   UNL     1     -33.903  25.677   0.813  0.00  0.00    -0.250 OA
ATOM     28  C   UNL     1     -34.684  24.975   0.184  0.00  0.00    +0.318 C 
ATOM     29  C   UNL     1     -34.544  24.663  -1.275  0.00  0.00    +0.121 C 
ENDBRANCH  26  28
ENDBRANCH   6  26
BRANCH   7  30
ATOM     30  O   UNL     1     -37.042  25.687   2.977  0.00  0.00    -0.449 OA
BRANCH  30  32
ATOM     31  O   UNL     1     -36.540  25.368   5.210  0.00  0.00    -0.250 OA
ATOM     32  C   UNL     1     -36.323  25.878   4.119  0.00  0.00    +0.318 C 
ATOM     33  C   UNL     1     -35.195  26.826   3.844  0.00  0.00    +0.121 C 
ENDBRANCH  30  32
ENDBRANCH   7  30
BRANCH  16  34
ATOM     34  O   UNL     1     -37.661  18.601  -1.653  0.00  0.00    -0.421 OA
BRANCH  34  36
ATOM     35  O   UNL     1     -39.881  18.096  -1.164  0.00  0.00    -0.250 OA
ATOM     36  C   UNL     1     -38.683  17.848  -1.133  0.00  0.00    +0.322 C 
ATOM     37  C   UNL     1     -38.107  16.615  -0.500  0.00  0.00    +0.122 C 
ENDBRANCH  34  36
ENDBRANCH  16  34
TORSDOF 9
ENDMDL
MODEL 5
REMARK VINA RESULT:      -5.1      1.951      7.273
REMARK  Name = 21578028
REMARK  9 active torsions:
REMARK  status: ('A' for Active; 'I' for Inactive)
REMARK    1  A    between atoms: C_4  and  O_20
REMARK    2  A    between atoms: C_6  and  O_26
REMARK    3  A    between atoms: C_7  and  O_30
REMARK    4  A    between atoms: C_9  and  O_22
REMARK    5  A    between atoms: C_10  and  C_24
REMARK    6  A    between atoms: C_16  and  O_34
REMARK    7  A    between atoms: O_26  and  C_28
REMARK    8  A    between atoms: O_30  and  C_32
REMARK    9  A    between atoms: O_34  and  C_36
REMARK                            x       y       z     vdW  Elec       q    Type
REMARK                         _______ _______ _______ _____ _____    ______ ____
ROOT
ATOM      1  O   UNL     1     -31.779  19.061  -0.931  0.00  0.00    -0.288 OA
ATOM      2  C   UNL     1     -34.164  23.924   0.730  0.00  0.00    +0.062 C 
ATOM      3  C   UNL     1     -33.819  22.589  -0.069  0.00  0.00    +0.027 C 
ATOM      4  C   UNL     1     -35.590  23.906   1.395  0.00  0.00    +0.164 C 
ATOM      5  C   UNL     1     -34.069  21.364   0.892  0.00  0.00    +0.015 C 
ATOM      6  C   UNL     1     -35.768  22.661   2.283  0.00  0.00    +0.197 C 
ATOM      7  C   UNL     1     -35.946  25.270   2.084  0.00  0.00    +0.200 C 
ATOM      8  C   UNL     1     -35.486  21.371   1.503  0.00  0.00    +0.047 C 
ATOM      9  C   UNL     1     -34.042  25.282  -0.013  0.00  0.00    +0.114 C 
ATOM     10  C   UNL     1     -34.755  26.234   2.321  0.00  0.00    +0.060 C 
ATOM     11  C   UNL     1     -33.642  19.966   0.325  0.00  0.00    +0.059 C 
ATOM     12  C   UNL     1     -34.030  26.473   0.970  0.00  0.00    +0.037 C 
ATOM     13  C   UNL     1     -32.337  22.512  -0.426  0.00  0.00    +0.014 C 
ATOM     14  C   UNL     1     -34.594  22.515  -1.401  0.00  0.00    +0.005 C 
ATOM     15  C   UNL     1     -32.319  20.059  -0.449  0.00  0.00    +0.206 C 
ATOM     16  C   UNL     1     -31.651  21.376  -0.601  0.00  0.00    +0.179 C 
ATOM     17  C   UNL     1     -35.241  27.595   2.861  0.00  0.00    +0.008 C 
ATOM     18  C   UNL     1     -34.693  19.293  -0.575  0.00  0.00    +0.008 C 
ATOM     19  C   UNL     1     -33.363  19.000   1.507  0.00  0.00    +0.008 C 
ENDROOT
BRANCH   4  20
ATOM     20  O   UNL     1     -36.571  23.774   0.344  0.00  0.00    -0.380 OA
ATOM     21  H   UNL     1     -36.168  23.333  -0.421  0.00  0.00    +0.211 HD
ENDBRANCH   4  20
BRANCH   9  22
ATOM     22  O   UNL     1     -32.885  25.386  -0.829  0.00  0.00    -0.384 OA
ATOM     23  H   UNL     1     -32.716  24.532  -1.257  0.00  0.00    +0.210 HD
ENDBRANCH   9  22
BRANCH  10  24
ATOM     24  C   UNL     1     -33.794  25.698   3.358  0.00  0.00    -0.023 C 
ATOM     25  C   UNL     1     -33.772  26.096   4.634  0.00  0.00    -0.005 C 
ENDBRANCH  10  24
BRANCH   6  26
ATOM     26  O   UNL     1     -34.909  22.733   3.416  0.00  0.00    -0.450 OA
BRANCH  26  28
ATOM     27  O   UNL     1     -35.269  20.708   4.468  0.00  0.00    -0.250 OA
ATOM     28  C   UNL     1     -35.250  21.931   4.468  0.00  0.00    +0.318 C 
ATOM     29  C   UNL     1     -35.606  22.776   5.653  0.00  0.00    +0.121 C 
ENDBRANCH  26  28
ENDBRANCH   6  26
BRANCH   7  30
ATOM     30  O   UNL     1     -36.695  25.049   3.280  0.00  0.00    -0.449 OA
BRANCH  30  32
ATOM     31  O   UNL     1     -38.865  24.375   3.696  0.00  0.00    -0.250 OA
ATOM     32  C   UNL     1     -38.048  25.094   3.136  0.00  0.00    +0.318 C 
ATOM     33  C   UNL     1     -38.410  26.180   2.168  0.00  0.00    +0.121 C 
ENDBRANCH  30  32
ENDBRANCH   7  30
BRANCH  16  34
ATOM     34  O   UNL     1     -30.324  21.399  -0.977  0.00  0.00    -0.421 OA
BRANCH  34  36
ATOM     35  O   UNL     1     -30.617  21.525  -3.284  0.00  0.00    -0.250 OA
ATOM     36  C   UNL     1     -30.109  21.900  -2.236  0.00  0.00    +0.322 C 
ATOM     37  C   UNL     1     -29.129  23.034  -2.149  0.00  0.00    +0.122 C 
ENDBRANCH  34  36
ENDBRANCH  16  34
TORSDOF 9
ENDMDL
MODEL 6
REMARK VINA RESULT:      -5.0      2.999      6.509
REMARK  Name = 21578028
REMARK  9 active torsions:
REMARK  status: ('A' for Active; 'I' for Inactive)
REMARK    1  A    between atoms: C_4  and  O_20
REMARK    2  A    between atoms: C_6  and  O_26
REMARK    3  A    between atoms: C_7  and  O_30
REMARK    4  A    between atoms: C_9  and  O_22
REMARK    5  A    between atoms: C_10  and  C_24
REMARK    6  A    between atoms: C_16  and  O_34
REMARK    7  A    between atoms: O_26  and  C_28
REMARK    8  A    between atoms: O_30  and  C_32
REMARK    9  A    between atoms: O_34  and  C_36
REMARK                            x       y       z     vdW  Elec       q    Type
REMARK                         _______ _______ _______ _____ _____    ______ ____
ROOT
ATOM      1  O   UNL     1     -40.865  25.266  -2.618  0.00  0.00    -0.288 OA
ATOM      2  C   UNL     1     -37.901  24.687   2.175  0.00  0.00    +0.062 C 
ATOM      3  C   UNL     1     -39.036  24.581   1.061  0.00  0.00    +0.027 C 
ATOM      4  C   UNL     1     -37.219  23.309   2.508  0.00  0.00    +0.164 C 
ATOM      5  C   UNL     1     -38.426  23.841  -0.191  0.00  0.00    +0.015 C 
ATOM      6  C   UNL     1     -36.686  22.635   1.230  0.00  0.00    +0.197 C 
ATOM      7  C   UNL     1     -36.183  23.422   3.681  0.00  0.00    +0.200 C 
ATOM      8  C   UNL     1     -37.788  22.485   0.175  0.00  0.00    +0.047 C 
ATOM      9  C   UNL     1     -38.263  25.340   3.538  0.00  0.00    +0.114 C 
ATOM     10  C   UNL     1     -35.739  24.862   4.048  0.00  0.00    +0.060 C 
ATOM     11  C   UNL     1     -39.355  23.774  -1.452  0.00  0.00    +0.059 C 
ATOM     12  C   UNL     1     -37.001  25.714   4.345  0.00  0.00    +0.037 C 
ATOM     13  C   UNL     1     -39.448  25.955   0.542  0.00  0.00    +0.014 C 
ATOM     14  C   UNL     1     -40.314  23.923   1.620  0.00  0.00    +0.005 C 
ATOM     15  C   UNL     1     -40.120  25.090  -1.652  0.00  0.00    +0.206 C 
ATOM     16  C   UNL     1     -39.939  26.197  -0.680  0.00  0.00    +0.179 C 
ATOM     17  C   UNL     1     -34.843  24.863   5.304  0.00  0.00    +0.008 C 
ATOM     18  C   UNL     1     -40.366  22.614  -1.438  0.00  0.00    +0.008 C 
ATOM     19  C   UNL     1     -38.480  23.605  -2.723  0.00  0.00    +0.008 C 
ENDROOT
BRANCH   4  20
ATOM     20  O   UNL     1     -38.236  22.419   3.019  0.00  0.00    -0.380 OA
ATOM     21  H   UNL     1     -37.853  21.540   3.165  0.00  0.00    +0.211 HD
ENDBRANCH   4  20
BRANCH   9  22
ATOM     22  O   UNL     1     -39.060  26.508   3.418  0.00  0.00    -0.384 OA
ATOM     23  H   UNL     1     -39.374  26.592   2.504  0.00  0.00    +0.210 HD
ENDBRANCH   9  22
BRANCH  10  24
ATOM     24  C   UNL     1     -34.912  25.493   2.950  0.00  0.00    -0.023 C 
ATOM     25  C   UNL     1     -33.607  25.764   3.058  0.00  0.00    -0.005 C 
ENDBRANCH  10  24
BRANCH   6  26
ATOM     26  O   UNL     1     -35.603  23.383   0.689  0.00  0.00    -0.450 OA
BRANCH  26  28
ATOM     27  O   UNL     1     -34.840  23.038  -1.464  0.00  0.00    -0.250 OA
ATOM     28  C   UNL     1     -34.870  22.751  -0.274  0.00  0.00    +0.318 C 
ATOM     29  C   UNL     1     -34.089  21.629   0.339  0.00  0.00    +0.121 C 
ENDBRANCH  26  28
ENDBRANCH   6  26
BRANCH   7  30
ATOM     30  O   UNL     1     -35.064  22.566   3.449  0.00  0.00    -0.449 OA
BRANCH  30  32
ATOM     31  O   UNL     1     -35.220  20.261   3.402  0.00  0.00    -0.250 OA
ATOM     32  C   UNL     1     -35.156  21.325   4.003  0.00  0.00    +0.318 C 
ATOM     33  C   UNL     1     -35.167  21.447   5.497  0.00  0.00    +0.121 C 
ENDBRANCH  30  32
ENDBRANCH   7  30
BRANCH  16  34
ATOM     34  O   UNL     1     -40.339  27.465  -1.046  0.00  0.00    -0.421 OA
BRANCH  34  36
ATOM     35  O   UNL     1     -41.041  28.768   0.752  0.00  0.00    -0.250 OA
ATOM     36  C   UNL     1     -41.259  28.028  -0.198  0.00  0.00    +0.322 C 
ATOM     37  C   UNL     1     -42.636  27.605  -0.621  0.00  0.00    +0.122 C 
ENDBRANCH  34  36
ENDBRANCH  16  34
TORSDOF 9
ENDMDL
MODEL 7
REMARK VINA RESULT:      -4.9      4.237      7.387
REMARK  Name = 21578028
REMARK  9 active torsions:
REMARK  status: ('A' for Active; 'I' for Inactive)
REMARK    1  A    between atoms: C_4  and  O_20
REMARK    2  A    between atoms: C_6  and  O_26
REMARK    3  A    between atoms: C_7  and  O_30
REMARK    4  A    between atoms: C_9  and  O_22
REMARK    5  A    between atoms: C_10  and  C_24
REMARK    6  A    between atoms: C_16  and  O_34
REMARK    7  A    between atoms: O_26  and  C_28
REMARK    8  A    between atoms: O_30  and  C_32
REMARK    9  A    between atoms: O_34  and  C_36
REMARK                            x       y       z     vdW  Elec       q    Type
REMARK                         _______ _______ _______ _____ _____    ______ ____
ROOT
ATOM      1  O   UNL     1     -32.757  29.917   3.181  0.00  0.00    -0.288 OA
ATOM      2  C   UNL     1     -37.237  26.903   1.465  0.00  0.00    +0.062 C 
ATOM      3  C   UNL     1     -35.819  27.629   1.526  0.00  0.00    +0.027 C 
ATOM      4  C   UNL     1     -37.135  25.335   1.379  0.00  0.00    +0.164 C 
ATOM      5  C   UNL     1     -34.980  26.970   2.687  0.00  0.00    +0.015 C 
ATOM      6  C   UNL     1     -36.268  24.776   2.522  0.00  0.00    +0.197 C 
ATOM      7  C   UNL     1     -38.538  24.653   1.213  0.00  0.00    +0.200 C 
ATOM      8  C   UNL     1     -34.885  25.436   2.551  0.00  0.00    +0.047 C 
ATOM      9  C   UNL     1     -38.244  27.340   0.367  0.00  0.00    +0.114 C 
ATOM     10  C   UNL     1     -39.763  25.550   1.529  0.00  0.00    +0.060 C 
ATOM     11  C   UNL     1     -33.604  27.655   2.996  0.00  0.00    +0.059 C 
ATOM     12  C   UNL     1     -39.673  26.839   0.669  0.00  0.00    +0.037 C 
ATOM     13  C   UNL     1     -35.953  29.096   1.923  0.00  0.00    +0.014 C 
ATOM     14  C   UNL     1     -35.118  27.610   0.152  0.00  0.00    +0.005 C 
ATOM     15  C   UNL     1     -33.714  29.185   2.919  0.00  0.00    +0.206 C 
ATOM     16  C   UNL     1     -35.009  29.809   2.551  0.00  0.00    +0.179 C 
ATOM     17  C   UNL     1     -41.083  24.827   1.188  0.00  0.00    +0.008 C 
ATOM     18  C   UNL     1     -32.446  27.198   2.091  0.00  0.00    +0.008 C 
ATOM     19  C   UNL     1     -33.195  27.342   4.459  0.00  0.00    +0.008 C 
ENDROOT
BRANCH   4  20
ATOM     20  O   UNL     1     -36.433  25.001   0.162  0.00  0.00    -0.380 OA
ATOM     21  H   UNL     1     -35.785  25.694  -0.039  0.00  0.00    +0.211 HD
ENDBRANCH   4  20
BRANCH   9  22
ATOM     22  O   UNL     1     -38.312  28.746   0.180  0.00  0.00    -0.384 OA
ATOM     23  H   UNL     1     -38.238  28.949  -0.765  0.00  0.00    +0.210 HD
ENDBRANCH   9  22
BRANCH  10  24
ATOM     24  C   UNL     1     -39.846  25.891   3.000  0.00  0.00    -0.023 C 
ATOM     25  C   UNL     1     -40.966  26.284   3.614  0.00  0.00    -0.005 C 
ENDBRANCH  10  24
BRANCH   6  26
ATOM     26  O   UNL     1     -36.917  24.966   3.775  0.00  0.00    -0.450 OA
BRANCH  26  28
ATOM     27  O   UNL     1     -36.303  23.077   4.955  0.00  0.00    -0.250 OA
ATOM     28  C   UNL     1     -36.371  24.292   4.830  0.00  0.00    +0.318 C 
ATOM     29  C   UNL     1     -35.855  25.270   5.842  0.00  0.00    +0.121 C 
ENDBRANCH  26  28
ENDBRANCH   6  26
BRANCH   7  30
ATOM     30  O   UNL     1     -38.585  23.419   1.931  0.00  0.00    -0.449 OA
BRANCH  30  32
ATOM     31  O   UNL     1     -37.609  22.052   0.345  0.00  0.00    -0.250 OA
ATOM     32  C   UNL     1     -38.482  22.297   1.167  0.00  0.00    +0.318 C 
ATOM     33  C   UNL     1     -39.621  21.374   1.482  0.00  0.00    +0.121 C 
ENDBRANCH  30  32
ENDBRANCH   7  30
BRANCH  16  34
ATOM     34  O   UNL     1     -35.194  31.148   2.823  0.00  0.00    -0.421 OA
BRANCH  34  36
ATOM     35  O   UNL     1     -34.274  32.229   0.977  0.00  0.00    -0.250 OA
ATOM     36  C   UNL     1     -35.214  31.947   1.708  0.00  0.00    +0.322 C 
ATOM     37  C   UNL     1     -36.614  32.443   1.487  0.00  0.00    +0.122 C 
ENDBRANCH  34  36
ENDBRANCH  16  34
TORSDOF 9
ENDMDL
MODEL 8
REMARK VINA RESULT:      -4.9     10.343     14.254
REMARK  Name = 21578028
REMARK  9 active torsions:
REMARK  status: ('A' for Active; 'I' for Inactive)
REMARK    1  A    between atoms: C_4  and  O_20
REMARK    2  A    between atoms: C_6  and  O_26
REMARK    3  A    between atoms: C_7  and  O_30
REMARK    4  A    between atoms: C_9  and  O_22
REMARK    5  A    between atoms: C_10  and  C_24
REMARK    6  A    between atoms: C_16  and  O_34
REMARK    7  A    between atoms: O_26  and  C_28
REMARK    8  A    between atoms: O_30  and  C_32
REMARK    9  A    between atoms: O_34  and  C_36
REMARK                            x       y       z     vdW  Elec       q    Type
REMARK                         _______ _______ _______ _____ _____    ______ ____
ROOT
ATOM      1  O   UNL     1     -41.348  32.072  -1.654  0.00  0.00    -0.288 OA
ATOM      2  C   UNL     1     -44.697  31.771   2.906  0.00  0.00    +0.062 C 
ATOM      3  C   UNL     1     -44.166  31.837   1.404  0.00  0.00    +0.027 C 
ATOM      4  C   UNL     1     -45.414  30.415   3.258  0.00  0.00    +0.164 C 
ATOM      5  C   UNL     1     -43.292  30.552   1.136  0.00  0.00    +0.015 C 
ATOM      6  C   UNL     1     -44.512  29.212   2.930  0.00  0.00    +0.197 C 
ATOM      7  C   UNL     1     -46.020  30.417   4.706  0.00  0.00    +0.200 C 
ATOM      8  C   UNL     1     -44.041  29.246   1.471  0.00  0.00    +0.047 C 
ATOM      9  C   UNL     1     -45.628  32.906   3.411  0.00  0.00    +0.114 C 
ATOM     10  C   UNL     1     -45.511  31.542   5.644  0.00  0.00    +0.060 C 
ATOM     11  C   UNL     1     -42.560  30.514  -0.250  0.00  0.00    +0.059 C 
ATOM     12  C   UNL     1     -45.739  32.912   4.951  0.00  0.00    +0.037 C 
ATOM     13  C   UNL     1     -43.215  33.011   1.194  0.00  0.00    +0.014 C 
ATOM     14  C   UNL     1     -45.326  32.029   0.406  0.00  0.00    +0.005 C 
ATOM     15  C   UNL     1     -42.006  31.895  -0.626  0.00  0.00    +0.206 C 
ATOM     16  C   UNL     1     -42.237  33.049   0.280  0.00  0.00    +0.179 C 
ATOM     17  C   UNL     1     -46.281  31.538   6.982  0.00  0.00    +0.008 C 
ATOM     18  C   UNL     1     -43.423  29.996  -1.413  0.00  0.00    +0.008 C 
ATOM     19  C   UNL     1     -41.322  29.585  -0.148  0.00  0.00    +0.008 C 
ENDROOT
BRANCH   4  20
ATOM     20  O   UNL     1     -46.564  30.282   2.394  0.00  0.00    -0.380 OA
ATOM     21  H   UNL     1     -47.212  29.689   2.805  0.00  0.00    +0.211 HD
ENDBRANCH   4  20
BRANCH   9  22
ATOM     22  O   UNL     1     -45.220  34.203   3.004  0.00  0.00    -0.384 OA
ATOM     23  H   UNL     1     -45.829  34.863   3.370  0.00  0.00    +0.210 HD
ENDBRANCH   9  22
BRANCH  10  24
ATOM     24  C   UNL     1     -44.055  31.358   6.005  0.00  0.00    -0.023 C 
ATOM     25  C   UNL     1     -43.629  30.674   7.072  0.00  0.00    -0.005 C 
ENDBRANCH  10  24
BRANCH   6  26
ATOM     26  O   UNL     1     -43.383  29.188   3.797  0.00  0.00    -0.450 OA
BRANCH  26  28
ATOM     27  O   UNL     1     -41.559  27.781   3.970  0.00  0.00    -0.250 OA
ATOM     28  C   UNL     1     -42.766  27.977   3.931  0.00  0.00    +0.318 C 
ATOM     29  C   UNL     1     -43.796  26.892   4.028  0.00  0.00    +0.121 C 
ENDBRANCH  26  28
ENDBRANCH   6  26
BRANCH   7  30
ATOM     30  O   UNL     1     -45.892  29.128   5.306  0.00  0.00    -0.449 OA
BRANCH  30  32
ATOM     31  O   UNL     1     -48.033  28.571   4.640  0.00  0.00    -0.250 OA
ATOM     32  C   UNL     1     -47.022  28.368   5.299  0.00  0.00    +0.318 C 
ATOM     33  C   UNL     1     -46.850  27.212   6.237  0.00  0.00    +0.121 C 
ENDBRANCH  30  32
ENDBRANCH   7  30
BRANCH  16  34
ATOM     34  O   UNL     1     -41.457  34.175   0.120  0.00  0.00    -0.421 OA
BRANCH  34  36
ATOM     35  O   UNL     1     -39.808  33.316   1.523  0.00  0.00    -0.250 OA
ATOM     36  C   UNL     1     -40.395  34.246   0.987  0.00  0.00    +0.322 C 
ATOM     37  C   UNL     1     -40.025  35.687   1.189  0.00  0.00    +0.122 C 
ENDBRANCH  34  36
ENDBRANCH  16  34
TORSDOF 9
ENDMDL
MODEL 9
REMARK VINA RESULT:      -4.8      2.604      6.726
REMARK  Name = 21578028
REMARK  9 active torsions:
REMARK  status: ('A' for Active; 'I' for Inactive)
REMARK    1  A    between atoms: C_4  and  O_20
REMARK    2  A    between atoms: C_6  and  O_26
REMARK    3  A    between atoms: C_7  and  O_30
REMARK    4  A    between atoms: C_9  and  O_22
REMARK    5  A    between atoms: C_10  and  C_24
REMARK    6  A    between atoms: C_16  and  O_34
REMARK    7  A    between atoms: O_26  and  C_28
REMARK    8  A    between atoms: O_30  and  C_32
REMARK    9  A    between atoms: O_34  and  C_36
REMARK                            x       y       z     vdW  Elec       q    Type
REMARK                         _______ _______ _______ _____ _____    ______ ____
ROOT
ATOM      1  O   UNL     1     -40.552  23.103  -2.619  0.00  0.00    -0.288 OA
ATOM      2  C   UNL     1     -37.329  24.405   1.855  0.00  0.00    +0.062 C 
ATOM      3  C   UNL     1     -38.556  23.980   0.930  0.00  0.00    +0.027 C 
ATOM      4  C   UNL     1     -36.859  23.267   2.835  0.00  0.00    +0.164 C 
ATOM      5  C   UNL     1     -38.186  22.623   0.217  0.00  0.00    +0.015 C 
ATOM      6  C   UNL     1     -36.557  21.968   2.066  0.00  0.00    +0.197 C 
ATOM      7  C   UNL     1     -35.723  23.745   3.805  0.00  0.00    +0.200 C 
ATOM      8  C   UNL     1     -37.754  21.529   1.214  0.00  0.00    +0.047 C 
ATOM      9  C   UNL     1     -37.460  25.695   2.709  0.00  0.00    +0.114 C 
ATOM     10  C   UNL     1     -35.016  25.068   3.411  0.00  0.00    +0.060 C 
ATOM     11  C   UNL     1     -39.217  22.122  -0.852  0.00  0.00    +0.059 C 
ATOM     12  C   UNL     1     -36.090  26.174   3.235  0.00  0.00    +0.037 C 
ATOM     13  C   UNL     1     -38.777  24.974  -0.207  0.00  0.00    +0.014 C 
ATOM     14  C   UNL     1     -39.873  23.932   1.731  0.00  0.00    +0.005 C 
ATOM     15  C   UNL     1     -39.767  23.287  -1.687  0.00  0.00    +0.206 C 
ATOM     16  C   UNL     1     -39.323  24.672  -1.391  0.00  0.00    +0.179 C 
ATOM     17  C   UNL     1     -34.029  25.517   4.509  0.00  0.00    +0.008 C 
ATOM     18  C   UNL     1     -40.402  21.329  -0.272  0.00  0.00    +0.008 C 
ATOM     19  C   UNL     1     -38.494  21.192  -1.863  0.00  0.00    +0.008 C 
ENDROOT
BRANCH   4  20
ATOM     20  O   UNL     1     -37.963  22.949   3.711  0.00  0.00    -0.380 OA
ATOM     21  H   UNL     1     -37.620  22.662   4.572  0.00  0.00    +0.211 HD
ENDBRANCH   4  20
BRANCH   9  22
ATOM     22  O   UNL     1     -38.059  26.780   2.017  0.00  0.00    -0.384 OA
ATOM     23  H   UNL     1     -38.451  27.394   2.657  0.00  0.00    +0.210 HD
ENDBRANCH   9  22
BRANCH  10  24
ATOM     24  C   UNL     1     -34.192  24.913   2.153  0.00  0.00    -0.023 C 
ATOM     25  C   UNL     1     -33.410  25.873   1.648  0.00  0.00    -0.005 C 
ENDBRANCH  10  24
BRANCH   6  26
ATOM     26  O   UNL     1     -35.414  22.138   1.234  0.00  0.00    -0.450 OA
BRANCH  26  28
ATOM     27  O   UNL     1     -34.373  20.148   1.774  0.00  0.00    -0.250 OA
ATOM     28  C   UNL     1     -34.705  21.003   0.964  0.00  0.00    +0.318 C 
ATOM     29  C   UNL     1     -34.382  20.944  -0.498  0.00  0.00    +0.121 C 
ENDBRANCH  26  28
ENDBRANCH   6  26
BRANCH   7  30
ATOM     30  O   UNL     1     -34.786  22.693   4.040  0.00  0.00    -0.449 OA
BRANCH  30  32
ATOM     31  O   UNL     1     -35.082  20.650   5.078  0.00  0.00    -0.250 OA
ATOM     32  C   UNL     1     -35.080  21.874   5.088  0.00  0.00    +0.318 C 
ATOM     33  C   UNL     1     -35.411  22.705   6.290  0.00  0.00    +0.121 C 
ENDBRANCH  30  32
ENDBRANCH   7  30
BRANCH  16  34
ATOM     34  O   UNL     1     -39.536  25.647  -2.344  0.00  0.00    -0.421 OA
BRANCH  34  36
ATOM     35  O   UNL     1     -37.583  25.343  -3.576  0.00  0.00    -0.250 OA
ATOM     36  C   UNL     1     -38.397  26.049  -2.995  0.00  0.00    +0.322 C 
ATOM     37  C   UNL     1     -38.286  27.543  -2.907  0.00  0.00    +0.122 C 
ENDBRANCH  34  36
ENDBRANCH  16  34
TORSDOF 9
ENDMDL
