MODEL 1
REMARK VINA RESULT:      -5.5      0.000      0.000
REMARK  Name = 200354
REMARK  10 active torsions:
REMARK  status: ('A' for Active; 'I' for Inactive)
REMARK    1  A    between atoms: S_1  and  C_2
REMARK    2  A    between atoms: S_1  and  C_15
REMARK    3  A    between atoms: C_2  and  C_4
REMARK    4  A    between atoms: C_5  and  C_12
REMARK    5  A    between atoms: C_6  and  O_10
REMARK    6  A    between atoms: C_12  and  O_13
REMARK    7  A    between atoms: C_15  and  C_17
REMARK    8  A    between atoms: C_18  and  C_25
REMARK    9  A    between atoms: C_19  and  O_23
REMARK   10  A    between atoms: C_25  and  O_26
REMARK                            x       y       z     vdW  Elec       q    Type
REMARK                         _______ _______ _______ _____ _____    ______ ____
ROOT
ATOM      1  S   UNL     1     -37.456  26.452   2.230  0.00  0.00    -0.131 S 
ENDROOT
BRANCH   1   2
ATOM      2  C   UNL     1     -37.797  24.665   2.195  0.00  0.00    +0.085 C 
BRANCH   2   4
ATOM      3  N   UNL     1     -36.016  23.937   5.427  0.00  0.00    -0.245 NA
ATOM      4  C   UNL     1     -37.038  23.918   3.236  0.00  0.00    +0.009 C 
ATOM      5  C   UNL     1     -36.646  22.596   3.058  0.00  0.00    +0.040 C 
ATOM      6  C   UNL     1     -35.939  21.945   4.061  0.00  0.00    +0.145 C 
ATOM      7  C   UNL     1     -36.702  24.538   4.430  0.00  0.00    +0.095 C 
ATOM      8  C   UNL     1     -35.652  22.653   5.217  0.00  0.00    +0.093 C 
ATOM      9  C   UNL     1     -34.896  22.001   6.328  0.00  0.00    +0.055 C 
BRANCH   6  10
ATOM     10  O   UNL     1     -35.543  20.653   3.914  0.00  0.00    -0.505 OA
ATOM     11  H   UNL     1     -35.935  20.115   3.254  0.00  0.00    +0.292 HD
ENDBRANCH   6  10
BRANCH   5  12
ATOM     12  C   UNL     1     -36.981  21.876   1.791  0.00  0.00    +0.166 C 
BRANCH  12  13
ATOM     13  O   UNL     1     -37.735  20.712   2.099  0.00  0.00    -0.377 OA
ATOM     14  H   UNL     1     -37.748  20.579   3.060  0.00  0.00    +0.211 HD
ENDBRANCH  12  13
ENDBRANCH   5  12
ENDBRANCH   2   4
ENDBRANCH   1   2
BRANCH   1  15
ATOM     15  C   UNL     1     -35.748  26.400   1.643  0.00  0.00    +0.085 C 
BRANCH  15  17
ATOM     16  N   UNL     1     -34.453  29.657   3.010  0.00  0.00    -0.245 NA
ATOM     17  C   UNL     1     -34.866  27.373   2.377  0.00  0.00    +0.009 C 
ATOM     18  C   UNL     1     -33.735  26.955   3.055  0.00  0.00    +0.040 C 
ATOM     19  C   UNL     1     -32.955  27.896   3.718  0.00  0.00    +0.145 C 
ATOM     20  C   UNL     1     -35.187  28.714   2.378  0.00  0.00    +0.095 C 
ATOM     21  C   UNL     1     -33.353  29.222   3.665  0.00  0.00    +0.093 C 
ATOM     22  C   UNL     1     -32.551  30.274   4.359  0.00  0.00    +0.055 C 
BRANCH  19  23
ATOM     23  O   UNL     1     -31.838  27.526   4.396  0.00  0.00    -0.505 OA
ATOM     24  H   UNL     1     -31.303  28.176   4.809  0.00  0.00    +0.292 HD
ENDBRANCH  19  23
BRANCH  18  25
ATOM     25  C   UNL     1     -33.349  25.511   3.082  0.00  0.00    +0.166 C 
BRANCH  25  26
ATOM     26  O   UNL     1     -33.290  25.068   4.431  0.00  0.00    -0.377 OA
ATOM     27  H   UNL     1     -32.569  25.527   4.891  0.00  0.00    +0.211 HD
ENDBRANCH  25  26
ENDBRANCH  18  25
ENDBRANCH  15  17
ENDBRANCH   1  15
TORSDOF 10
ENDMDL
MODEL 2
REMARK VINA RESULT:      -5.4      4.090      6.833
REMARK  Name = 200354
REMARK  10 active torsions:
REMARK  status: ('A' for Active; 'I' for Inactive)
REMARK    1  A    between atoms: S_1  and  C_2
REMARK    2  A    between atoms: S_1  and  C_15
REMARK    3  A    between atoms: C_2  and  C_4
REMARK    4  A    between atoms: C_5  and  C_12
REMARK    5  A    between atoms: C_6  and  O_10
REMARK    6  A    between atoms: C_12  and  O_13
REMARK    7  A    between atoms: C_15  and  C_17
REMARK    8  A    between atoms: C_18  and  C_25
REMARK    9  A    between atoms: C_19  and  O_23
REMARK   10  A    between atoms: C_25  and  O_26
REMARK                            x       y       z     vdW  Elec       q    Type
REMARK                         _______ _______ _______ _____ _____    ______ ____
ROOT
ATOM      1  S   UNL     1     -35.813  23.064  -0.147  0.00  0.00    -0.131 S 
ENDROOT
BRANCH   1   2
ATOM      2  C   UNL     1     -37.032  22.417   1.039  0.00  0.00    +0.085 C 
BRANCH   2   4
ATOM      3  N   UNL     1     -35.277  20.974   4.038  0.00  0.00    -0.245 NA
ATOM      4  C   UNL     1     -36.483  22.305   2.419  0.00  0.00    +0.009 C 
ATOM      5  C   UNL     1     -36.625  23.325   3.355  0.00  0.00    +0.040 C 
ATOM      6  C   UNL     1     -36.094  23.170   4.630  0.00  0.00    +0.145 C 
ATOM      7  C   UNL     1     -35.806  21.160   2.808  0.00  0.00    +0.095 C 
ATOM      8  C   UNL     1     -35.435  21.987   4.919  0.00  0.00    +0.093 C 
ATOM      9  C   UNL     1     -34.845  21.769   6.273  0.00  0.00    +0.055 C 
BRANCH   6  10
ATOM     10  O   UNL     1     -36.218  24.151   5.563  0.00  0.00    -0.505 OA
ATOM     11  H   UNL     1     -36.482  25.012   5.306  0.00  0.00    +0.292 HD
ENDBRANCH   6  10
BRANCH   5  12
ATOM     12  C   UNL     1     -37.345  24.584   2.992  0.00  0.00    +0.166 C 
BRANCH  12  13
ATOM     13  O   UNL     1     -38.382  24.819   3.935  0.00  0.00    -0.377 OA
ATOM     14  H   UNL     1     -39.110  25.296   3.504  0.00  0.00    +0.211 HD
ENDBRANCH  12  13
ENDBRANCH   5  12
ENDBRANCH   2   4
ENDBRANCH   1   2
BRANCH   1  15
ATOM     15  C   UNL     1     -35.606  21.571  -1.143  0.00  0.00    +0.085 C 
BRANCH  15  17
ATOM     16  N   UNL     1     -32.414  20.230   0.329  0.00  0.00    -0.245 NA
ATOM     17  C   UNL     1     -34.632  20.606  -0.524  0.00  0.00    +0.009 C 
ATOM     18  C   UNL     1     -34.987  19.300  -0.242  0.00  0.00    +0.040 C 
ATOM     19  C   UNL     1     -34.048  18.449   0.330  0.00  0.00    +0.145 C 
ATOM     20  C   UNL     1     -33.353  21.028  -0.228  0.00  0.00    +0.095 C 
ATOM     21  C   UNL     1     -32.787  18.958   0.594  0.00  0.00    +0.093 C 
ATOM     22  C   UNL     1     -31.741  18.088   1.208  0.00  0.00    +0.055 C 
BRANCH  19  23
ATOM     23  O   UNL     1     -34.360  17.159   0.623  0.00  0.00    -0.505 OA
ATOM     24  H   UNL     1     -33.679  16.548   0.828  0.00  0.00    +0.292 HD
ENDBRANCH  19  23
BRANCH  18  25
ATOM     25  C   UNL     1     -36.363  18.799  -0.545  0.00  0.00    +0.166 C 
BRANCH  25  26
ATOM     26  O   UNL     1     -37.006  18.434   0.668  0.00  0.00    -0.377 OA
ATOM     27  H   UNL     1     -37.598  17.682   0.507  0.00  0.00    +0.211 HD
ENDBRANCH  25  26
ENDBRANCH  18  25
ENDBRANCH  15  17
ENDBRANCH   1  15
TORSDOF 10
ENDMDL
MODEL 3
REMARK VINA RESULT:      -5.4      4.097      5.963
REMARK  Name = 200354
REMARK  10 active torsions:
REMARK  status: ('A' for Active; 'I' for Inactive)
REMARK    1  A    between atoms: S_1  and  C_2
REMARK    2  A    between atoms: S_1  and  C_15
REMARK    3  A    between atoms: C_2  and  C_4
REMARK    4  A    between atoms: C_5  and  C_12
REMARK    5  A    between atoms: C_6  and  O_10
REMARK    6  A    between atoms: C_12  and  O_13
REMARK    7  A    between atoms: C_15  and  C_17
REMARK    8  A    between atoms: C_18  and  C_25
REMARK    9  A    between atoms: C_19  and  O_23
REMARK   10  A    between atoms: C_25  and  O_26
REMARK                            x       y       z     vdW  Elec       q    Type
REMARK                         _______ _______ _______ _____ _____    ______ ____
ROOT
ATOM      1  S   UNL     1     -35.968  23.022  -0.178  0.00  0.00    -0.131 S 
ENDROOT
BRANCH   1   2
ATOM      2  C   UNL     1     -35.805  21.464  -1.105  0.00  0.00    +0.085 C 
BRANCH   2   4
ATOM      3  N   UNL     1     -32.570  20.239   0.373  0.00  0.00    -0.245 NA
ATOM      4  C   UNL     1     -34.804  20.542  -0.500  0.00  0.00    +0.009 C 
ATOM      5  C   UNL     1     -35.094  19.207  -0.240  0.00  0.00    +0.040 C 
ATOM      6  C   UNL     1     -34.124  18.388   0.326  0.00  0.00    +0.145 C 
ATOM      7  C   UNL     1     -33.538  21.005  -0.177  0.00  0.00    +0.095 C 
ATOM      8  C   UNL     1     -32.889  18.947   0.611  0.00  0.00    +0.093 C 
ATOM      9  C   UNL     1     -31.811  18.112   1.220  0.00  0.00    +0.055 C 
BRANCH   6  10
ATOM     10  O   UNL     1     -34.380  17.080   0.591  0.00  0.00    -0.505 OA
ATOM     11  H   UNL     1     -33.922  16.409   0.124  0.00  0.00    +0.292 HD
ENDBRANCH   6  10
BRANCH   5  12
ATOM     12  C   UNL     1     -36.443  18.651  -0.567  0.00  0.00    +0.166 C 
BRANCH  12  13
ATOM     13  O   UNL     1     -37.100  18.277   0.636  0.00  0.00    -0.377 OA
ATOM     14  H   UNL     1     -37.117  17.309   0.708  0.00  0.00    +0.211 HD
ENDBRANCH  12  13
ENDBRANCH   5  12
ENDBRANCH   2   4
ENDBRANCH   1   2
BRANCH   1  15
ATOM     15  C   UNL     1     -37.177  22.468   1.045  0.00  0.00    +0.085 C 
BRANCH  15  17
ATOM     16  N   UNL     1     -35.325  20.994   3.969  0.00  0.00    -0.245 NA
ATOM     17  C   UNL     1     -36.576  22.342   2.419  0.00  0.00    +0.009 C 
ATOM     18  C   UNL     1     -36.690  23.354   3.354  0.00  0.00    +0.040 C 
ATOM     19  C   UNL     1     -36.116  23.186   4.609  0.00  0.00    +0.145 C 
ATOM     20  C   UNL     1     -35.895  21.193   2.760  0.00  0.00    +0.095 C 
ATOM     21  C   UNL     1     -35.450  21.999   4.865  0.00  0.00    +0.093 C 
ATOM     22  C   UNL     1     -34.816  21.767   6.197  0.00  0.00    +0.055 C 
BRANCH  19  23
ATOM     23  O   UNL     1     -36.205  24.158   5.555  0.00  0.00    -0.505 OA
ATOM     24  H   UNL     1     -36.986  24.670   5.629  0.00  0.00    +0.292 HD
ENDBRANCH  19  23
BRANCH  18  25
ATOM     25  C   UNL     1     -37.419  24.619   3.028  0.00  0.00    +0.166 C 
BRANCH  25  26
ATOM     26  O   UNL     1     -38.466  24.811   3.969  0.00  0.00    -0.377 OA
ATOM     27  H   UNL     1     -38.242  24.362   4.799  0.00  0.00    +0.211 HD
ENDBRANCH  25  26
ENDBRANCH  18  25
ENDBRANCH  15  17
ENDBRANCH   1  15
TORSDOF 10
ENDMDL
MODEL 4
REMARK VINA RESULT:      -5.3      3.600      5.615
REMARK  Name = 200354
REMARK  10 active torsions:
REMARK  status: ('A' for Active; 'I' for Inactive)
REMARK    1  A    between atoms: S_1  and  C_2
REMARK    2  A    between atoms: S_1  and  C_15
REMARK    3  A    between atoms: C_2  and  C_4
REMARK    4  A    between atoms: C_5  and  C_12
REMARK    5  A    between atoms: C_6  and  O_10
REMARK    6  A    between atoms: C_12  and  O_13
REMARK    7  A    between atoms: C_15  and  C_17
REMARK    8  A    between atoms: C_18  and  C_25
REMARK    9  A    between atoms: C_19  and  O_23
REMARK   10  A    between atoms: C_25  and  O_26
REMARK                            x       y       z     vdW  Elec       q    Type
REMARK                         _______ _______ _______ _____ _____    ______ ____
ROOT
ATOM      1  S   UNL     1     -37.509  23.626  -0.054  0.00  0.00    -0.131 S 
ENDROOT
BRANCH   1   2
ATOM      2  C   UNL     1     -35.974  22.765   0.408  0.00  0.00    +0.085 C 
BRANCH   2   4
ATOM      3  N   UNL     1     -35.239  24.200   3.807  0.00  0.00    -0.245 NA
ATOM      4  C   UNL     1     -35.701  22.827   1.871  0.00  0.00    +0.009 C 
ATOM      5  C   UNL     1     -35.648  21.684   2.661  0.00  0.00    +0.040 C 
ATOM      6  C   UNL     1     -35.389  21.797   4.022  0.00  0.00    +0.145 C 
ATOM      7  C   UNL     1     -35.492  24.051   2.487  0.00  0.00    +0.095 C 
ATOM      8  C   UNL     1     -35.195  23.066   4.541  0.00  0.00    +0.093 C 
ATOM      9  C   UNL     1     -34.915  23.245   5.998  0.00  0.00    +0.055 C 
BRANCH   6  10
ATOM     10  O   UNL     1     -35.332  20.697   4.817  0.00  0.00    -0.505 OA
ATOM     11  H   UNL     1     -34.502  20.350   5.079  0.00  0.00    +0.292 HD
ENDBRANCH   6  10
BRANCH   5  12
ATOM     12  C   UNL     1     -35.866  20.337   2.051  0.00  0.00    +0.166 C 
BRANCH  12  13
ATOM     13  O   UNL     1     -36.993  19.723   2.659  0.00  0.00    -0.377 OA
ATOM     14  H   UNL     1     -37.554  19.324   1.974  0.00  0.00    +0.211 HD
ENDBRANCH  12  13
ENDBRANCH   5  12
ENDBRANCH   2   4
ENDBRANCH   1   2
BRANCH   1  15
ATOM     15  C   UNL     1     -38.546  23.053   1.311  0.00  0.00    +0.085 C 
BRANCH  15  17
ATOM     16  N   UNL     1     -41.965  24.548   0.836  0.00  0.00    -0.245 NA
ATOM     17  C   UNL     1     -39.742  23.940   1.525  0.00  0.00    +0.009 C 
ATOM     18  C   UNL     1     -39.761  24.902   2.518  0.00  0.00    +0.040 C 
ATOM     19  C   UNL     1     -40.892  25.695   2.673  0.00  0.00    +0.145 C 
ATOM     20  C   UNL     1     -40.848  23.795   0.715  0.00  0.00    +0.095 C 
ATOM     21  C   UNL     1     -41.958  25.480   1.814  0.00  0.00    +0.093 C 
ATOM     22  C   UNL     1     -43.198  26.304   1.937  0.00  0.00    +0.055 C 
BRANCH  19  23
ATOM     23  O   UNL     1     -40.951  26.650   3.638  0.00  0.00    -0.505 OA
ATOM     24  H   UNL     1     -41.646  26.638   4.267  0.00  0.00    +0.292 HD
ENDBRANCH  19  23
BRANCH  18  25
ATOM     25  C   UNL     1     -38.584  25.094   3.420  0.00  0.00    +0.166 C 
BRANCH  25  26
ATOM     26  O   UNL     1     -38.186  26.457   3.387  0.00  0.00    -0.377 OA
ATOM     27  H   UNL     1     -37.892  26.730   4.271  0.00  0.00    +0.211 HD
ENDBRANCH  25  26
ENDBRANCH  18  25
ENDBRANCH  15  17
ENDBRANCH   1  15
TORSDOF 10
ENDMDL
MODEL 5
REMARK VINA RESULT:      -5.3      2.901      6.002
REMARK  Name = 200354
REMARK  10 active torsions:
REMARK  status: ('A' for Active; 'I' for Inactive)
REMARK    1  A    between atoms: S_1  and  C_2
REMARK    2  A    between atoms: S_1  and  C_15
REMARK    3  A    between atoms: C_2  and  C_4
REMARK    4  A    between atoms: C_5  and  C_12
REMARK    5  A    between atoms: C_6  and  O_10
REMARK    6  A    between atoms: C_12  and  O_13
REMARK    7  A    between atoms: C_15  and  C_17
REMARK    8  A    between atoms: C_18  and  C_25
REMARK    9  A    between atoms: C_19  and  O_23
REMARK   10  A    between atoms: C_25  and  O_26
REMARK                            x       y       z     vdW  Elec       q    Type
REMARK                         _______ _______ _______ _____ _____    ______ ____
ROOT
ATOM      1  S   UNL     1     -36.054  24.624   0.159  0.00  0.00    -0.131 S 
ENDROOT
BRANCH   1   2
ATOM      2  C   UNL     1     -37.086  24.994   1.612  0.00  0.00    +0.085 C 
BRANCH   2   4
ATOM      3  N   UNL     1     -36.537  22.484   4.360  0.00  0.00    -0.245 NA
ATOM      4  C   UNL     1     -36.554  24.381   2.861  0.00  0.00    +0.009 C 
ATOM      5  C   UNL     1     -35.641  25.041   3.676  0.00  0.00    +0.040 C 
ATOM      6  C   UNL     1     -35.176  24.425   4.832  0.00  0.00    +0.145 C 
ATOM      7  C   UNL     1     -36.967  23.115   3.244  0.00  0.00    +0.095 C 
ATOM      8  C   UNL     1     -35.650  23.158   5.126  0.00  0.00    +0.093 C 
ATOM      9  C   UNL     1     -35.183  22.449   6.355  0.00  0.00    +0.055 C 
BRANCH   6  10
ATOM     10  O   UNL     1     -34.282  25.047   5.645  0.00  0.00    -0.505 OA
ATOM     11  H   UNL     1     -34.394  25.952   5.859  0.00  0.00    +0.292 HD
ENDBRANCH   6  10
BRANCH   5  12
ATOM     12  C   UNL     1     -35.159  26.409   3.313  0.00  0.00    +0.166 C 
BRANCH  12  13
ATOM     13  O   UNL     1     -35.572  27.332   4.311  0.00  0.00    -0.377 OA
ATOM     14  H   UNL     1     -36.503  27.567   4.169  0.00  0.00    +0.211 HD
ENDBRANCH  12  13
ENDBRANCH   5  12
ENDBRANCH   2   4
ENDBRANCH   1   2
BRANCH   1  15
ATOM     15  C   UNL     1     -36.479  22.877  -0.021  0.00  0.00    +0.085 C 
BRANCH  15  17
ATOM     16  N   UNL     1     -32.910  21.702  -0.199  0.00  0.00    -0.245 NA
ATOM     17  C   UNL     1     -35.278  21.983   0.122  0.00  0.00    +0.009 C 
ATOM     18  C   UNL     1     -35.380  20.712   0.657  0.00  0.00    +0.040 C 
ATOM     19  C   UNL     1     -34.238  19.928   0.766  0.00  0.00    +0.145 C 
ATOM     20  C   UNL     1     -34.042  22.436  -0.289  0.00  0.00    +0.095 C 
ATOM     21  C   UNL     1     -33.038  20.464   0.328  0.00  0.00    +0.093 C 
ATOM     22  C   UNL     1     -31.781  19.664   0.422  0.00  0.00    +0.055 C 
BRANCH  19  23
ATOM     23  O   UNL     1     -34.297  18.674   1.288  0.00  0.00    -0.505 OA
ATOM     24  H   UNL     1     -34.958  18.460   1.917  0.00  0.00    +0.292 HD
ENDBRANCH  19  23
BRANCH  18  25
ATOM     25  C   UNL     1     -36.700  20.180   1.116  0.00  0.00    +0.166 C 
BRANCH  25  26
ATOM     26  O   UNL     1     -36.609  19.826   2.490  0.00  0.00    -0.377 OA
ATOM     27  H   UNL     1     -35.902  20.341   2.911  0.00  0.00    +0.211 HD
ENDBRANCH  25  26
ENDBRANCH  18  25
ENDBRANCH  15  17
ENDBRANCH   1  15
TORSDOF 10
ENDMDL
MODEL 6
REMARK VINA RESULT:      -5.2      1.237      6.531
REMARK  Name = 200354
REMARK  10 active torsions:
REMARK  status: ('A' for Active; 'I' for Inactive)
REMARK    1  A    between atoms: S_1  and  C_2
REMARK    2  A    between atoms: S_1  and  C_15
REMARK    3  A    between atoms: C_2  and  C_4
REMARK    4  A    between atoms: C_5  and  C_12
REMARK    5  A    between atoms: C_6  and  O_10
REMARK    6  A    between atoms: C_12  and  O_13
REMARK    7  A    between atoms: C_15  and  C_17
REMARK    8  A    between atoms: C_18  and  C_25
REMARK    9  A    between atoms: C_19  and  O_23
REMARK   10  A    between atoms: C_25  and  O_26
REMARK                            x       y       z     vdW  Elec       q    Type
REMARK                         _______ _______ _______ _____ _____    ______ ____
ROOT
ATOM      1  S   UNL     1     -37.975  26.254   2.179  0.00  0.00    -0.131 S 
ENDROOT
BRANCH   1   2
ATOM      2  C   UNL     1     -36.375  26.583   1.376  0.00  0.00    +0.085 C 
BRANCH   2   4
ATOM      3  N   UNL     1     -35.801  30.300   1.418  0.00  0.00    -0.245 NA
ATOM      4  C   UNL     1     -35.807  27.906   1.755  0.00  0.00    +0.009 C 
ATOM      5  C   UNL     1     -34.819  28.034   2.726  0.00  0.00    +0.040 C 
ATOM      6  C   UNL     1     -34.321  29.293   3.042  0.00  0.00    +0.145 C 
ATOM      7  C   UNL     1     -36.261  29.061   1.137  0.00  0.00    +0.095 C 
ATOM      8  C   UNL     1     -34.841  30.384   2.366  0.00  0.00    +0.093 C 
ATOM      9  C   UNL     1     -34.344  31.760   2.668  0.00  0.00    +0.055 C 
BRANCH   6  10
ATOM     10  O   UNL     1     -33.356  29.447   3.986  0.00  0.00    -0.505 OA
ATOM     11  H   UNL     1     -32.512  29.061   3.861  0.00  0.00    +0.292 HD
ENDBRANCH   6  10
BRANCH   5  12
ATOM     12  C   UNL     1     -34.291  26.824   3.427  0.00  0.00    +0.166 C 
BRANCH  12  13
ATOM     13  O   UNL     1     -34.629  26.895   4.805  0.00  0.00    -0.377 OA
ATOM     14  H   UNL     1     -35.537  26.577   4.933  0.00  0.00    +0.211 HD
ENDBRANCH  12  13
ENDBRANCH   5  12
ENDBRANCH   2   4
ENDBRANCH   1   2
BRANCH   1  15
ATOM     15  C   UNL     1     -37.974  24.454   2.028  0.00  0.00    +0.085 C 
BRANCH  15  17
ATOM     16  N   UNL     1     -36.154  23.981   5.286  0.00  0.00    -0.245 NA
ATOM     17  C   UNL     1     -37.165  23.794   3.110  0.00  0.00    +0.009 C 
ATOM     18  C   UNL     1     -36.701  22.498   2.980  0.00  0.00    +0.040 C 
ATOM     19  C   UNL     1     -35.957  21.937   4.012  0.00  0.00    +0.145 C 
ATOM     20  C   UNL     1     -36.875  24.494   4.263  0.00  0.00    +0.095 C 
ATOM     21  C   UNL     1     -35.714  22.712   5.133  0.00  0.00    +0.093 C 
ATOM     22  C   UNL     1     -34.920  22.158   6.271  0.00  0.00    +0.055 C 
BRANCH  19  23
ATOM     23  O   UNL     1     -35.485  20.665   3.923  0.00  0.00    -0.505 OA
ATOM     24  H   UNL     1     -36.016  19.948   4.208  0.00  0.00    +0.292 HD
ENDBRANCH  19  23
BRANCH  18  25
ATOM     25  C   UNL     1     -36.992  21.702   1.749  0.00  0.00    +0.166 C 
BRANCH  25  26
ATOM     26  O   UNL     1     -37.851  20.620   2.083  0.00  0.00    -0.377 OA
ATOM     27  H   UNL     1     -38.691  20.968   2.425  0.00  0.00    +0.211 HD
ENDBRANCH  25  26
ENDBRANCH  18  25
ENDBRANCH  15  17
ENDBRANCH   1  15
TORSDOF 10
ENDMDL
MODEL 7
REMARK VINA RESULT:      -5.2      3.593      5.973
REMARK  Name = 200354
REMARK  10 active torsions:
REMARK  status: ('A' for Active; 'I' for Inactive)
REMARK    1  A    between atoms: S_1  and  C_2
REMARK    2  A    between atoms: S_1  and  C_15
REMARK    3  A    between atoms: C_2  and  C_4
REMARK    4  A    between atoms: C_5  and  C_12
REMARK    5  A    between atoms: C_6  and  O_10
REMARK    6  A    between atoms: C_12  and  O_13
REMARK    7  A    between atoms: C_15  and  C_17
REMARK    8  A    between atoms: C_18  and  C_25
REMARK    9  A    between atoms: C_19  and  O_23
REMARK   10  A    between atoms: C_25  and  O_26
REMARK                            x       y       z     vdW  Elec       q    Type
REMARK                         _______ _______ _______ _____ _____    ______ ____
ROOT
ATOM      1  S   UNL     1     -36.740  24.033  -0.393  0.00  0.00    -0.131 S 
ENDROOT
BRANCH   1   2
ATOM      2  C   UNL     1     -38.253  23.381   0.380  0.00  0.00    +0.085 C 
BRANCH   2   4
ATOM      3  N   UNL     1     -40.763  26.156  -0.009  0.00  0.00    -0.245 NA
ATOM      4  C   UNL     1     -39.218  24.456   0.744  0.00  0.00    +0.009 C 
ATOM      5  C   UNL     1     -39.495  24.782   2.068  0.00  0.00    +0.040 C 
ATOM      6  C   UNL     1     -40.403  25.794   2.353  0.00  0.00    +0.145 C 
ATOM      7  C   UNL     1     -39.874  25.166  -0.249  0.00  0.00    +0.095 C 
ATOM      8  C   UNL     1     -41.005  26.445   1.289  0.00  0.00    +0.093 C 
ATOM      9  C   UNL     1     -41.990  27.540   1.539  0.00  0.00    +0.055 C 
BRANCH   6  10
ATOM     10  O   UNL     1     -40.692  26.134   3.637  0.00  0.00    -0.505 OA
ATOM     11  H   UNL     1     -40.239  26.843   4.048  0.00  0.00    +0.292 HD
ENDBRANCH   6  10
BRANCH   5  12
ATOM     12  C   UNL     1     -38.818  24.049   3.181  0.00  0.00    +0.166 C 
BRANCH  12  13
ATOM     13  O   UNL     1     -38.219  24.987   4.065  0.00  0.00    -0.377 OA
ATOM     14  H   UNL     1     -38.657  25.848   3.969  0.00  0.00    +0.211 HD
ENDBRANCH  12  13
ENDBRANCH   5  12
ENDBRANCH   2   4
ENDBRANCH   1   2
BRANCH   1  15
ATOM     15  C   UNL     1     -35.573  22.818   0.261  0.00  0.00    +0.085 C 
BRANCH  15  17
ATOM     16  N   UNL     1     -35.177  24.243   3.720  0.00  0.00    -0.245 NA
ATOM     17  C   UNL     1     -35.472  22.879   1.760  0.00  0.00    +0.009 C 
ATOM     18  C   UNL     1     -35.568  21.740   2.539  0.00  0.00    +0.040 C 
ATOM     19  C   UNL     1     -35.468  21.852   3.921  0.00  0.00    +0.145 C 
ATOM     20  C   UNL     1     -35.279  24.095   2.380  0.00  0.00    +0.095 C 
ATOM     21  C   UNL     1     -35.274  23.114   4.457  0.00  0.00    +0.093 C 
ATOM     22  C   UNL     1     -35.160  23.291   5.936  0.00  0.00    +0.055 C 
BRANCH  19  23
ATOM     23  O   UNL     1     -35.559  20.756   4.720  0.00  0.00    -0.505 OA
ATOM     24  H   UNL     1     -36.060  20.794   5.511  0.00  0.00    +0.292 HD
ENDBRANCH  19  23
BRANCH  18  25
ATOM     25  C   UNL     1     -35.779  20.400   1.910  0.00  0.00    +0.166 C 
BRANCH  25  26
ATOM     26  O   UNL     1     -36.849  19.737   2.569  0.00  0.00    -0.377 OA
ATOM     27  H   UNL     1     -37.590  19.625   1.952  0.00  0.00    +0.211 HD
ENDBRANCH  25  26
ENDBRANCH  18  25
ENDBRANCH  15  17
ENDBRANCH   1  15
TORSDOF 10
ENDMDL
MODEL 8
REMARK VINA RESULT:      -5.2      2.710      5.922
REMARK  Name = 200354
REMARK  10 active torsions:
REMARK  status: ('A' for Active; 'I' for Inactive)
REMARK    1  A    between atoms: S_1  and  C_2
REMARK    2  A    between atoms: S_1  and  C_15
REMARK    3  A    between atoms: C_2  and  C_4
REMARK    4  A    between atoms: C_5  and  C_12
REMARK    5  A    between atoms: C_6  and  O_10
REMARK    6  A    between atoms: C_12  and  O_13
REMARK    7  A    between atoms: C_15  and  C_17
REMARK    8  A    between atoms: C_18  and  C_25
REMARK    9  A    between atoms: C_19  and  O_23
REMARK   10  A    between atoms: C_25  and  O_26
REMARK                            x       y       z     vdW  Elec       q    Type
REMARK                         _______ _______ _______ _____ _____    ______ ____
ROOT
ATOM      1  S   UNL     1     -36.524  25.318  -0.031  0.00  0.00    -0.131 S 
ENDROOT
BRANCH   1   2
ATOM      2  C   UNL     1     -37.386  26.021   1.410  0.00  0.00    +0.085 C 
BRANCH   2   4
ATOM      3  N   UNL     1     -34.758  27.053   3.895  0.00  0.00    -0.245 NA
ATOM      4  C   UNL     1     -36.544  26.016   2.638  0.00  0.00    +0.009 C 
ATOM      5  C   UNL     1     -36.701  25.061   3.637  0.00  0.00    +0.040 C 
ATOM      6  C   UNL     1     -35.888  25.101   4.763  0.00  0.00    +0.145 C 
ATOM      7  C   UNL     1     -35.566  26.983   2.814  0.00  0.00    +0.095 C 
ATOM      8  C   UNL     1     -34.941  26.108   4.844  0.00  0.00    +0.093 C 
ATOM      9  C   UNL     1     -34.041  26.197   6.033  0.00  0.00    +0.055 C 
BRANCH   6  10
ATOM     10  O   UNL     1     -36.021  24.180   5.754  0.00  0.00    -0.505 OA
ATOM     11  H   UNL     1     -36.873  23.940   6.060  0.00  0.00    +0.292 HD
ENDBRANCH   6  10
BRANCH   5  12
ATOM     12  C   UNL     1     -37.739  23.994   3.501  0.00  0.00    +0.166 C 
BRANCH  12  13
ATOM     13  O   UNL     1     -37.152  22.730   3.775  0.00  0.00    -0.377 OA
ATOM     14  H   UNL     1     -37.793  22.027   3.584  0.00  0.00    +0.211 HD
ENDBRANCH  12  13
ENDBRANCH   5  12
ENDBRANCH   2   4
ENDBRANCH   1   2
BRANCH   1  15
ATOM     15  C   UNL     1     -37.406  23.743  -0.114  0.00  0.00    +0.085 C 
BRANCH  15  17
ATOM     16  N   UNL     1     -34.331  21.727   0.684  0.00  0.00    -0.245 NA
ATOM     17  C   UNL     1     -36.550  22.590   0.334  0.00  0.00    +0.009 C 
ATOM     18  C   UNL     1     -37.106  21.404   0.778  0.00  0.00    +0.040 C 
ATOM     19  C   UNL     1     -36.268  20.370   1.180  0.00  0.00    +0.145 C 
ATOM     20  C   UNL     1     -35.177  22.711   0.301  0.00  0.00    +0.095 C 
ATOM     21  C   UNL     1     -34.901  20.580   1.114  0.00  0.00    +0.093 C 
ATOM     22  C   UNL     1     -33.956  19.502   1.534  0.00  0.00    +0.055 C 
BRANCH  19  23
ATOM     23  O   UNL     1     -36.777  19.191   1.624  0.00  0.00    -0.505 OA
ATOM     24  H   UNL     1     -37.649  19.155   1.964  0.00  0.00    +0.292 HD
ENDBRANCH  19  23
BRANCH  18  25
ATOM     25  C   UNL     1     -38.590  21.229   0.831  0.00  0.00    +0.166 C 
BRANCH  25  26
ATOM     26  O   UNL     1     -38.986  20.993   2.175  0.00  0.00    -0.377 OA
ATOM     27  H   UNL     1     -38.210  21.050   2.756  0.00  0.00    +0.211 HD
ENDBRANCH  25  26
ENDBRANCH  18  25
ENDBRANCH  15  17
ENDBRANCH   1  15
TORSDOF 10
ENDMDL
MODEL 9
REMARK VINA RESULT:      -5.2      3.137      4.750
REMARK  Name = 200354
REMARK  10 active torsions:
REMARK  status: ('A' for Active; 'I' for Inactive)
REMARK    1  A    between atoms: S_1  and  C_2
REMARK    2  A    between atoms: S_1  and  C_15
REMARK    3  A    between atoms: C_2  and  C_4
REMARK    4  A    between atoms: C_5  and  C_12
REMARK    5  A    between atoms: C_6  and  O_10
REMARK    6  A    between atoms: C_12  and  O_13
REMARK    7  A    between atoms: C_15  and  C_17
REMARK    8  A    between atoms: C_18  and  C_25
REMARK    9  A    between atoms: C_19  and  O_23
REMARK   10  A    between atoms: C_25  and  O_26
REMARK                            x       y       z     vdW  Elec       q    Type
REMARK                         _______ _______ _______ _____ _____    ______ ____
ROOT
ATOM      1  S   UNL     1     -35.856  26.218   1.214  0.00  0.00    -0.131 S 
ENDROOT
BRANCH   1   2
ATOM      2  C   UNL     1     -34.634  24.886   1.427  0.00  0.00    +0.085 C 
BRANCH   2   4
ATOM      3  N   UNL     1     -34.826  24.083   5.097  0.00  0.00    -0.245 NA
ATOM      4  C   UNL     1     -34.848  24.109   2.679  0.00  0.00    +0.009 C 
ATOM      5  C   UNL     1     -35.243  22.776   2.662  0.00  0.00    +0.040 C 
ATOM      6  C   UNL     1     -35.429  22.095   3.860  0.00  0.00    +0.145 C 
ATOM      7  C   UNL     1     -34.656  24.712   3.913  0.00  0.00    +0.095 C 
ATOM      8  C   UNL     1     -35.210  22.788   5.039  0.00  0.00    +0.093 C 
ATOM      9  C   UNL     1     -35.396  22.105   6.355  0.00  0.00    +0.055 C 
BRANCH   6  10
ATOM     10  O   UNL     1     -35.814  20.792   3.872  0.00  0.00    -0.505 OA
ATOM     11  H   UNL     1     -36.162  20.399   3.096  0.00  0.00    +0.292 HD
ENDBRANCH   6  10
BRANCH   5  12
ATOM     12  C   UNL     1     -35.466  22.073   1.361  0.00  0.00    +0.166 C 
BRANCH  12  13
ATOM     13  O   UNL     1     -36.793  21.567   1.323  0.00  0.00    -0.377 OA
ATOM     14  H   UNL     1     -37.421  22.306   1.289  0.00  0.00    +0.211 HD
ENDBRANCH  12  13
ENDBRANCH   5  12
ENDBRANCH   2   4
ENDBRANCH   1   2
BRANCH   1  15
ATOM     15  C   UNL     1     -37.270  25.197   0.743  0.00  0.00    +0.085 C 
BRANCH  15  17
ATOM     16  N   UNL     1     -40.437  27.225   0.848  0.00  0.00    -0.245 NA
ATOM     17  C   UNL     1     -38.570  25.761   1.248  0.00  0.00    +0.009 C 
ATOM     18  C   UNL     1     -39.091  25.393   2.475  0.00  0.00    +0.040 C 
ATOM     19  C   UNL     1     -40.296  25.945   2.894  0.00  0.00    +0.145 C 
ATOM     20  C   UNL     1     -39.263  26.667   0.474  0.00  0.00    +0.095 C 
ATOM     21  C   UNL     1     -40.924  26.848   2.052  0.00  0.00    +0.093 C 
ATOM     22  C   UNL     1     -42.221  27.471   2.453  0.00  0.00    +0.055 C 
BRANCH  19  23
ATOM     23  O   UNL     1     -40.841  25.608   4.093  0.00  0.00    -0.505 OA
ATOM     24  H   UNL     1     -40.293  25.520   4.848  0.00  0.00    +0.292 HD
ENDBRANCH  19  23
BRANCH  18  25
ATOM     25  C   UNL     1     -38.374  24.413   3.348  0.00  0.00    +0.166 C 
BRANCH  25  26
ATOM     26  O   UNL     1     -37.855  25.091   4.485  0.00  0.00    -0.377 OA
ATOM     27  H   UNL     1     -37.973  26.047   4.373  0.00  0.00    +0.211 HD
ENDBRANCH  25  26
ENDBRANCH  18  25
ENDBRANCH  15  17
ENDBRANCH   1  15
TORSDOF 10
ENDMDL
