MODEL 1
REMARK VINA RESULT:      -5.3      0.000      0.000
REMARK  Name = 54702628
REMARK  17 active torsions:
REMARK  status: ('A' for Active; 'I' for Inactive)
REMARK    1  A    between atoms: O_1  and  C_3
REMARK    2  A    between atoms: O_1  and  C_15
REMARK    3  A    between atoms: C_3  and  C_4
REMARK    4  A    between atoms: C_4  and  C_5
REMARK    5  A    between atoms: C_5  and  C_6
REMARK    6  A    between atoms: C_6  and  C_7
REMARK    7  A    between atoms: C_7  and  C_8
REMARK    8  A    between atoms: C_8  and  C_9
REMARK    9  A    between atoms: C_9  and  C_10
REMARK   10  A    between atoms: C_10  and  C_11
REMARK   11  A    between atoms: C_11  and  C_12
REMARK   12  A    between atoms: C_12  and  C_13
REMARK   13  A    between atoms: C_15  and  C_16
REMARK   14  A    between atoms: C_16  and  C_19
REMARK   15  A    between atoms: C_16  and  O_27
REMARK   16  A    between atoms: C_20  and  O_23
REMARK   17  A    between atoms: C_21  and  O_25
REMARK                            x       y       z     vdW  Elec       q    Type
REMARK                         _______ _______ _______ _____ _____    ______ ____
ROOT
ATOM      1  O   UNL     1     -35.924  26.375   3.751  0.00  0.00    -0.446 OA
ENDROOT
BRANCH   1   3
ATOM      2  O   UNL     1     -34.182  26.875   5.176  0.00  0.00    -0.250 OA
ATOM      3  C   UNL     1     -35.146  26.193   4.858  0.00  0.00    +0.317 C 
BRANCH   3   4
ATOM      4  C   UNL     1     -35.647  24.985   5.618  0.00  0.00    +0.110 C 
BRANCH   4   5
ATOM      5  C   UNL     1     -34.689  23.796   5.559  0.00  0.00    +0.012 C 
BRANCH   5   6
ATOM      6  C   UNL     1     -35.334  22.498   6.055  0.00  0.00    +0.001 C 
BRANCH   6   7
ATOM      7  C   UNL     1     -35.282  21.408   4.983  0.00  0.00    +0.000 C 
BRANCH   7   8
ATOM      8  C   UNL     1     -35.546  21.984   3.590  0.00  0.00    +0.000 C 
BRANCH   8   9
ATOM      9  C   UNL     1     -35.919  20.882   2.597  0.00  0.00    +0.000 C 
BRANCH   9  10
ATOM     10  C   UNL     1     -34.719  20.059   2.117  0.00  0.00    +0.000 C 
BRANCH  10  11
ATOM     11  C   UNL     1     -34.059  20.529   0.816  0.00  0.00    +0.000 C 
BRANCH  11  12
ATOM     12  C   UNL     1     -32.672  19.925   0.584  0.00  0.00    +0.000 C 
BRANCH  12  13
ATOM     13  C   UNL     1     -32.518  18.519   1.168  0.00  0.00    +0.000 C 
ATOM     14  C   UNL     1     -31.151  17.900   0.916  0.00  0.00    +0.000 C 
ENDBRANCH  12  13
ENDBRANCH  11  12
ENDBRANCH  10  11
ENDBRANCH   9  10
ENDBRANCH   8   9
ENDBRANCH   7   8
ENDBRANCH   6   7
ENDBRANCH   5   6
ENDBRANCH   4   5
ENDBRANCH   3   4
ENDBRANCH   1   3
BRANCH   1  15
ATOM     15  C   UNL     1     -37.085  25.541   3.668  0.00  0.00    +0.242 C 
BRANCH  15  16
ATOM     16  C   UNL     1     -38.066  26.156   2.678  0.00  0.00    +0.202 C 
BRANCH  16  19
ATOM     17  O   UNL     1     -38.129  23.857   1.963  0.00  0.00    -0.436 OA
ATOM     18  O   UNL     1     -39.415  21.951   2.134  0.00  0.00    -0.241 OA
ATOM     19  C   UNL     1     -38.354  25.212   1.521  0.00  0.00    +0.258 C 
ATOM     20  C   UNL     1     -39.768  25.190   1.101  0.00  0.00    +0.195 C 
ATOM     21  C   UNL     1     -40.317  23.992   1.277  0.00  0.00    +0.244 C 
ATOM     22  C   UNL     1     -39.279  23.125   1.837  0.00  0.00    +0.379 C 
BRANCH  20  23
ATOM     23  O   UNL     1     -40.382  26.287   0.573  0.00  0.00    -0.504 OA
ATOM     24  H   UNL     1     -40.746  26.939   1.140  0.00  0.00    +0.292 HD
ENDBRANCH  20  23
BRANCH  21  25
ATOM     25  O   UNL     1     -41.586  23.597   0.998  0.00  0.00    -0.499 OA
ATOM     26  H   UNL     1     -41.969  22.883   1.468  0.00  0.00    +0.293 HD
ENDBRANCH  21  25
ENDBRANCH  16  19
BRANCH  16  27
ATOM     27  O   UNL     1     -39.286  26.428   3.366  0.00  0.00    -0.377 OA
ATOM     28  H   UNL     1     -39.092  26.885   4.200  0.00  0.00    +0.211 HD
ENDBRANCH  16  27
ENDBRANCH  15  16
ENDBRANCH   1  15
TORSDOF 17
ENDMDL
MODEL 2
REMARK VINA RESULT:      -5.3      4.555      7.994
REMARK  Name = 54702628
REMARK  17 active torsions:
REMARK  status: ('A' for Active; 'I' for Inactive)
REMARK    1  A    between atoms: O_1  and  C_3
REMARK    2  A    between atoms: O_1  and  C_15
REMARK    3  A    between atoms: C_3  and  C_4
REMARK    4  A    between atoms: C_4  and  C_5
REMARK    5  A    between atoms: C_5  and  C_6
REMARK    6  A    between atoms: C_6  and  C_7
REMARK    7  A    between atoms: C_7  and  C_8
REMARK    8  A    between atoms: C_8  and  C_9
REMARK    9  A    between atoms: C_9  and  C_10
REMARK   10  A    between atoms: C_10  and  C_11
REMARK   11  A    between atoms: C_11  and  C_12
REMARK   12  A    between atoms: C_12  and  C_13
REMARK   13  A    between atoms: C_15  and  C_16
REMARK   14  A    between atoms: C_16  and  C_19
REMARK   15  A    between atoms: C_16  and  O_27
REMARK   16  A    between atoms: C_20  and  O_23
REMARK   17  A    between atoms: C_21  and  O_25
REMARK                            x       y       z     vdW  Elec       q    Type
REMARK                         _______ _______ _______ _____ _____    ______ ____
ROOT
ATOM      1  O   UNL     1     -33.614  27.302   4.755  0.00  0.00    -0.446 OA
ENDROOT
BRANCH   1   3
ATOM      2  O   UNL     1     -34.319  25.630   6.179  0.00  0.00    -0.250 OA
ATOM      3  C   UNL     1     -33.619  26.602   5.927  0.00  0.00    +0.317 C 
BRANCH   3   4
ATOM      4  C   UNL     1     -32.639  27.242   6.886  0.00  0.00    +0.110 C 
BRANCH   4   5
ATOM      5  C   UNL     1     -31.701  28.242   6.211  0.00  0.00    +0.012 C 
BRANCH   5   6
ATOM      6  C   UNL     1     -31.695  29.604   6.911  0.00  0.00    +0.001 C 
BRANCH   6   7
ATOM      7  C   UNL     1     -31.881  30.744   5.907  0.00  0.00    +0.000 C 
BRANCH   7   8
ATOM      8  C   UNL     1     -32.069  30.208   4.485  0.00  0.00    +0.000 C 
BRANCH   8   9
ATOM      9  C   UNL     1     -33.258  30.878   3.795  0.00  0.00    +0.000 C 
BRANCH   9  10
ATOM     10  C   UNL     1     -32.872  31.661   2.535  0.00  0.00    +0.000 C 
BRANCH  10  11
ATOM     11  C   UNL     1     -32.179  33.008   2.766  0.00  0.00    +0.000 C 
BRANCH  11  12
ATOM     12  C   UNL     1     -32.991  34.204   2.264  0.00  0.00    +0.000 C 
BRANCH  12  13
ATOM     13  C   UNL     1     -34.195  33.804   1.408  0.00  0.00    +0.000 C 
ATOM     14  C   UNL     1     -35.285  34.863   1.354  0.00  0.00    +0.000 C 
ENDBRANCH  12  13
ENDBRANCH  11  12
ENDBRANCH  10  11
ENDBRANCH   9  10
ENDBRANCH   8   9
ENDBRANCH   7   8
ENDBRANCH   6   7
ENDBRANCH   5   6
ENDBRANCH   4   5
ENDBRANCH   3   4
ENDBRANCH   1   3
BRANCH   1  15
ATOM     15  C   UNL     1     -33.698  26.512   3.564  0.00  0.00    +0.242 C 
BRANCH  15  16
ATOM     16  C   UNL     1     -34.881  26.992   2.734  0.00  0.00    +0.202 C 
BRANCH  16  19
ATOM     17  O   UNL     1     -35.444  24.686   3.139  0.00  0.00    -0.436 OA
ATOM     18  O   UNL     1     -36.550  23.339   4.650  0.00  0.00    -0.241 OA
ATOM     19  C   UNL     1     -35.793  25.838   2.344  0.00  0.00    +0.258 C 
ATOM     20  C   UNL     1     -37.213  26.053   2.682  0.00  0.00    +0.195 C 
ATOM     21  C   UNL     1     -37.651  25.161   3.564  0.00  0.00    +0.244 C 
ATOM     22  C   UNL     1     -36.525  24.279   3.875  0.00  0.00    +0.379 C 
BRANCH  20  23
ATOM     23  O   UNL     1     -37.950  27.045   2.105  0.00  0.00    -0.504 OA
ATOM     24  H   UNL     1     -37.610  27.513   1.367  0.00  0.00    +0.292 HD
ENDBRANCH  20  23
BRANCH  21  25
ATOM     25  O   UNL     1     -38.895  25.044   4.097  0.00  0.00    -0.499 OA
ATOM     26  H   UNL     1     -39.649  25.110   3.545  0.00  0.00    +0.293 HD
ENDBRANCH  21  25
ENDBRANCH  16  19
BRANCH  16  27
ATOM     27  O   UNL     1     -35.627  27.925   3.514  0.00  0.00    -0.377 OA
ATOM     28  H   UNL     1     -36.336  28.305   2.973  0.00  0.00    +0.211 HD
ENDBRANCH  16  27
ENDBRANCH  15  16
ENDBRANCH   1  15
TORSDOF 17
ENDMDL
MODEL 3
REMARK VINA RESULT:      -5.2      4.277      8.473
REMARK  Name = 54702628
REMARK  17 active torsions:
REMARK  status: ('A' for Active; 'I' for Inactive)
REMARK    1  A    between atoms: O_1  and  C_3
REMARK    2  A    between atoms: O_1  and  C_15
REMARK    3  A    between atoms: C_3  and  C_4
REMARK    4  A    between atoms: C_4  and  C_5
REMARK    5  A    between atoms: C_5  and  C_6
REMARK    6  A    between atoms: C_6  and  C_7
REMARK    7  A    between atoms: C_7  and  C_8
REMARK    8  A    between atoms: C_8  and  C_9
REMARK    9  A    between atoms: C_9  and  C_10
REMARK   10  A    between atoms: C_10  and  C_11
REMARK   11  A    between atoms: C_11  and  C_12
REMARK   12  A    between atoms: C_12  and  C_13
REMARK   13  A    between atoms: C_15  and  C_16
REMARK   14  A    between atoms: C_16  and  C_19
REMARK   15  A    between atoms: C_16  and  O_27
REMARK   16  A    between atoms: C_20  and  O_23
REMARK   17  A    between atoms: C_21  and  O_25
REMARK                            x       y       z     vdW  Elec       q    Type
REMARK                         _______ _______ _______ _____ _____    ______ ____
ROOT
ATOM      1  O   UNL     1     -33.033  28.063   5.411  0.00  0.00    -0.446 OA
ENDROOT
BRANCH   1   3
ATOM      2  O   UNL     1     -32.703  26.555   3.698  0.00  0.00    -0.250 OA
ATOM      3  C   UNL     1     -33.242  26.891   4.744  0.00  0.00    +0.317 C 
BRANCH   3   4
ATOM      4  C   UNL     1     -34.280  26.080   5.489  0.00  0.00    +0.110 C 
BRANCH   4   5
ATOM      5  C   UNL     1     -34.324  24.614   5.057  0.00  0.00    +0.012 C 
BRANCH   5   6
ATOM      6  C   UNL     1     -35.611  23.912   5.498  0.00  0.00    +0.001 C 
BRANCH   6   7
ATOM      7  C   UNL     1     -35.734  22.527   4.859  0.00  0.00    +0.000 C 
BRANCH   7   8
ATOM      8  C   UNL     1     -35.335  22.559   3.382  0.00  0.00    +0.000 C 
BRANCH   8   9
ATOM      9  C   UNL     1     -36.240  21.653   2.545  0.00  0.00    +0.000 C 
BRANCH   9  10
ATOM     10  C   UNL     1     -37.684  22.155   2.446  0.00  0.00    +0.000 C 
BRANCH  10  11
ATOM     11  C   UNL     1     -37.861  23.608   1.991  0.00  0.00    +0.000 C 
BRANCH  11  12
ATOM     12  C   UNL     1     -38.453  24.516   3.072  0.00  0.00    +0.000 C 
BRANCH  12  13
ATOM     13  C   UNL     1     -37.895  25.941   3.040  0.00  0.00    +0.000 C 
ATOM     14  C   UNL     1     -36.492  26.033   2.461  0.00  0.00    +0.000 C 
ENDBRANCH  12  13
ENDBRANCH  11  12
ENDBRANCH  10  11
ENDBRANCH   9  10
ENDBRANCH   8   9
ENDBRANCH   7   8
ENDBRANCH   6   7
ENDBRANCH   5   6
ENDBRANCH   4   5
ENDBRANCH   3   4
ENDBRANCH   1   3
BRANCH   1  15
ATOM     15  C   UNL     1     -32.084  28.004   6.481  0.00  0.00    +0.242 C 
BRANCH  15  16
ATOM     16  C   UNL     1     -31.523  29.399   6.722  0.00  0.00    +0.202 C 
BRANCH  16  19
ATOM     17  O   UNL     1     -29.220  29.557   7.410  0.00  0.00    -0.436 OA
ATOM     18  O   UNL     1     -27.491  28.267   8.223  0.00  0.00    -0.241 OA
ATOM     19  C   UNL     1     -30.080  29.508   6.253  0.00  0.00    +0.258 C 
ATOM     20  C   UNL     1     -29.592  28.319   5.529  0.00  0.00    +0.195 C 
ATOM     21  C   UNL     1     -28.587  27.730   6.168  0.00  0.00    +0.244 C 
ATOM     22  C   UNL     1     -28.340  28.508   7.384  0.00  0.00    +0.379 C 
BRANCH  20  23
ATOM     23  O   UNL     1     -30.124  27.933   4.334  0.00  0.00    -0.504 OA
ATOM     24  H   UNL     1     -31.011  27.632   4.291  0.00  0.00    +0.292 HD
ENDBRANCH  20  23
BRANCH  21  25
ATOM     25  O   UNL     1     -27.887  26.626   5.802  0.00  0.00    -0.499 OA
ATOM     26  H   UNL     1     -27.375  26.163   6.437  0.00  0.00    +0.293 HD
ENDBRANCH  21  25
ENDBRANCH  16  19
BRANCH  16  27
ATOM     27  O   UNL     1     -32.317  30.334   5.994  0.00  0.00    -0.377 OA
ATOM     28  H   UNL     1     -31.770  31.094   5.739  0.00  0.00    +0.211 HD
ENDBRANCH  16  27
ENDBRANCH  15  16
ENDBRANCH   1  15
TORSDOF 17
ENDMDL
MODEL 4
REMARK VINA RESULT:      -5.2      4.138      7.740
REMARK  Name = 54702628
REMARK  17 active torsions:
REMARK  status: ('A' for Active; 'I' for Inactive)
REMARK    1  A    between atoms: O_1  and  C_3
REMARK    2  A    between atoms: O_1  and  C_15
REMARK    3  A    between atoms: C_3  and  C_4
REMARK    4  A    between atoms: C_4  and  C_5
REMARK    5  A    between atoms: C_5  and  C_6
REMARK    6  A    between atoms: C_6  and  C_7
REMARK    7  A    between atoms: C_7  and  C_8
REMARK    8  A    between atoms: C_8  and  C_9
REMARK    9  A    between atoms: C_9  and  C_10
REMARK   10  A    between atoms: C_10  and  C_11
REMARK   11  A    between atoms: C_11  and  C_12
REMARK   12  A    between atoms: C_12  and  C_13
REMARK   13  A    between atoms: C_15  and  C_16
REMARK   14  A    between atoms: C_16  and  C_19
REMARK   15  A    between atoms: C_16  and  O_27
REMARK   16  A    between atoms: C_20  and  O_23
REMARK   17  A    between atoms: C_21  and  O_25
REMARK                            x       y       z     vdW  Elec       q    Type
REMARK                         _______ _______ _______ _____ _____    ______ ____
ROOT
ATOM      1  O   UNL     1     -35.356  21.410   4.305  0.00  0.00    -0.446 OA
ENDROOT
BRANCH   1   3
ATOM      2  O   UNL     1     -35.973  22.107   6.415  0.00  0.00    -0.250 OA
ATOM      3  C   UNL     1     -35.473  22.318   5.318  0.00  0.00    +0.317 C 
BRANCH   3   4
ATOM      4  C   UNL     1     -34.915  23.646   4.856  0.00  0.00    +0.110 C 
BRANCH   4   5
ATOM      5  C   UNL     1     -35.567  24.845   5.543  0.00  0.00    +0.012 C 
BRANCH   5   6
ATOM      6  C   UNL     1     -34.586  26.003   5.757  0.00  0.00    +0.001 C 
BRANCH   6   7
ATOM      7  C   UNL     1     -34.109  26.578   4.422  0.00  0.00    +0.000 C 
BRANCH   7   8
ATOM      8  C   UNL     1     -32.872  27.460   4.606  0.00  0.00    +0.000 C 
BRANCH   8   9
ATOM      9  C   UNL     1     -32.488  27.572   6.083  0.00  0.00    +0.000 C 
BRANCH   9  10
ATOM     10  C   UNL     1     -31.309  28.517   6.338  0.00  0.00    +0.000 C 
BRANCH  10  11
ATOM     11  C   UNL     1     -31.671  29.972   6.659  0.00  0.00    +0.000 C 
BRANCH  11  12
ATOM     12  C   UNL     1     -31.804  30.855   5.416  0.00  0.00    +0.000 C 
BRANCH  12  13
ATOM     13  C   UNL     1     -30.566  30.825   4.516  0.00  0.00    +0.000 C 
ATOM     14  C   UNL     1     -29.313  31.371   5.183  0.00  0.00    +0.000 C 
ENDBRANCH  12  13
ENDBRANCH  11  12
ENDBRANCH  10  11
ENDBRANCH   9  10
ENDBRANCH   8   9
ENDBRANCH   7   8
ENDBRANCH   6   7
ENDBRANCH   5   6
ENDBRANCH   4   5
ENDBRANCH   3   4
ENDBRANCH   1   3
BRANCH   1  15
ATOM     15  C   UNL     1     -35.446  21.948   2.981  0.00  0.00    +0.242 C 
BRANCH  15  16
ATOM     16  C   UNL     1     -36.369  21.066   2.151  0.00  0.00    +0.202 C 
BRANCH  16  19
ATOM     17  O   UNL     1     -34.299  20.941   0.928  0.00  0.00    -0.436 OA
ATOM     18  O   UNL     1     -32.341  19.729   0.819  0.00  0.00    -0.241 OA
ATOM     19  C   UNL     1     -35.706  20.629   0.855  0.00  0.00    +0.258 C 
ATOM     20  C   UNL     1     -35.708  19.169   0.641  0.00  0.00    +0.195 C 
ATOM     21  C   UNL     1     -34.475  18.674   0.602  0.00  0.00    +0.244 C 
ATOM     22  C   UNL     1     -33.557  19.799   0.792  0.00  0.00    +0.379 C 
BRANCH  20  23
ATOM     23  O   UNL     1     -36.864  18.465   0.477  0.00  0.00    -0.504 OA
ATOM     24  H   UNL     1     -37.662  18.914   0.277  0.00  0.00    +0.292 HD
ENDBRANCH  20  23
BRANCH  21  25
ATOM     25  O   UNL     1     -34.089  17.385   0.415  0.00  0.00    -0.499 OA
ATOM     26  H   UNL     1     -34.358  16.723   1.021  0.00  0.00    +0.293 HD
ENDBRANCH  21  25
ENDBRANCH  16  19
BRANCH  16  27
ATOM     27  O   UNL     1     -36.691  19.907   2.918  0.00  0.00    -0.377 OA
ATOM     28  H   UNL     1     -36.288  19.125   2.508  0.00  0.00    +0.211 HD
ENDBRANCH  16  27
ENDBRANCH  15  16
ENDBRANCH   1  15
TORSDOF 17
ENDMDL
MODEL 5
REMARK VINA RESULT:      -5.2      5.748      8.126
REMARK  Name = 54702628
REMARK  17 active torsions:
REMARK  status: ('A' for Active; 'I' for Inactive)
REMARK    1  A    between atoms: O_1  and  C_3
REMARK    2  A    between atoms: O_1  and  C_15
REMARK    3  A    between atoms: C_3  and  C_4
REMARK    4  A    between atoms: C_4  and  C_5
REMARK    5  A    between atoms: C_5  and  C_6
REMARK    6  A    between atoms: C_6  and  C_7
REMARK    7  A    between atoms: C_7  and  C_8
REMARK    8  A    between atoms: C_8  and  C_9
REMARK    9  A    between atoms: C_9  and  C_10
REMARK   10  A    between atoms: C_10  and  C_11
REMARK   11  A    between atoms: C_11  and  C_12
REMARK   12  A    between atoms: C_12  and  C_13
REMARK   13  A    between atoms: C_15  and  C_16
REMARK   14  A    between atoms: C_16  and  C_19
REMARK   15  A    between atoms: C_16  and  O_27
REMARK   16  A    between atoms: C_20  and  O_23
REMARK   17  A    between atoms: C_21  and  O_25
REMARK                            x       y       z     vdW  Elec       q    Type
REMARK                         _______ _______ _______ _____ _____    ______ ____
ROOT
ATOM      1  O   UNL     1     -43.797  28.121   3.620  0.00  0.00    -0.446 OA
ENDROOT
BRANCH   1   3
ATOM      2  O   UNL     1     -41.934  28.881   4.746  0.00  0.00    -0.250 OA
ATOM      3  C   UNL     1     -42.520  28.027   4.096  0.00  0.00    +0.317 C 
BRANCH   3   4
ATOM      4  C   UNL     1     -41.929  26.705   3.659  0.00  0.00    +0.110 C 
BRANCH   4   5
ATOM      5  C   UNL     1     -41.433  26.714   2.214  0.00  0.00    +0.012 C 
BRANCH   5   6
ATOM      6  C   UNL     1     -40.065  26.042   2.059  0.00  0.00    +0.001 C 
BRANCH   6   7
ATOM      7  C   UNL     1     -40.069  24.633   2.655  0.00  0.00    +0.000 C 
BRANCH   7   8
ATOM      8  C   UNL     1     -38.652  24.170   2.999  0.00  0.00    +0.000 C 
BRANCH   8   9
ATOM      9  C   UNL     1     -37.860  25.280   3.692  0.00  0.00    +0.000 C 
BRANCH   9  10
ATOM     10  C   UNL     1     -36.405  25.376   3.225  0.00  0.00    +0.000 C 
BRANCH  10  11
ATOM     11  C   UNL     1     -35.357  25.583   4.325  0.00  0.00    +0.000 C 
BRANCH  11  12
ATOM     12  C   UNL     1     -35.509  24.614   5.500  0.00  0.00    +0.000 C 
BRANCH  12  13
ATOM     13  C   UNL     1     -35.207  23.160   5.130  0.00  0.00    +0.000 C 
ATOM     14  C   UNL     1     -35.429  22.181   6.272  0.00  0.00    +0.000 C 
ENDBRANCH  12  13
ENDBRANCH  11  12
ENDBRANCH  10  11
ENDBRANCH   9  10
ENDBRANCH   8   9
ENDBRANCH   7   8
ENDBRANCH   6   7
ENDBRANCH   5   6
ENDBRANCH   4   5
ENDBRANCH   3   4
ENDBRANCH   1   3
BRANCH   1  15
ATOM     15  C   UNL     1     -44.797  28.438   4.594  0.00  0.00    +0.242 C 
BRANCH  15  16
ATOM     16  C   UNL     1     -45.238  29.882   4.396  0.00  0.00    +0.202 C 
BRANCH  16  19
ATOM     17  O   UNL     1     -46.136  29.632   6.617  0.00  0.00    -0.436 OA
ATOM     18  O   UNL     1     -45.631  28.717   8.672  0.00  0.00    -0.241 OA
ATOM     19  C   UNL     1     -45.499  30.572   5.727  0.00  0.00    +0.258 C 
ATOM     20  C   UNL     1     -44.275  30.943   6.462  0.00  0.00    +0.195 C 
ATOM     21  C   UNL     1     -44.185  30.306   7.625  0.00  0.00    +0.244 C 
ATOM     22  C   UNL     1     -45.370  29.453   7.737  0.00  0.00    +0.379 C 
BRANCH  20  23
ATOM     23  O   UNL     1     -43.390  31.859   5.974  0.00  0.00    -0.504 OA
ATOM     24  H   UNL     1     -42.521  31.595   5.745  0.00  0.00    +0.292 HD
ENDBRANCH  20  23
BRANCH  21  25
ATOM     25  O   UNL     1     -43.210  30.402   8.565  0.00  0.00    -0.499 OA
ATOM     26  H   UNL     1     -42.312  30.463   8.305  0.00  0.00    +0.293 HD
ENDBRANCH  21  25
ENDBRANCH  16  19
BRANCH  16  27
ATOM     27  O   UNL     1     -44.198  30.579   3.712  0.00  0.00    -0.377 OA
ATOM     28  H   UNL     1     -43.962  30.097   2.904  0.00  0.00    +0.211 HD
ENDBRANCH  16  27
ENDBRANCH  15  16
ENDBRANCH   1  15
TORSDOF 17
ENDMDL
MODEL 6
REMARK VINA RESULT:      -5.2      3.989      7.854
REMARK  Name = 54702628
REMARK  17 active torsions:
REMARK  status: ('A' for Active; 'I' for Inactive)
REMARK    1  A    between atoms: O_1  and  C_3
REMARK    2  A    between atoms: O_1  and  C_15
REMARK    3  A    between atoms: C_3  and  C_4
REMARK    4  A    between atoms: C_4  and  C_5
REMARK    5  A    between atoms: C_5  and  C_6
REMARK    6  A    between atoms: C_6  and  C_7
REMARK    7  A    between atoms: C_7  and  C_8
REMARK    8  A    between atoms: C_8  and  C_9
REMARK    9  A    between atoms: C_9  and  C_10
REMARK   10  A    between atoms: C_10  and  C_11
REMARK   11  A    between atoms: C_11  and  C_12
REMARK   12  A    between atoms: C_12  and  C_13
REMARK   13  A    between atoms: C_15  and  C_16
REMARK   14  A    between atoms: C_16  and  C_19
REMARK   15  A    between atoms: C_16  and  O_27
REMARK   16  A    between atoms: C_20  and  O_23
REMARK   17  A    between atoms: C_21  and  O_25
REMARK                            x       y       z     vdW  Elec       q    Type
REMARK                         _______ _______ _______ _____ _____    ______ ____
ROOT
ATOM      1  O   UNL     1     -32.880  26.922   5.167  0.00  0.00    -0.446 OA
ENDROOT
BRANCH   1   3
ATOM      2  O   UNL     1     -35.137  26.917   4.690  0.00  0.00    -0.250 OA
ATOM      3  C   UNL     1     -34.122  26.360   5.086  0.00  0.00    +0.317 C 
BRANCH   3   4
ATOM      4  C   UNL     1     -34.052  24.938   5.600  0.00  0.00    +0.110 C 
BRANCH   4   5
ATOM      5  C   UNL     1     -35.307  24.123   5.290  0.00  0.00    +0.012 C 
BRANCH   5   6
ATOM      6  C   UNL     1     -35.377  22.824   6.099  0.00  0.00    +0.001 C 
BRANCH   6   7
ATOM      7  C   UNL     1     -35.300  21.598   5.188  0.00  0.00    +0.000 C 
BRANCH   7   8
ATOM      8  C   UNL     1     -35.562  21.973   3.727  0.00  0.00    +0.000 C 
BRANCH   8   9
ATOM      9  C   UNL     1     -35.365  20.769   2.804  0.00  0.00    +0.000 C 
BRANCH   9  10
ATOM     10  C   UNL     1     -34.945  21.152   1.381  0.00  0.00    +0.000 C 
BRANCH  10  11
ATOM     11  C   UNL     1     -34.004  20.173   0.671  0.00  0.00    +0.000 C 
BRANCH  11  12
ATOM     12  C   UNL     1     -33.508  19.041   1.576  0.00  0.00    +0.000 C 
BRANCH  12  13
ATOM     13  C   UNL     1     -32.446  18.159   0.915  0.00  0.00    +0.000 C 
ATOM     14  C   UNL     1     -31.220  18.927   0.447  0.00  0.00    +0.000 C 
ENDBRANCH  12  13
ENDBRANCH  11  12
ENDBRANCH  10  11
ENDBRANCH   9  10
ENDBRANCH   8   9
ENDBRANCH   7   8
ENDBRANCH   6   7
ENDBRANCH   5   6
ENDBRANCH   4   5
ENDBRANCH   3   4
ENDBRANCH   1   3
BRANCH   1  15
ATOM     15  C   UNL     1     -32.507  27.410   6.459  0.00  0.00    +0.242 C 
BRANCH  15  16
ATOM     16  C   UNL     1     -31.762  28.728   6.294  0.00  0.00    +0.202 C 
BRANCH  16  19
ATOM     17  O   UNL     1     -30.139  29.804   4.878  0.00  0.00    -0.436 OA
ATOM     18  O   UNL     1     -28.343  31.248   4.969  0.00  0.00    -0.241 OA
ATOM     19  C   UNL     1     -30.478  28.547   5.499  0.00  0.00    +0.258 C 
ATOM     20  C   UNL     1     -29.293  28.259   6.328  0.00  0.00    +0.195 C 
ATOM     21  C   UNL     1     -28.375  29.215   6.227  0.00  0.00    +0.244 C 
ATOM     22  C   UNL     1     -28.906  30.221   5.304  0.00  0.00    +0.379 C 
BRANCH  20  23
ATOM     23  O   UNL     1     -29.189  27.117   7.067  0.00  0.00    -0.504 OA
ATOM     24  H   UNL     1     -28.528  27.046   7.727  0.00  0.00    +0.292 HD
ENDBRANCH  20  23
BRANCH  21  25
ATOM     25  O   UNL     1     -27.162  29.287   6.833  0.00  0.00    -0.499 OA
ATOM     26  H   UNL     1     -26.447  28.774   6.513  0.00  0.00    +0.293 HD
ENDBRANCH  21  25
ENDBRANCH  16  19
BRANCH  16  27
ATOM     27  O   UNL     1     -32.612  29.638   5.598  0.00  0.00    -0.377 OA
ATOM     28  H   UNL     1     -33.536  29.467   5.839  0.00  0.00    +0.211 HD
ENDBRANCH  16  27
ENDBRANCH  15  16
ENDBRANCH   1  15
TORSDOF 17
ENDMDL
MODEL 7
REMARK VINA RESULT:      -5.2      2.855      5.323
REMARK  Name = 54702628
REMARK  17 active torsions:
REMARK  status: ('A' for Active; 'I' for Inactive)
REMARK    1  A    between atoms: O_1  and  C_3
REMARK    2  A    between atoms: O_1  and  C_15
REMARK    3  A    between atoms: C_3  and  C_4
REMARK    4  A    between atoms: C_4  and  C_5
REMARK    5  A    between atoms: C_5  and  C_6
REMARK    6  A    between atoms: C_6  and  C_7
REMARK    7  A    between atoms: C_7  and  C_8
REMARK    8  A    between atoms: C_8  and  C_9
REMARK    9  A    between atoms: C_9  and  C_10
REMARK   10  A    between atoms: C_10  and  C_11
REMARK   11  A    between atoms: C_11  and  C_12
REMARK   12  A    between atoms: C_12  and  C_13
REMARK   13  A    between atoms: C_15  and  C_16
REMARK   14  A    between atoms: C_16  and  C_19
REMARK   15  A    between atoms: C_16  and  O_27
REMARK   16  A    between atoms: C_20  and  O_23
REMARK   17  A    between atoms: C_21  and  O_25
REMARK                            x       y       z     vdW  Elec       q    Type
REMARK                         _______ _______ _______ _____ _____    ______ ____
ROOT
ATOM      1  O   UNL     1     -36.270  22.859   5.041  0.00  0.00    -0.446 OA
ENDROOT
BRANCH   1   3
ATOM      2  O   UNL     1     -35.023  20.931   5.263  0.00  0.00    -0.250 OA
ATOM      3  C   UNL     1     -35.530  21.809   4.578  0.00  0.00    +0.317 C 
BRANCH   3   4
ATOM      4  C   UNL     1     -35.406  21.921   3.074  0.00  0.00    +0.110 C 
BRANCH   4   5
ATOM      5  C   UNL     1     -35.913  20.684   2.333  0.00  0.00    +0.012 C 
BRANCH   5   6
ATOM      6  C   UNL     1     -34.771  19.813   1.800  0.00  0.00    +0.001 C 
BRANCH   6   7
ATOM      7  C   UNL     1     -33.854  20.610   0.871  0.00  0.00    +0.000 C 
BRANCH   7   8
ATOM      8  C   UNL     1     -32.572  19.836   0.555  0.00  0.00    +0.000 C 
BRANCH   8   9
ATOM      9  C   UNL     1     -32.512  18.523   1.338  0.00  0.00    +0.000 C 
BRANCH   9  10
ATOM     10  C   UNL     1     -32.456  17.280   0.444  0.00  0.00    +0.000 C 
BRANCH  10  11
ATOM     11  C   UNL     1     -32.870  17.483  -1.018  0.00  0.00    +0.000 C 
BRANCH  11  12
ATOM     12  C   UNL     1     -34.185  16.788  -1.381  0.00  0.00    +0.000 C 
BRANCH  12  13
ATOM     13  C   UNL     1     -35.409  17.697  -1.244  0.00  0.00    +0.000 C 
ATOM     14  C   UNL     1     -35.342  18.945  -2.111  0.00  0.00    +0.000 C 
ENDBRANCH  12  13
ENDBRANCH  11  12
ENDBRANCH  10  11
ENDBRANCH   9  10
ENDBRANCH   8   9
ENDBRANCH   7   8
ENDBRANCH   6   7
ENDBRANCH   5   6
ENDBRANCH   4   5
ENDBRANCH   3   4
ENDBRANCH   1   3
BRANCH   1  15
ATOM     15  C   UNL     1     -35.524  24.023   5.412  0.00  0.00    +0.242 C 
BRANCH  15  16
ATOM     16  C   UNL     1     -36.387  25.257   5.182  0.00  0.00    +0.202 C 
BRANCH  16  19
ATOM     17  O   UNL     1     -34.665  26.935   5.329  0.00  0.00    -0.436 OA
ATOM     18  O   UNL     1     -32.371  27.164   5.363  0.00  0.00    -0.241 OA
ATOM     19  C   UNL     1     -35.624  26.338   4.431  0.00  0.00    +0.258 C 
ATOM     20  C   UNL     1     -34.776  25.826   3.337  0.00  0.00    +0.195 C 
ATOM     21  C   UNL     1     -33.488  26.071   3.554  0.00  0.00    +0.244 C 
ATOM     22  C   UNL     1     -33.398  26.777   4.834  0.00  0.00    +0.379 C 
BRANCH  20  23
ATOM     23  O   UNL     1     -35.305  25.209   2.242  0.00  0.00    -0.504 OA
ATOM     24  H   UNL     1     -36.216  24.991   2.222  0.00  0.00    +0.292 HD
ENDBRANCH  20  23
BRANCH  21  25
ATOM     25  O   UNL     1     -32.426  25.758   2.769  0.00  0.00    -0.499 OA
ATOM     26  H   UNL     1     -31.796  25.130   3.061  0.00  0.00    +0.293 HD
ENDBRANCH  21  25
ENDBRANCH  16  19
BRANCH  16  27
ATOM     27  O   UNL     1     -37.522  24.872   4.408  0.00  0.00    -0.377 OA
ATOM     28  H   UNL     1     -37.440  25.232   3.511  0.00  0.00    +0.211 HD
ENDBRANCH  16  27
ENDBRANCH  15  16
ENDBRANCH   1  15
TORSDOF 17
ENDMDL
MODEL 8
REMARK VINA RESULT:      -5.2      2.194      5.206
REMARK  Name = 54702628
REMARK  17 active torsions:
REMARK  status: ('A' for Active; 'I' for Inactive)
REMARK    1  A    between atoms: O_1  and  C_3
REMARK    2  A    between atoms: O_1  and  C_15
REMARK    3  A    between atoms: C_3  and  C_4
REMARK    4  A    between atoms: C_4  and  C_5
REMARK    5  A    between atoms: C_5  and  C_6
REMARK    6  A    between atoms: C_6  and  C_7
REMARK    7  A    between atoms: C_7  and  C_8
REMARK    8  A    between atoms: C_8  and  C_9
REMARK    9  A    between atoms: C_9  and  C_10
REMARK   10  A    between atoms: C_10  and  C_11
REMARK   11  A    between atoms: C_11  and  C_12
REMARK   12  A    between atoms: C_12  and  C_13
REMARK   13  A    between atoms: C_15  and  C_16
REMARK   14  A    between atoms: C_16  and  C_19
REMARK   15  A    between atoms: C_16  and  O_27
REMARK   16  A    between atoms: C_20  and  O_23
REMARK   17  A    between atoms: C_21  and  O_25
REMARK                            x       y       z     vdW  Elec       q    Type
REMARK                         _______ _______ _______ _____ _____    ______ ____
ROOT
ATOM      1  O   UNL     1     -36.257  22.083   3.561  0.00  0.00    -0.446 OA
ENDROOT
BRANCH   1   3
ATOM      2  O   UNL     1     -38.069  22.758   2.304  0.00  0.00    -0.250 OA
ATOM      3  C   UNL     1     -36.914  22.366   2.398  0.00  0.00    +0.317 C 
BRANCH   3   4
ATOM      4  C   UNL     1     -35.992  22.084   1.231  0.00  0.00    +0.110 C 
BRANCH   4   5
ATOM      5  C   UNL     1     -36.393  20.844   0.433  0.00  0.00    +0.012 C 
BRANCH   5   6
ATOM      6  C   UNL     1     -35.558  19.614   0.802  0.00  0.00    +0.001 C 
BRANCH   6   7
ATOM      7  C   UNL     1     -34.227  20.019   1.438  0.00  0.00    +0.000 C 
BRANCH   7   8
ATOM      8  C   UNL     1     -33.161  20.290   0.375  0.00  0.00    +0.000 C 
BRANCH   8   9
ATOM      9  C   UNL     1     -31.936  19.397   0.579  0.00  0.00    +0.000 C 
BRANCH   9  10
ATOM     10  C   UNL     1     -32.258  18.064   1.262  0.00  0.00    +0.000 C 
BRANCH  10  11
ATOM     11  C   UNL     1     -32.290  16.832   0.351  0.00  0.00    +0.000 C 
BRANCH  11  12
ATOM     12  C   UNL     1     -33.699  16.453  -0.112  0.00  0.00    +0.000 C 
BRANCH  12  13
ATOM     13  C   UNL     1     -34.057  17.018  -1.489  0.00  0.00    +0.000 C 
ATOM     14  C   UNL     1     -35.551  17.034  -1.772  0.00  0.00    +0.000 C 
ENDBRANCH  12  13
ENDBRANCH  11  12
ENDBRANCH  10  11
ENDBRANCH   9  10
ENDBRANCH   8   9
ENDBRANCH   7   8
ENDBRANCH   6   7
ENDBRANCH   5   6
ENDBRANCH   4   5
ENDBRANCH   3   4
ENDBRANCH   1   3
BRANCH   1  15
ATOM     15  C   UNL     1     -35.189  22.974   3.899  0.00  0.00    +0.242 C 
BRANCH  15  16
ATOM     16  C   UNL     1     -35.220  23.237   5.399  0.00  0.00    +0.202 C 
BRANCH  16  19
ATOM     17  O   UNL     1     -34.403  25.489   5.647  0.00  0.00    -0.436 OA
ATOM     18  O   UNL     1     -33.709  27.301   4.401  0.00  0.00    -0.241 OA
ATOM     19  C   UNL     1     -35.596  24.678   5.704  0.00  0.00    +0.258 C 
ATOM     20  C   UNL     1     -36.466  25.301   4.688  0.00  0.00    +0.195 C 
ATOM     21  C   UNL     1     -35.873  26.333   4.096  0.00  0.00    +0.244 C 
ATOM     22  C   UNL     1     -34.544  26.463   4.695  0.00  0.00    +0.379 C 
BRANCH  20  23
ATOM     23  O   UNL     1     -37.730  24.851   4.446  0.00  0.00    -0.504 OA
ATOM     24  H   UNL     1     -38.383  24.907   5.115  0.00  0.00    +0.292 HD
ENDBRANCH  20  23
BRANCH  21  25
ATOM     25  O   UNL     1     -36.367  27.146   3.127  0.00  0.00    -0.499 OA
ATOM     26  H   UNL     1     -37.041  27.764   3.331  0.00  0.00    +0.293 HD
ENDBRANCH  21  25
ENDBRANCH  16  19
BRANCH  16  27
ATOM     27  O   UNL     1     -36.192  22.373   5.985  0.00  0.00    -0.377 OA
ATOM     28  H   UNL     1     -35.772  21.532   6.229  0.00  0.00    +0.211 HD
ENDBRANCH  16  27
ENDBRANCH  15  16
ENDBRANCH   1  15
TORSDOF 17
ENDMDL
MODEL 9
REMARK VINA RESULT:      -5.1      4.037      7.366
REMARK  Name = 54702628
REMARK  17 active torsions:
REMARK  status: ('A' for Active; 'I' for Inactive)
REMARK    1  A    between atoms: O_1  and  C_3
REMARK    2  A    between atoms: O_1  and  C_15
REMARK    3  A    between atoms: C_3  and  C_4
REMARK    4  A    between atoms: C_4  and  C_5
REMARK    5  A    between atoms: C_5  and  C_6
REMARK    6  A    between atoms: C_6  and  C_7
REMARK    7  A    between atoms: C_7  and  C_8
REMARK    8  A    between atoms: C_8  and  C_9
REMARK    9  A    between atoms: C_9  and  C_10
REMARK   10  A    between atoms: C_10  and  C_11
REMARK   11  A    between atoms: C_11  and  C_12
REMARK   12  A    between atoms: C_12  and  C_13
REMARK   13  A    between atoms: C_15  and  C_16
REMARK   14  A    between atoms: C_16  and  C_19
REMARK   15  A    between atoms: C_16  and  O_27
REMARK   16  A    between atoms: C_20  and  O_23
REMARK   17  A    between atoms: C_21  and  O_25
REMARK                            x       y       z     vdW  Elec       q    Type
REMARK                         _______ _______ _______ _____ _____    ______ ____
ROOT
ATOM      1  O   UNL     1     -33.506  27.343   5.455  0.00  0.00    -0.446 OA
ENDROOT
BRANCH   1   3
ATOM      2  O   UNL     1     -33.262  25.335   4.347  0.00  0.00    -0.250 OA
ATOM      3  C   UNL     1     -33.895  26.092   5.071  0.00  0.00    +0.317 C 
BRANCH   3   4
ATOM      4  C   UNL     1     -35.258  25.799   5.659  0.00  0.00    +0.110 C 
BRANCH   4   5
ATOM      5  C   UNL     1     -35.853  24.477   5.172  0.00  0.00    +0.012 C 
BRANCH   5   6
ATOM      6  C   UNL     1     -35.353  23.277   5.982  0.00  0.00    +0.001 C 
BRANCH   6   7
ATOM      7  C   UNL     1     -35.082  22.073   5.078  0.00  0.00    +0.000 C 
BRANCH   7   8
ATOM      8  C   UNL     1     -35.891  22.157   3.782  0.00  0.00    +0.000 C 
BRANCH   8   9
ATOM      9  C   UNL     1     -35.588  20.972   2.863  0.00  0.00    +0.000 C 
BRANCH   9  10
ATOM     10  C   UNL     1     -34.690  21.332   1.676  0.00  0.00    +0.000 C 
BRANCH  10  11
ATOM     11  C   UNL     1     -34.358  20.187   0.712  0.00  0.00    +0.000 C 
BRANCH  11  12
ATOM     12  C   UNL     1     -32.899  19.729   0.790  0.00  0.00    +0.000 C 
BRANCH  12  13
ATOM     13  C   UNL     1     -32.735  18.324   1.372  0.00  0.00    +0.000 C 
ATOM     14  C   UNL     1     -33.270  17.223   0.470  0.00  0.00    +0.000 C 
ENDBRANCH  12  13
ENDBRANCH  11  12
ENDBRANCH  10  11
ENDBRANCH   9  10
ENDBRANCH   8   9
ENDBRANCH   7   8
ENDBRANCH   6   7
ENDBRANCH   5   6
ENDBRANCH   4   5
ENDBRANCH   3   4
ENDBRANCH   1   3
BRANCH   1  15
ATOM     15  C   UNL     1     -32.557  27.393   6.525  0.00  0.00    +0.242 C 
BRANCH  15  16
ATOM     16  C   UNL     1     -31.281  28.058   6.024  0.00  0.00    +0.202 C 
BRANCH  16  19
ATOM     17  O   UNL     1     -29.896  29.989   6.411  0.00  0.00    -0.436 OA
ATOM     18  O   UNL     1     -28.615  31.542   5.285  0.00  0.00    -0.241 OA
ATOM     19  C   UNL     1     -31.267  29.545   6.341  0.00  0.00    +0.258 C 
ATOM     20  C   UNL     1     -31.834  30.392   5.275  0.00  0.00    +0.195 C 
ATOM     21  C   UNL     1     -30.926  31.221   4.767  0.00  0.00    +0.244 C 
ATOM     22  C   UNL     1     -29.673  30.970   5.481  0.00  0.00    +0.379 C 
BRANCH  20  23
ATOM     23  O   UNL     1     -33.146  30.316   4.912  0.00  0.00    -0.504 OA
ATOM     24  H   UNL     1     -33.493  30.912   4.278  0.00  0.00    +0.292 HD
ENDBRANCH  20  23
BRANCH  21  25
ATOM     25  O   UNL     1     -31.084  32.145   3.785  0.00  0.00    -0.499 OA
ATOM     26  H   UNL     1     -31.526  32.951   3.966  0.00  0.00    +0.293 HD
ENDBRANCH  21  25
ENDBRANCH  16  19
BRANCH  16  27
ATOM     27  O   UNL     1     -30.170  27.438   6.670  0.00  0.00    -0.377 OA
ATOM     28  H   UNL     1     -30.390  27.265   7.598  0.00  0.00    +0.211 HD
ENDBRANCH  16  27
ENDBRANCH  15  16
ENDBRANCH   1  15
TORSDOF 17
ENDMDL
