MODEL 1
REMARK VINA RESULT:      -6.5      0.000      0.000
REMARK  Name = 5322091
REMARK  7 active torsions:
REMARK  status: ('A' for Active; 'I' for Inactive)
REMARK    1  A    between atoms: C_5  and  C_12
REMARK    2  A    between atoms: C_7  and  O_24
REMARK    3  A    between atoms: C_8  and  O_26
REMARK    4  A    between atoms: C_10  and  O_22
REMARK    5  A    between atoms: C_11  and  O_28
REMARK    6  A    between atoms: C_15  and  O_18
REMARK    7  A    between atoms: C_16  and  O_20
REMARK                            x       y       z     vdW  Elec       q    Type
REMARK                         _______ _______ _______ _____ _____    ______ ____
ROOT
ATOM      1  O   UNL     1     -34.681  24.019   3.383  0.00  0.00    -0.450 OA
ATOM      2  O   UNL     1     -38.714  24.488   3.737  0.00  0.00    -0.283 OA
ATOM      3  C   UNL     1     -36.917  23.197   2.919  0.00  0.00    +0.113 A 
ATOM      4  C   UNL     1     -35.531  23.096   2.831  0.00  0.00    +0.155 A 
ATOM      5  C   UNL     1     -35.227  25.092   4.069  0.00  0.00    +0.182 A 
ATOM      6  C   UNL     1     -37.503  24.341   3.633  0.00  0.00    +0.238 A 
ATOM      7  C   UNL     1     -36.547  25.311   4.220  0.00  0.00    +0.208 A 
ATOM      8  C   UNL     1     -37.734  22.226   2.333  0.00  0.00    +0.177 C 
ATOM      9  C   UNL     1     -34.951  22.021   2.156  0.00  0.00    +0.078 C 
ATOM     10  C   UNL     1     -35.764  21.050   1.571  0.00  0.00    +0.178 C 
ATOM     11  C   UNL     1     -37.152  21.152   1.660  0.00  0.00    +0.202 C 
ENDROOT
BRANCH   5  12
ATOM     12  C   UNL     1     -34.207  26.007   4.611  0.00  0.00    +0.041 C 
ATOM     13  C   UNL     1     -33.479  26.829   3.751  0.00  0.00    +0.043 C 
ATOM     14  C   UNL     1     -33.968  26.051   5.986  0.00  0.00    +0.006 C 
ATOM     15  C   UNL     1     -32.513  27.695   4.264  0.00  0.00    +0.172 C 
ATOM     16  C   UNL     1     -32.274  27.739   5.637  0.00  0.00    +0.172 C 
ATOM     17  C   UNL     1     -33.002  26.917   6.499  0.00  0.00    +0.040 C 
BRANCH  15  18
ATOM     18  O   UNL     1     -31.808  28.493   3.413  0.00  0.00    -0.468 OA
ATOM     19  C   UNL     1     -32.545  29.471   2.682  0.00  0.00    +0.253 C 
ENDBRANCH  15  18
BRANCH  16  20
ATOM     20  O   UNL     1     -31.334  28.580   6.151  0.00  0.00    -0.468 OA
ATOM     21  C   UNL     1     -31.779  29.862   6.588  0.00  0.00    +0.253 C 
ENDBRANCH  16  20
ENDBRANCH   5  12
BRANCH  10  22
ATOM     22  O   UNL     1     -35.186  20.004   0.914  0.00  0.00    -0.468 OA
ATOM     23  C   UNL     1     -33.997  19.461   1.481  0.00  0.00    +0.253 C 
ENDBRANCH  10  22
BRANCH   7  24
ATOM     24  O   UNL     1     -37.058  26.407   4.880  0.00  0.00    -0.501 OA
ATOM     25  H   UNL     1     -36.710  26.655   5.714  0.00  0.00    +0.292 HD
ENDBRANCH   7  24
BRANCH   8  26
ATOM     26  O   UNL     1     -39.094  22.290   2.397  0.00  0.00    -0.503 OA
ATOM     27  H   UNL     1     -39.576  22.720   1.717  0.00  0.00    +0.292 HD
ENDBRANCH   8  26
BRANCH  11  28
ATOM     28  O   UNL     1     -37.939  20.199   1.083  0.00  0.00    -0.501 OA
ATOM     29  H   UNL     1     -38.872  20.256   1.153  0.00  0.00    +0.292 HD
ENDBRANCH  11  28
TORSDOF 7
ENDMDL
MODEL 2
REMARK VINA RESULT:      -6.3      2.735      4.209
REMARK  Name = 5322091
REMARK  7 active torsions:
REMARK  status: ('A' for Active; 'I' for Inactive)
REMARK    1  A    between atoms: C_5  and  C_12
REMARK    2  A    between atoms: C_7  and  O_24
REMARK    3  A    between atoms: C_8  and  O_26
REMARK    4  A    between atoms: C_10  and  O_22
REMARK    5  A    between atoms: C_11  and  O_28
REMARK    6  A    between atoms: C_15  and  O_18
REMARK    7  A    between atoms: C_16  and  O_20
REMARK                            x       y       z     vdW  Elec       q    Type
REMARK                         _______ _______ _______ _____ _____    ______ ____
ROOT
ATOM      1  O   UNL     1     -33.314  26.549   5.234  0.00  0.00    -0.450 OA
ATOM      2  O   UNL     1     -35.539  28.106   2.196  0.00  0.00    -0.283 OA
ATOM      3  C   UNL     1     -35.244  26.377   3.773  0.00  0.00    +0.113 A 
ATOM      4  C   UNL     1     -34.440  25.896   4.803  0.00  0.00    +0.155 A 
ATOM      5  C   UNL     1     -32.970  27.744   4.626  0.00  0.00    +0.182 A 
ATOM      6  C   UNL     1     -34.875  27.638   3.112  0.00  0.00    +0.238 A 
ATOM      7  C   UNL     1     -33.655  28.313   3.616  0.00  0.00    +0.208 A 
ATOM      8  C   UNL     1     -36.379  25.666   3.373  0.00  0.00    +0.177 C 
ATOM      9  C   UNL     1     -34.766  24.700   5.443  0.00  0.00    +0.078 C 
ATOM     10  C   UNL     1     -35.900  23.988   5.047  0.00  0.00    +0.178 C 
ATOM     11  C   UNL     1     -36.705  24.471   4.015  0.00  0.00    +0.202 C 
ENDROOT
BRANCH   5  12
ATOM     12  C   UNL     1     -31.741  28.340   5.182  0.00  0.00    +0.041 C 
ATOM     13  C   UNL     1     -30.519  28.148   4.538  0.00  0.00    +0.043 C 
ATOM     14  C   UNL     1     -31.801  29.096   6.354  0.00  0.00    +0.006 C 
ATOM     15  C   UNL     1     -29.357  28.711   5.065  0.00  0.00    +0.172 C 
ATOM     16  C   UNL     1     -29.417  29.467   6.236  0.00  0.00    +0.172 C 
ATOM     17  C   UNL     1     -30.639  29.660   6.880  0.00  0.00    +0.040 C 
BRANCH  15  18
ATOM     18  O   UNL     1     -28.169  28.516   4.426  0.00  0.00    -0.468 OA
ATOM     19  C   UNL     1     -27.524  27.260   4.626  0.00  0.00    +0.253 C 
ENDBRANCH  15  18
BRANCH  16  20
ATOM     20  O   UNL     1     -28.289  30.022   6.760  0.00  0.00    -0.468 OA
ATOM     21  C   UNL     1     -27.968  29.689   8.109  0.00  0.00    +0.253 C 
ENDBRANCH  16  20
ENDBRANCH   5  12
BRANCH  10  22
ATOM     22  O   UNL     1     -36.210  22.821   5.679  0.00  0.00    -0.468 OA
ATOM     23  C   UNL     1     -35.139  22.123   6.311  0.00  0.00    +0.253 C 
ENDBRANCH  10  22
BRANCH   7  24
ATOM     24  O   UNL     1     -33.266  29.487   3.009  0.00  0.00    -0.501 OA
ATOM     25  H   UNL     1     -33.723  30.284   3.196  0.00  0.00    +0.292 HD
ENDBRANCH   7  24
BRANCH   8  26
ATOM     26  O   UNL     1     -37.191  26.104   2.369  0.00  0.00    -0.503 OA
ATOM     27  H   UNL     1     -36.892  26.078   1.480  0.00  0.00    +0.292 HD
ENDBRANCH   8  26
BRANCH  11  28
ATOM     28  O   UNL     1     -37.810  23.768   3.634  0.00  0.00    -0.501 OA
ATOM     29  H   UNL     1     -38.285  23.264   4.265  0.00  0.00    +0.292 HD
ENDBRANCH  11  28
TORSDOF 7
ENDMDL
MODEL 3
REMARK VINA RESULT:      -6.3      1.128      1.328
REMARK  Name = 5322091
REMARK  7 active torsions:
REMARK  status: ('A' for Active; 'I' for Inactive)
REMARK    1  A    between atoms: C_5  and  C_12
REMARK    2  A    between atoms: C_7  and  O_24
REMARK    3  A    between atoms: C_8  and  O_26
REMARK    4  A    between atoms: C_10  and  O_22
REMARK    5  A    between atoms: C_11  and  O_28
REMARK    6  A    between atoms: C_15  and  O_18
REMARK    7  A    between atoms: C_16  and  O_20
REMARK                            x       y       z     vdW  Elec       q    Type
REMARK                         _______ _______ _______ _____ _____    ______ ____
ROOT
ATOM      1  O   UNL     1     -34.868  23.242   3.018  0.00  0.00    -0.450 OA
ATOM      2  O   UNL     1     -38.938  23.043   2.980  0.00  0.00    -0.283 OA
ATOM      3  C   UNL     1     -36.883  22.038   2.403  0.00  0.00    +0.113 A 
ATOM      4  C   UNL     1     -35.497  22.167   2.446  0.00  0.00    +0.155 A 
ATOM      5  C   UNL     1     -35.646  24.237   3.588  0.00  0.00    +0.182 A 
ATOM      6  C   UNL     1     -37.715  23.098   2.994  0.00  0.00    +0.238 A 
ATOM      7  C   UNL     1     -36.991  24.238   3.607  0.00  0.00    +0.208 A 
ATOM      8  C   UNL     1     -37.470  20.920   1.804  0.00  0.00    +0.177 C 
ATOM      9  C   UNL     1     -34.687  21.177   1.890  0.00  0.00    +0.078 C 
ATOM     10  C   UNL     1     -35.269  20.059   1.292  0.00  0.00    +0.178 C 
ATOM     11  C   UNL     1     -36.658  19.930   1.250  0.00  0.00    +0.202 C 
ENDROOT
BRANCH   5  12
ATOM     12  C   UNL     1     -34.846  25.332   4.165  0.00  0.00    +0.041 C 
ATOM     13  C   UNL     1     -34.462  26.411   3.368  0.00  0.00    +0.043 C 
ATOM     14  C   UNL     1     -34.472  25.291   5.509  0.00  0.00    +0.006 C 
ATOM     15  C   UNL     1     -33.705  27.447   3.914  0.00  0.00    +0.172 C 
ATOM     16  C   UNL     1     -33.331  27.405   5.257  0.00  0.00    +0.172 C 
ATOM     17  C   UNL     1     -33.715  26.328   6.055  0.00  0.00    +0.040 C 
BRANCH  15  18
ATOM     18  O   UNL     1     -33.336  28.495   3.125  0.00  0.00    -0.468 OA
ATOM     19  C   UNL     1     -34.348  29.078   2.307  0.00  0.00    +0.253 C 
ENDBRANCH  15  18
BRANCH  16  20
ATOM     20  O   UNL     1     -32.592  28.411   5.803  0.00  0.00    -0.468 OA
ATOM     21  C   UNL     1     -31.189  28.191   5.928  0.00  0.00    +0.253 C 
ENDBRANCH  16  20
ENDBRANCH   5  12
BRANCH  10  22
ATOM     22  O   UNL     1     -34.468  19.097   0.751  0.00  0.00    -0.468 OA
ATOM     23  C   UNL     1     -33.297  18.744   1.484  0.00  0.00    +0.253 C 
ENDBRANCH  10  22
BRANCH   7  24
ATOM     24  O   UNL     1     -37.736  25.260   4.154  0.00  0.00    -0.501 OA
ATOM     25  H   UNL     1     -38.644  25.345   3.938  0.00  0.00    +0.292 HD
ENDBRANCH   7  24
BRANCH   8  26
ATOM     26  O   UNL     1     -38.822  20.758   1.742  0.00  0.00    -0.503 OA
ATOM     27  H   UNL     1     -39.249  20.151   2.316  0.00  0.00    +0.292 HD
ENDBRANCH   8  26
BRANCH  11  28
ATOM     28  O   UNL     1     -37.219  18.835   0.662  0.00  0.00    -0.501 OA
ATOM     29  H   UNL     1     -36.987  18.605  -0.217  0.00  0.00    +0.292 HD
ENDBRANCH  11  28
TORSDOF 7
ENDMDL
MODEL 4
REMARK VINA RESULT:      -6.3      1.862      7.798
REMARK  Name = 5322091
REMARK  7 active torsions:
REMARK  status: ('A' for Active; 'I' for Inactive)
REMARK    1  A    between atoms: C_5  and  C_12
REMARK    2  A    between atoms: C_7  and  O_24
REMARK    3  A    between atoms: C_8  and  O_26
REMARK    4  A    between atoms: C_10  and  O_22
REMARK    5  A    between atoms: C_11  and  O_28
REMARK    6  A    between atoms: C_15  and  O_18
REMARK    7  A    between atoms: C_16  and  O_20
REMARK                            x       y       z     vdW  Elec       q    Type
REMARK                         _______ _______ _______ _____ _____    ______ ____
ROOT
ATOM      1  O   UNL     1     -35.070  22.117   2.629  0.00  0.00    -0.450 OA
ATOM      2  O   UNL     1     -39.048  22.988   2.803  0.00  0.00    -0.283 OA
ATOM      3  C   UNL     1     -36.843  23.595   3.381  0.00  0.00    +0.113 A 
ATOM      4  C   UNL     1     -35.500  23.240   3.288  0.00  0.00    +0.155 A 
ATOM      5  C   UNL     1     -36.015  21.308   2.019  0.00  0.00    +0.182 A 
ATOM      6  C   UNL     1     -37.852  22.732   2.749  0.00  0.00    +0.238 A 
ATOM      7  C   UNL     1     -37.342  21.532   2.041  0.00  0.00    +0.208 A 
ATOM      8  C   UNL     1     -37.222  24.751   4.069  0.00  0.00    +0.177 C 
ATOM      9  C   UNL     1     -34.524  24.041   3.882  0.00  0.00    +0.078 C 
ATOM     10  C   UNL     1     -34.899  25.197   4.569  0.00  0.00    +0.178 C 
ATOM     11  C   UNL     1     -36.245  25.551   4.661  0.00  0.00    +0.202 C 
ENDROOT
BRANCH   5  12
ATOM     12  C   UNL     1     -35.422  20.137   1.349  0.00  0.00    +0.041 C 
ATOM     13  C   UNL     1     -34.165  19.673   1.736  0.00  0.00    +0.043 C 
ATOM     14  C   UNL     1     -36.118  19.492   0.325  0.00  0.00    +0.006 C 
ATOM     15  C   UNL     1     -33.603  18.566   1.101  0.00  0.00    +0.172 C 
ATOM     16  C   UNL     1     -34.299  17.921   0.078  0.00  0.00    +0.172 C 
ATOM     17  C   UNL     1     -35.557  18.383  -0.310  0.00  0.00    +0.040 C 
BRANCH  15  18
ATOM     18  O   UNL     1     -32.374  18.122   1.488  0.00  0.00    -0.468 OA
ATOM     19  C   UNL     1     -31.254  18.573   0.729  0.00  0.00    +0.253 C 
ENDBRANCH  15  18
BRANCH  16  20
ATOM     20  O   UNL     1     -33.762  16.838  -0.550  0.00  0.00    -0.468 OA
ATOM     21  C   UNL     1     -34.475  15.608  -0.445  0.00  0.00    +0.253 C 
ENDBRANCH  16  20
ENDBRANCH   5  12
BRANCH  10  22
ATOM     22  O   UNL     1     -33.937  25.972   5.146  0.00  0.00    -0.468 OA
ATOM     23  C   UNL     1     -33.340  26.977   4.330  0.00  0.00    +0.253 C 
ENDBRANCH  10  22
BRANCH   7  24
ATOM     24  O   UNL     1     -38.259  20.688   1.453  0.00  0.00    -0.501 OA
ATOM     25  H   UNL     1     -38.390  19.827   1.797  0.00  0.00    +0.292 HD
ENDBRANCH   7  24
BRANCH   8  26
ATOM     26  O   UNL     1     -38.526  25.131   4.182  0.00  0.00    -0.503 OA
ATOM     27  H   UNL     1     -38.739  26.015   4.412  0.00  0.00    +0.292 HD
ENDBRANCH   8  26
BRANCH  11  28
ATOM     28  O   UNL     1     -36.602  26.681   5.336  0.00  0.00    -0.501 OA
ATOM     29  H   UNL     1     -37.015  26.615   6.175  0.00  0.00    +0.292 HD
ENDBRANCH  11  28
TORSDOF 7
ENDMDL
MODEL 5
REMARK VINA RESULT:      -6.2      1.198      2.030
REMARK  Name = 5322091
REMARK  7 active torsions:
REMARK  status: ('A' for Active; 'I' for Inactive)
REMARK    1  A    between atoms: C_5  and  C_12
REMARK    2  A    between atoms: C_7  and  O_24
REMARK    3  A    between atoms: C_8  and  O_26
REMARK    4  A    between atoms: C_10  and  O_22
REMARK    5  A    between atoms: C_11  and  O_28
REMARK    6  A    between atoms: C_15  and  O_18
REMARK    7  A    between atoms: C_16  and  O_20
REMARK                            x       y       z     vdW  Elec       q    Type
REMARK                         _______ _______ _______ _____ _____    ______ ____
ROOT
ATOM      1  O   UNL     1     -34.669  23.899   2.341  0.00  0.00    -0.450 OA
ATOM      2  O   UNL     1     -38.608  23.496   3.306  0.00  0.00    -0.283 OA
ATOM      3  C   UNL     1     -36.665  22.519   2.392  0.00  0.00    +0.113 A 
ATOM      4  C   UNL     1     -35.322  22.722   2.084  0.00  0.00    +0.155 A 
ATOM      5  C   UNL     1     -35.375  24.927   2.944  0.00  0.00    +0.182 A 
ATOM      6  C   UNL     1     -37.423  23.612   3.019  0.00  0.00    +0.238 A 
ATOM      7  C   UNL     1     -36.675  24.865   3.285  0.00  0.00    +0.208 A 
ATOM      8  C   UNL     1     -37.279  21.297   2.105  0.00  0.00    +0.177 C 
ATOM      9  C   UNL     1     -34.582  21.701   1.487  0.00  0.00    +0.078 C 
ATOM     10  C   UNL     1     -35.192  20.479   1.199  0.00  0.00    +0.178 C 
ATOM     11  C   UNL     1     -36.537  20.278   1.508  0.00  0.00    +0.202 C 
ENDROOT
BRANCH   5  12
ATOM     12  C   UNL     1     -34.557  26.135   3.163  0.00  0.00    +0.041 C 
ATOM     13  C   UNL     1     -33.762  26.242   4.303  0.00  0.00    +0.043 C 
ATOM     14  C   UNL     1     -34.579  27.171   2.228  0.00  0.00    +0.006 C 
ATOM     15  C   UNL     1     -32.989  27.385   4.510  0.00  0.00    +0.172 C 
ATOM     16  C   UNL     1     -33.011  28.420   3.576  0.00  0.00    +0.172 C 
ATOM     17  C   UNL     1     -33.805  28.313   2.434  0.00  0.00    +0.040 C 
BRANCH  15  18
ATOM     18  O   UNL     1     -32.216  27.478   5.629  0.00  0.00    -0.468 OA
ATOM     19  C   UNL     1     -32.811  27.080   6.862  0.00  0.00    +0.253 C 
ENDBRANCH  15  18
BRANCH  16  20
ATOM     20  O   UNL     1     -32.261  29.541   3.766  0.00  0.00    -0.468 OA
ATOM     21  C   UNL     1     -32.962  30.771   3.932  0.00  0.00    +0.253 C 
ENDBRANCH  16  20
ENDBRANCH   5  12
BRANCH  10  22
ATOM     22  O   UNL     1     -34.459  19.489   0.614  0.00  0.00    -0.468 OA
ATOM     23  C   UNL     1     -33.432  18.893   1.402  0.00  0.00    +0.253 C 
ENDBRANCH  10  22
BRANCH   7  24
ATOM     24  O   UNL     1     -37.357  25.919   3.853  0.00  0.00    -0.501 OA
ATOM     25  H   UNL     1     -37.400  26.000   4.786  0.00  0.00    +0.292 HD
ENDBRANCH   7  24
BRANCH   8  26
ATOM     26  O   UNL     1     -38.591  21.061   2.390  0.00  0.00    -0.503 OA
ATOM     27  H   UNL     1     -38.913  21.195   3.261  0.00  0.00    +0.292 HD
ENDBRANCH   8  26
BRANCH  11  28
ATOM     28  O   UNL     1     -37.125  19.081   1.221  0.00  0.00    -0.501 OA
ATOM     29  H   UNL     1     -37.468  18.920   0.364  0.00  0.00    +0.292 HD
ENDBRANCH  11  28
TORSDOF 7
ENDMDL
MODEL 6
REMARK VINA RESULT:      -6.2      1.956      7.887
REMARK  Name = 5322091
REMARK  7 active torsions:
REMARK  status: ('A' for Active; 'I' for Inactive)
REMARK    1  A    between atoms: C_5  and  C_12
REMARK    2  A    between atoms: C_7  and  O_24
REMARK    3  A    between atoms: C_8  and  O_26
REMARK    4  A    between atoms: C_10  and  O_22
REMARK    5  A    between atoms: C_11  and  O_28
REMARK    6  A    between atoms: C_15  and  O_18
REMARK    7  A    between atoms: C_16  and  O_20
REMARK                            x       y       z     vdW  Elec       q    Type
REMARK                         _______ _______ _______ _____ _____    ______ ____
ROOT
ATOM      1  O   UNL     1     -34.888  22.282   2.510  0.00  0.00    -0.450 OA
ATOM      2  O   UNL     1     -38.906  22.880   2.836  0.00  0.00    -0.283 OA
ATOM      3  C   UNL     1     -36.727  23.623   3.352  0.00  0.00    +0.113 A 
ATOM      4  C   UNL     1     -35.367  23.361   3.206  0.00  0.00    +0.155 A 
ATOM      5  C   UNL     1     -35.797  21.422   1.916  0.00  0.00    +0.182 A 
ATOM      6  C   UNL     1     -37.698  22.706   2.736  0.00  0.00    +0.238 A 
ATOM      7  C   UNL     1     -37.134  21.556   1.988  0.00  0.00    +0.208 A 
ATOM      8  C   UNL     1     -37.158  24.738   4.076  0.00  0.00    +0.177 C 
ATOM      9  C   UNL     1     -34.427  24.215   3.784  0.00  0.00    +0.078 C 
ATOM     10  C   UNL     1     -34.853  25.330   4.507  0.00  0.00    +0.178 C 
ATOM     11  C   UNL     1     -36.216  25.591   4.651  0.00  0.00    +0.202 C 
ENDROOT
BRANCH   5  12
ATOM     12  C   UNL     1     -35.151  20.306   1.202  0.00  0.00    +0.041 C 
ATOM     13  C   UNL     1     -35.576  19.958  -0.080  0.00  0.00    +0.043 C 
ATOM     14  C   UNL     1     -34.113  19.597   1.808  0.00  0.00    +0.006 C 
ATOM     15  C   UNL     1     -34.965  18.901  -0.755  0.00  0.00    +0.172 C 
ATOM     16  C   UNL     1     -33.928  18.193  -0.149  0.00  0.00    +0.172 C 
ATOM     17  C   UNL     1     -33.501  18.541   1.133  0.00  0.00    +0.040 C 
BRANCH  15  18
ATOM     18  O   UNL     1     -35.391  18.571  -2.007  0.00  0.00    -0.468 OA
ATOM     19  C   UNL     1     -36.657  17.924  -2.111  0.00  0.00    +0.253 C 
ENDBRANCH  15  18
BRANCH  16  20
ATOM     20  O   UNL     1     -33.323  17.160  -0.798  0.00  0.00    -0.468 OA
ATOM     21  C   UNL     1     -33.687  15.840  -0.398  0.00  0.00    +0.253 C 
ENDBRANCH  16  20
ENDBRANCH   5  12
BRANCH  10  22
ATOM     22  O   UNL     1     -33.926  26.157   5.067  0.00  0.00    -0.468 OA
ATOM     23  C   UNL     1     -33.281  27.088   4.200  0.00  0.00    +0.253 C 
ENDBRANCH  10  22
BRANCH   7  24
ATOM     24  O   UNL     1     -38.013  20.663   1.413  0.00  0.00    -0.501 OA
ATOM     25  H   UNL     1     -38.436  20.878   0.605  0.00  0.00    +0.292 HD
ENDBRANCH   7  24
BRANCH   8  26
ATOM     26  O   UNL     1     -38.480  25.027   4.241  0.00  0.00    -0.503 OA
ATOM     27  H   UNL     1     -39.054  25.038   3.499  0.00  0.00    +0.292 HD
ENDBRANCH   8  26
BRANCH  11  28
ATOM     28  O   UNL     1     -36.624  26.682   5.361  0.00  0.00    -0.501 OA
ATOM     29  H   UNL     1     -37.007  27.413   4.917  0.00  0.00    +0.292 HD
ENDBRANCH  11  28
TORSDOF 7
ENDMDL
MODEL 7
REMARK VINA RESULT:      -6.0      2.977      6.481
REMARK  Name = 5322091
REMARK  7 active torsions:
REMARK  status: ('A' for Active; 'I' for Inactive)
REMARK    1  A    between atoms: C_5  and  C_12
REMARK    2  A    between atoms: C_7  and  O_24
REMARK    3  A    between atoms: C_8  and  O_26
REMARK    4  A    between atoms: C_10  and  O_22
REMARK    5  A    between atoms: C_11  and  O_28
REMARK    6  A    between atoms: C_15  and  O_18
REMARK    7  A    between atoms: C_16  and  O_20
REMARK                            x       y       z     vdW  Elec       q    Type
REMARK                         _______ _______ _______ _____ _____    ______ ____
ROOT
ATOM      1  O   UNL     1     -33.713  19.655   1.482  0.00  0.00    -0.450 OA
ATOM      2  O   UNL     1     -36.642  17.813  -0.671  0.00  0.00    -0.283 OA
ATOM      3  C   UNL     1     -34.414  17.784   0.104  0.00  0.00    +0.113 A 
ATOM      4  C   UNL     1     -33.457  18.465   0.852  0.00  0.00    +0.155 A 
ATOM      5  C   UNL     1     -34.984  20.196   1.379  0.00  0.00    +0.182 A 
ATOM      6  C   UNL     1     -35.761  18.361  -0.021  0.00  0.00    +0.238 A 
ATOM      7  C   UNL     1     -35.995  19.645   0.683  0.00  0.00    +0.208 A 
ATOM      8  C   UNL     1     -34.095  16.574  -0.519  0.00  0.00    +0.177 C 
ATOM      9  C   UNL     1     -32.171  17.939   0.983  0.00  0.00    +0.078 C 
ATOM     10  C   UNL     1     -31.848  16.731   0.362  0.00  0.00    +0.178 C 
ATOM     11  C   UNL     1     -32.809  16.050  -0.386  0.00  0.00    +0.202 C 
ENDROOT
BRANCH   5  12
ATOM     12  C   UNL     1     -35.124  21.474   2.101  0.00  0.00    +0.041 C 
ATOM     13  C   UNL     1     -35.604  21.487   3.410  0.00  0.00    +0.043 C 
ATOM     14  C   UNL     1     -34.777  22.672   1.473  0.00  0.00    +0.006 C 
ATOM     15  C   UNL     1     -35.737  22.697   4.092  0.00  0.00    +0.172 C 
ATOM     16  C   UNL     1     -35.391  23.893   3.465  0.00  0.00    +0.172 C 
ATOM     17  C   UNL     1     -34.910  23.881   2.156  0.00  0.00    +0.040 C 
BRANCH  15  18
ATOM     18  O   UNL     1     -36.207  22.697   5.371  0.00  0.00    -0.468 OA
ATOM     19  C   UNL     1     -35.353  22.153   6.376  0.00  0.00    +0.253 C 
ENDBRANCH  15  18
BRANCH  16  20
ATOM     20  O   UNL     1     -35.516  25.081   4.120  0.00  0.00    -0.468 OA
ATOM     21  C   UNL     1     -34.340  25.617   4.723  0.00  0.00    +0.253 C 
ENDBRANCH  16  20
ENDBRANCH   5  12
BRANCH  10  22
ATOM     22  O   UNL     1     -30.589  16.227   0.497  0.00  0.00    -0.468 OA
ATOM     23  C   UNL     1     -29.538  17.163   0.724  0.00  0.00    +0.253 C 
ENDBRANCH  10  22
BRANCH   7  24
ATOM     24  O   UNL     1     -37.239  20.228   0.573  0.00  0.00    -0.501 OA
ATOM     25  H   UNL     1     -37.988  19.699   0.378  0.00  0.00    +0.292 HD
ENDBRANCH   7  24
BRANCH   8  26
ATOM     26  O   UNL     1     -35.004  15.879  -1.260  0.00  0.00    -0.503 OA
ATOM     27  H   UNL     1     -35.499  16.317  -1.925  0.00  0.00    +0.292 HD
ENDBRANCH   8  26
BRANCH  11  28
ATOM     28  O   UNL     1     -32.484  14.871  -0.990  0.00  0.00    -0.501 OA
ATOM     29  H   UNL     1     -32.324  14.846  -1.913  0.00  0.00    +0.292 HD
ENDBRANCH  11  28
TORSDOF 7
ENDMDL
MODEL 8
REMARK VINA RESULT:      -5.9      2.656      5.474
REMARK  Name = 5322091
REMARK  7 active torsions:
REMARK  status: ('A' for Active; 'I' for Inactive)
REMARK    1  A    between atoms: C_5  and  C_12
REMARK    2  A    between atoms: C_7  and  O_24
REMARK    3  A    between atoms: C_8  and  O_26
REMARK    4  A    between atoms: C_10  and  O_22
REMARK    5  A    between atoms: C_11  and  O_28
REMARK    6  A    between atoms: C_15  and  O_18
REMARK    7  A    between atoms: C_16  and  O_20
REMARK                            x       y       z     vdW  Elec       q    Type
REMARK                         _______ _______ _______ _____ _____    ______ ____
ROOT
ATOM      1  O   UNL     1     -34.262  20.155   2.124  0.00  0.00    -0.450 OA
ATOM      2  O   UNL     1     -37.349  18.628  -0.056  0.00  0.00    -0.283 OA
ATOM      3  C   UNL     1     -35.075  18.489   0.557  0.00  0.00    +0.113 A 
ATOM      4  C   UNL     1     -34.062  19.060   1.323  0.00  0.00    +0.155 A 
ATOM      5  C   UNL     1     -35.530  20.708   2.181  0.00  0.00    +0.182 A 
ATOM      6  C   UNL     1     -36.420  19.082   0.601  0.00  0.00    +0.238 A 
ATOM      7  C   UNL     1     -36.592  20.260   1.486  0.00  0.00    +0.208 A 
ATOM      8  C   UNL     1     -34.812  17.374  -0.244  0.00  0.00    +0.177 C 
ATOM      9  C   UNL     1     -32.777  18.518   1.295  0.00  0.00    +0.078 C 
ATOM     10  C   UNL     1     -32.510  17.404   0.497  0.00  0.00    +0.178 C 
ATOM     11  C   UNL     1     -33.526  16.833  -0.270  0.00  0.00    +0.202 C 
ENDROOT
BRANCH   5  12
ATOM     12  C   UNL     1     -35.608  21.877   3.075  0.00  0.00    +0.041 C 
ATOM     13  C   UNL     1     -35.869  23.142   2.549  0.00  0.00    +0.043 C 
ATOM     14  C   UNL     1     -35.419  21.719   4.449  0.00  0.00    +0.006 C 
ATOM     15  C   UNL     1     -35.941  24.249   3.396  0.00  0.00    +0.172 C 
ATOM     16  C   UNL     1     -35.753  24.090   4.769  0.00  0.00    +0.172 C 
ATOM     17  C   UNL     1     -35.492  22.825   5.296  0.00  0.00    +0.040 C 
BRANCH  15  18
ATOM     18  O   UNL     1     -36.197  25.480   2.870  0.00  0.00    -0.468 OA
ATOM     19  C   UNL     1     -37.563  25.810   2.629  0.00  0.00    +0.253 C 
ENDBRANCH  15  18
BRANCH  16  20
ATOM     20  O   UNL     1     -35.821  25.162   5.606  0.00  0.00    -0.468 OA
ATOM     21  C   UNL     1     -34.611  25.879   5.843  0.00  0.00    +0.253 C 
ENDBRANCH  16  20
ENDBRANCH   5  12
BRANCH  10  22
ATOM     22  O   UNL     1     -31.251  16.883   0.478  0.00  0.00    -0.468 OA
ATOM     23  C   UNL     1     -30.187  17.745   0.875  0.00  0.00    +0.253 C 
ENDBRANCH  10  22
BRANCH   7  24
ATOM     24  O   UNL     1     -37.834  20.855   1.539  0.00  0.00    -0.501 OA
ATOM     25  H   UNL     1     -37.983  21.575   2.119  0.00  0.00    +0.292 HD
ENDBRANCH   7  24
BRANCH   8  26
ATOM     26  O   UNL     1     -35.776  16.788  -1.008  0.00  0.00    -0.503 OA
ATOM     27  H   UNL     1     -35.785  15.857  -1.120  0.00  0.00    +0.292 HD
ENDBRANCH   8  26
BRANCH  11  28
ATOM     28  O   UNL     1     -33.256  15.746  -1.047  0.00  0.00    -0.501 OA
ATOM     29  H   UNL     1     -32.975  14.945  -0.651  0.00  0.00    +0.292 HD
ENDBRANCH  11  28
TORSDOF 7
ENDMDL
MODEL 9
REMARK VINA RESULT:      -5.9      2.859      7.906
REMARK  Name = 5322091
REMARK  7 active torsions:
REMARK  status: ('A' for Active; 'I' for Inactive)
REMARK    1  A    between atoms: C_5  and  C_12
REMARK    2  A    between atoms: C_7  and  O_24
REMARK    3  A    between atoms: C_8  and  O_26
REMARK    4  A    between atoms: C_10  and  O_22
REMARK    5  A    between atoms: C_11  and  O_28
REMARK    6  A    between atoms: C_15  and  O_18
REMARK    7  A    between atoms: C_16  and  O_20
REMARK                            x       y       z     vdW  Elec       q    Type
REMARK                         _______ _______ _______ _____ _____    ______ ____
ROOT
ATOM      1  O   UNL     1     -34.938  22.904   1.431  0.00  0.00    -0.450 OA
ATOM      2  O   UNL     1     -35.962  23.150   5.368  0.00  0.00    -0.283 OA
ATOM      3  C   UNL     1     -35.407  24.281   3.374  0.00  0.00    +0.113 A 
ATOM      4  C   UNL     1     -35.058  24.129   2.034  0.00  0.00    +0.155 A 
ATOM      5  C   UNL     1     -35.187  21.769   2.185  0.00  0.00    +0.182 A 
ATOM      6  C   UNL     1     -35.659  23.080   4.184  0.00  0.00    +0.238 A 
ATOM      7  C   UNL     1     -35.524  21.777   3.489  0.00  0.00    +0.208 A 
ATOM      8  C   UNL     1     -35.513  25.557   3.936  0.00  0.00    +0.177 C 
ATOM      9  C   UNL     1     -34.811  25.254   1.246  0.00  0.00    +0.078 C 
ATOM     10  C   UNL     1     -34.916  26.529   1.803  0.00  0.00    +0.178 C 
ATOM     11  C   UNL     1     -35.267  26.680   3.145  0.00  0.00    +0.202 C 
ENDROOT
BRANCH   5  12
ATOM     12  C   UNL     1     -35.022  20.522   1.419  0.00  0.00    +0.041 C 
ATOM     13  C   UNL     1     -33.872  19.749   1.581  0.00  0.00    +0.043 C 
ATOM     14  C   UNL     1     -36.017  20.112   0.529  0.00  0.00    +0.006 C 
ATOM     15  C   UNL     1     -33.715  18.569   0.854  0.00  0.00    +0.172 C 
ATOM     16  C   UNL     1     -34.709  18.160  -0.034  0.00  0.00    +0.172 C 
ATOM     17  C   UNL     1     -35.861  18.931  -0.197  0.00  0.00    +0.040 C 
BRANCH  15  18
ATOM     18  O   UNL     1     -32.587  17.823   1.022  0.00  0.00    -0.468 OA
ATOM     19  C   UNL     1     -31.343  18.456   0.729  0.00  0.00    +0.253 C 
ENDBRANCH  15  18
BRANCH  16  20
ATOM     20  O   UNL     1     -34.569  17.009  -0.749  0.00  0.00    -0.468 OA
ATOM     21  C   UNL     1     -35.163  15.832  -0.207  0.00  0.00    +0.253 C 
ENDBRANCH  16  20
ENDBRANCH   5  12
BRANCH  10  22
ATOM     22  O   UNL     1     -34.673  27.620   1.024  0.00  0.00    -0.468 OA
ATOM     23  C   UNL     1     -33.309  27.925   0.743  0.00  0.00    +0.253 C 
ENDBRANCH  10  22
BRANCH   7  24
ATOM     24  O   UNL     1     -35.733  20.627   4.219  0.00  0.00    -0.501 OA
ATOM     25  H   UNL     1     -35.043  20.278   4.749  0.00  0.00    +0.292 HD
ENDBRANCH   7  24
BRANCH   8  26
ATOM     26  O   UNL     1     -35.851  25.746   5.242  0.00  0.00    -0.503 OA
ATOM     27  H   UNL     1     -35.425  26.413   5.745  0.00  0.00    +0.292 HD
ENDBRANCH   8  26
BRANCH  11  28
ATOM     28  O   UNL     1     -35.365  27.929   3.682  0.00  0.00    -0.501 OA
ATOM     29  H   UNL     1     -34.602  28.354   4.022  0.00  0.00    +0.292 HD
ENDBRANCH  11  28
TORSDOF 7
ENDMDL
