MODEL 1
REMARK VINA RESULT:      -6.1      0.000      0.000
REMARK  Name = 5486929
REMARK  6 active torsions:
REMARK  status: ('A' for Active; 'I' for Inactive)
REMARK    1  A    between atoms: C_2  and  C_17
REMARK    2  A    between atoms: C_10  and  O_24
REMARK    3  A    between atoms: C_11  and  O_26
REMARK    4  A    between atoms: C_17  and  C_18
REMARK    5  A    between atoms: C_18  and  O_20
REMARK    6  A    between atoms: O_20  and  C_22
REMARK                            x       y       z     vdW  Elec       q    Type
REMARK                         _______ _______ _______ _____ _____    ______ ____
ROOT
ATOM      1  O   UNL     1     -36.904  21.826   1.674  0.00  0.00    -0.286 OA
ATOM      2  C   UNL     1     -36.888  25.067   4.257  0.00  0.00    +0.106 C 
ATOM      3  C   UNL     1     -37.866  24.979   3.109  0.00  0.00    -0.005 C 
ATOM      4  C   UNL     1     -36.238  23.756   4.633  0.00  0.00    -0.005 C 
ATOM      5  C   UNL     1     -37.905  23.869   2.256  0.00  0.00    +0.069 C 
ATOM      6  C   UNL     1     -36.274  22.643   3.784  0.00  0.00    +0.069 C 
ATOM      7  C   UNL     1     -37.025  22.710   2.512  0.00  0.00    +0.201 C 
ATOM      8  C   UNL     1     -38.737  26.051   2.858  0.00  0.00    -0.003 C 
ATOM      9  C   UNL     1     -35.544  23.651   5.851  0.00  0.00    -0.003 C 
ATOM     10  C   UNL     1     -38.789  23.835   1.170  0.00  0.00    +0.136 C 
ATOM     11  C   UNL     1     -35.622  21.454   4.137  0.00  0.00    +0.136 C 
ATOM     12  C   UNL     1     -39.623  26.016   1.780  0.00  0.00    +0.003 C 
ATOM     13  C   UNL     1     -34.900  22.466   6.205  0.00  0.00    +0.003 C 
ATOM     14  C   UNL     1     -39.647  24.910   0.935  0.00  0.00    +0.037 C 
ATOM     15  C   UNL     1     -34.937  21.370   5.348  0.00  0.00    +0.037 C 
ENDROOT
BRANCH   2  17
ATOM     16  O   UNL     1     -35.511  26.942   4.767  0.00  0.00    -0.292 OA
ATOM     17  C   UNL     1     -35.826  26.084   3.942  0.00  0.00    +0.198 C 
BRANCH  17  18
ATOM     18  C   UNL     1     -35.176  26.005   2.568  0.00  0.00    +0.226 C 
ATOM     19  C   UNL     1     -33.784  25.402   2.645  0.00  0.00    +0.056 C 
BRANCH  18  20
ATOM     20  O   UNL     1     -35.063  27.312   2.030  0.00  0.00    -0.445 OA
BRANCH  20  22
ATOM     21  O   UNL     1     -36.761  28.745   1.396  0.00  0.00    -0.250 OA
ATOM     22  C   UNL     1     -36.101  27.726   1.240  0.00  0.00    +0.318 C 
ATOM     23  C   UNL     1     -36.325  26.743   0.131  0.00  0.00    +0.121 C 
ENDBRANCH  20  22
ENDBRANCH  18  20
ENDBRANCH  17  18
ENDBRANCH   2  17
BRANCH  10  24
ATOM     24  O   UNL     1     -38.876  22.774   0.318  0.00  0.00    -0.505 OA
ATOM     25  H   UNL     1     -39.650  22.243   0.308  0.00  0.00    +0.292 HD
ENDBRANCH  10  24
BRANCH  11  26
ATOM     26  O   UNL     1     -35.638  20.340   3.352  0.00  0.00    -0.505 OA
ATOM     27  H   UNL     1     -36.357  19.740   3.404  0.00  0.00    +0.292 HD
ENDBRANCH  11  26
TORSDOF 6
ENDMDL
MODEL 2
REMARK VINA RESULT:      -6.0      2.602      4.758
REMARK  Name = 5486929
REMARK  6 active torsions:
REMARK  status: ('A' for Active; 'I' for Inactive)
REMARK    1  A    between atoms: C_2  and  C_17
REMARK    2  A    between atoms: C_10  and  O_24
REMARK    3  A    between atoms: C_11  and  O_26
REMARK    4  A    between atoms: C_17  and  C_18
REMARK    5  A    between atoms: C_18  and  O_20
REMARK    6  A    between atoms: O_20  and  C_22
REMARK                            x       y       z     vdW  Elec       q    Type
REMARK                         _______ _______ _______ _____ _____    ______ ____
ROOT
ATOM      1  O   UNL     1     -35.773  20.261   3.083  0.00  0.00    -0.286 OA
ATOM      2  C   UNL     1     -34.615  23.953   1.597  0.00  0.00    +0.106 C 
ATOM      3  C   UNL     1     -34.832  23.731   3.076  0.00  0.00    -0.005 C 
ATOM      4  C   UNL     1     -34.441  22.688   0.789  0.00  0.00    -0.005 C 
ATOM      5  C   UNL     1     -35.184  22.477   3.591  0.00  0.00    +0.069 C 
ATOM      6  C   UNL     1     -34.791  21.432   1.299  0.00  0.00    +0.069 C 
ATOM      7  C   UNL     1     -35.279  21.310   2.689  0.00  0.00    +0.201 C 
ATOM      8  C   UNL     1     -34.718  24.814   3.962  0.00  0.00    -0.003 C 
ATOM      9  C   UNL     1     -33.950  22.767  -0.525  0.00  0.00    -0.003 C 
ATOM     10  C   UNL     1     -35.426  22.311   4.960  0.00  0.00    +0.136 C 
ATOM     11  C   UNL     1     -34.664  20.281   0.510  0.00  0.00    +0.136 C 
ATOM     12  C   UNL     1     -34.954  24.649   5.328  0.00  0.00    +0.003 C 
ATOM     13  C   UNL     1     -33.818  21.622  -1.308  0.00  0.00    +0.003 C 
ATOM     14  C   UNL     1     -35.310  23.398   5.826  0.00  0.00    +0.037 C 
ATOM     15  C   UNL     1     -34.177  20.380  -0.792  0.00  0.00    +0.037 C 
ENDROOT
BRANCH   2  17
ATOM     16  O   UNL     1     -35.615  25.959   0.791  0.00  0.00    -0.292 OA
ATOM     17  C   UNL     1     -35.752  24.760   1.033  0.00  0.00    +0.198 C 
BRANCH  17  18
ATOM     18  C   UNL     1     -37.065  24.029   0.787  0.00  0.00    +0.226 C 
ATOM     19  C   UNL     1     -37.489  24.123  -0.668  0.00  0.00    +0.056 C 
BRANCH  18  20
ATOM     20  O   UNL     1     -38.081  24.618   1.582  0.00  0.00    -0.445 OA
BRANCH  20  22
ATOM     21  O   UNL     1     -38.342  24.447   3.872  0.00  0.00    -0.250 OA
ATOM     22  C   UNL     1     -38.382  23.965   2.747  0.00  0.00    +0.318 C 
ATOM     23  C   UNL     1     -38.778  22.550   2.454  0.00  0.00    +0.121 C 
ENDBRANCH  20  22
ENDBRANCH  18  20
ENDBRANCH  17  18
ENDBRANCH   2  17
BRANCH  10  24
ATOM     24  O   UNL     1     -35.758  21.110   5.514  0.00  0.00    -0.505 OA
ATOM     25  H   UNL     1     -36.159  21.079   6.361  0.00  0.00    +0.292 HD
ENDBRANCH  10  24
BRANCH  11  26
ATOM     26  O   UNL     1     -34.979  19.034   0.964  0.00  0.00    -0.505 OA
ATOM     27  H   UNL     1     -34.418  18.309   0.769  0.00  0.00    +0.292 HD
ENDBRANCH  11  26
TORSDOF 6
ENDMDL
MODEL 3
REMARK VINA RESULT:      -5.9      2.224      4.838
REMARK  Name = 5486929
REMARK  6 active torsions:
REMARK  status: ('A' for Active; 'I' for Inactive)
REMARK    1  A    between atoms: C_2  and  C_17
REMARK    2  A    between atoms: C_10  and  O_24
REMARK    3  A    between atoms: C_11  and  O_26
REMARK    4  A    between atoms: C_17  and  C_18
REMARK    5  A    between atoms: C_18  and  O_20
REMARK    6  A    between atoms: O_20  and  C_22
REMARK                            x       y       z     vdW  Elec       q    Type
REMARK                         _______ _______ _______ _____ _____    ______ ____
ROOT
ATOM      1  O   UNL     1     -35.943  20.132   2.870  0.00  0.00    -0.286 OA
ATOM      2  C   UNL     1     -36.909  24.110   2.218  0.00  0.00    +0.106 C 
ATOM      3  C   UNL     1     -36.290  23.651   3.518  0.00  0.00    -0.005 C 
ATOM      4  C   UNL     1     -36.758  23.137   1.072  0.00  0.00    -0.005 C 
ATOM      5  C   UNL     1     -35.924  22.317   3.732  0.00  0.00    +0.069 C 
ATOM      6  C   UNL     1     -36.392  21.802   1.279  0.00  0.00    +0.069 C 
ATOM      7  C   UNL     1     -36.069  21.329   2.643  0.00  0.00    +0.201 C 
ATOM      8  C   UNL     1     -36.111  24.574   4.562  0.00  0.00    -0.003 C 
ATOM      9  C   UNL     1     -37.027  23.564  -0.240  0.00  0.00    -0.003 C 
ATOM     10  C   UNL     1     -35.398  21.910   4.964  0.00  0.00    +0.136 C 
ATOM     11  C   UNL     1     -36.307  20.909   0.203  0.00  0.00    +0.136 C 
ATOM     12  C   UNL     1     -35.581  24.171   5.789  0.00  0.00    +0.003 C 
ATOM     13  C   UNL     1     -36.938  22.678  -1.312  0.00  0.00    +0.003 C 
ATOM     14  C   UNL     1     -35.227  22.840   5.990  0.00  0.00    +0.037 C 
ATOM     15  C   UNL     1     -36.581  21.351  -1.090  0.00  0.00    +0.037 C 
ENDROOT
BRANCH   2  17
ATOM     16  O   UNL     1     -39.119  23.589   2.935  0.00  0.00    -0.292 OA
ATOM     17  C   UNL     1     -38.364  24.420   2.430  0.00  0.00    +0.198 C 
BRANCH  17  18
ATOM     18  C   UNL     1     -38.853  25.792   1.987  0.00  0.00    +0.226 C 
ATOM     19  C   UNL     1     -37.695  26.749   1.765  0.00  0.00    +0.056 C 
BRANCH  18  20
ATOM     20  O   UNL     1     -39.689  26.337   2.995  0.00  0.00    -0.445 OA
BRANCH  20  22
ATOM     21  O   UNL     1     -41.568  25.770   1.776  0.00  0.00    -0.250 OA
ATOM     22  C   UNL     1     -41.033  26.306   2.738  0.00  0.00    +0.318 C 
ATOM     23  C   UNL     1     -41.778  27.033   3.815  0.00  0.00    +0.121 C 
ENDBRANCH  20  22
ENDBRANCH  18  20
ENDBRANCH  17  18
ENDBRANCH   2  17
BRANCH  10  24
ATOM     24  O   UNL     1     -35.013  20.627   5.219  0.00  0.00    -0.505 OA
ATOM     25  H   UNL     1     -34.209  20.460   5.672  0.00  0.00    +0.292 HD
ENDBRANCH  10  24
BRANCH  11  26
ATOM     26  O   UNL     1     -35.943  19.604   0.350  0.00  0.00    -0.505 OA
ATOM     27  H   UNL     1     -36.233  19.117   1.097  0.00  0.00    +0.292 HD
ENDBRANCH  11  26
TORSDOF 6
ENDMDL
MODEL 4
REMARK VINA RESULT:      -5.8      1.942      4.608
REMARK  Name = 5486929
REMARK  6 active torsions:
REMARK  status: ('A' for Active; 'I' for Inactive)
REMARK    1  A    between atoms: C_2  and  C_17
REMARK    2  A    between atoms: C_10  and  O_24
REMARK    3  A    between atoms: C_11  and  O_26
REMARK    4  A    between atoms: C_17  and  C_18
REMARK    5  A    between atoms: C_18  and  O_20
REMARK    6  A    between atoms: O_20  and  C_22
REMARK                            x       y       z     vdW  Elec       q    Type
REMARK                         _______ _______ _______ _____ _____    ______ ____
ROOT
ATOM      1  O   UNL     1     -35.526  21.795   1.236  0.00  0.00    -0.286 OA
ATOM      2  C   UNL     1     -34.299  25.216   3.230  0.00  0.00    +0.106 C 
ATOM      3  C   UNL     1     -34.712  23.971   3.980  0.00  0.00    -0.005 C 
ATOM      4  C   UNL     1     -33.970  24.992   1.772  0.00  0.00    -0.005 C 
ATOM      5  C   UNL     1     -35.089  22.798   3.315  0.00  0.00    +0.069 C 
ATOM      6  C   UNL     1     -34.345  23.822   1.102  0.00  0.00    +0.069 C 
ATOM      7  C   UNL     1     -35.018  22.731   1.840  0.00  0.00    +0.201 C 
ATOM      8  C   UNL     1     -34.760  23.993   5.384  0.00  0.00    -0.003 C 
ATOM      9  C   UNL     1     -33.303  25.996   1.051  0.00  0.00    -0.003 C 
ATOM     10  C   UNL     1     -35.515  21.674   4.035  0.00  0.00    +0.136 C 
ATOM     11  C   UNL     1     -34.071  23.661  -0.263  0.00  0.00    +0.136 C 
ATOM     12  C   UNL     1     -35.178  22.872   6.103  0.00  0.00    +0.003 C 
ATOM     13  C   UNL     1     -33.024  25.835  -0.306  0.00  0.00    +0.003 C 
ATOM     14  C   UNL     1     -35.557  21.715   5.428  0.00  0.00    +0.037 C 
ATOM     15  C   UNL     1     -33.410  24.670  -0.962  0.00  0.00    +0.037 C 
ENDROOT
BRANCH   2  17
ATOM     16  O   UNL     1     -35.203  27.260   4.051  0.00  0.00    -0.292 OA
ATOM     17  C   UNL     1     -35.372  26.261   3.352  0.00  0.00    +0.198 C 
BRANCH  17  18
ATOM     18  C   UNL     1     -36.663  26.021   2.582  0.00  0.00    +0.226 C 
ATOM     19  C   UNL     1     -36.969  27.169   1.636  0.00  0.00    +0.056 C 
BRANCH  18  20
ATOM     20  O   UNL     1     -37.738  25.907   3.500  0.00  0.00    -0.445 OA
BRANCH  20  22
ATOM     21  O   UNL     1     -38.333  23.685   3.280  0.00  0.00    -0.250 OA
ATOM     22  C   UNL     1     -38.611  24.877   3.274  0.00  0.00    +0.318 C 
ATOM     23  C   UNL     1     -39.984  25.417   3.012  0.00  0.00    +0.121 C 
ENDBRANCH  20  22
ENDBRANCH  18  20
ENDBRANCH  17  18
ENDBRANCH   2  17
BRANCH  10  24
ATOM     24  O   UNL     1     -35.880  20.505   3.436  0.00  0.00    -0.505 OA
ATOM     25  H   UNL     1     -36.514  19.948   3.845  0.00  0.00    +0.292 HD
ENDBRANCH  10  24
BRANCH  11  26
ATOM     26  O   UNL     1     -34.403  22.537  -0.958  0.00  0.00    -0.505 OA
ATOM     27  H   UNL     1     -35.016  21.927  -0.597  0.00  0.00    +0.292 HD
ENDBRANCH  11  26
TORSDOF 6
ENDMDL
MODEL 5
REMARK VINA RESULT:      -5.8      2.338      3.435
REMARK  Name = 5486929
REMARK  6 active torsions:
REMARK  status: ('A' for Active; 'I' for Inactive)
REMARK    1  A    between atoms: C_2  and  C_17
REMARK    2  A    between atoms: C_10  and  O_24
REMARK    3  A    between atoms: C_11  and  O_26
REMARK    4  A    between atoms: C_17  and  C_18
REMARK    5  A    between atoms: C_18  and  O_20
REMARK    6  A    between atoms: O_20  and  C_22
REMARK                            x       y       z     vdW  Elec       q    Type
REMARK                         _______ _______ _______ _____ _____    ______ ____
ROOT
ATOM      1  O   UNL     1     -35.501  22.038   1.395  0.00  0.00    -0.286 OA
ATOM      2  C   UNL     1     -35.115  25.571   3.530  0.00  0.00    +0.106 C 
ATOM      3  C   UNL     1     -35.561  25.566   2.086  0.00  0.00    -0.005 C 
ATOM      4  C   UNL     1     -35.231  24.235   4.228  0.00  0.00    -0.005 C 
ATOM      5  C   UNL     1     -35.733  24.375   1.370  0.00  0.00    +0.069 C 
ATOM      6  C   UNL     1     -35.402  23.042   3.518  0.00  0.00    +0.069 C 
ATOM      7  C   UNL     1     -35.550  23.074   2.046  0.00  0.00    +0.201 C 
ATOM      8  C   UNL     1     -35.774  26.786   1.424  0.00  0.00    -0.003 C 
ATOM      9  C   UNL     1     -35.127  24.175   5.628  0.00  0.00    -0.003 C 
ATOM     10  C   UNL     1     -36.100  24.402   0.018  0.00  0.00    +0.136 C 
ATOM     11  C   UNL     1     -35.458  21.813   4.188  0.00  0.00    +0.136 C 
ATOM     12  C   UNL     1     -36.145  26.814   0.079  0.00  0.00    +0.003 C 
ATOM     13  C   UNL     1     -35.187  22.953   6.297  0.00  0.00    +0.003 C 
ATOM     14  C   UNL     1     -36.306  25.623  -0.624  0.00  0.00    +0.037 C 
ATOM     15  C   UNL     1     -35.350  21.773   5.577  0.00  0.00    +0.037 C 
ENDROOT
BRANCH   2  17
ATOM     16  O   UNL     1     -32.766  25.399   3.179  0.00  0.00    -0.292 OA
ATOM     17  C   UNL     1     -33.700  26.068   3.622  0.00  0.00    +0.198 C 
BRANCH  17  18
ATOM     18  C   UNL     1     -33.481  27.419   4.289  0.00  0.00    +0.226 C 
ATOM     19  C   UNL     1     -33.351  28.531   3.264  0.00  0.00    +0.056 C 
BRANCH  18  20
ATOM     20  O   UNL     1     -32.284  27.375   5.049  0.00  0.00    -0.445 OA
BRANCH  20  22
ATOM     21  O   UNL     1     -32.938  27.000   7.233  0.00  0.00    -0.250 OA
ATOM     22  C   UNL     1     -32.405  27.692   6.375  0.00  0.00    +0.318 C 
ATOM     23  C   UNL     1     -31.784  29.029   6.642  0.00  0.00    +0.121 C 
ENDBRANCH  20  22
ENDBRANCH  18  20
ENDBRANCH  17  18
ENDBRANCH   2  17
BRANCH  10  24
ATOM     24  O   UNL     1     -36.293  23.273  -0.720  0.00  0.00    -0.505 OA
ATOM     25  H   UNL     1     -36.340  22.437  -0.296  0.00  0.00    +0.292 HD
ENDBRANCH  10  24
BRANCH  11  26
ATOM     26  O   UNL     1     -35.637  20.625   3.543  0.00  0.00    -0.505 OA
ATOM     27  H   UNL     1     -35.731  19.834   4.037  0.00  0.00    +0.292 HD
ENDBRANCH  11  26
TORSDOF 6
ENDMDL
MODEL 6
REMARK VINA RESULT:      -5.8      2.383      6.267
REMARK  Name = 5486929
REMARK  6 active torsions:
REMARK  status: ('A' for Active; 'I' for Inactive)
REMARK    1  A    between atoms: C_2  and  C_17
REMARK    2  A    between atoms: C_10  and  O_24
REMARK    3  A    between atoms: C_11  and  O_26
REMARK    4  A    between atoms: C_17  and  C_18
REMARK    5  A    between atoms: C_18  and  O_20
REMARK    6  A    between atoms: O_20  and  C_22
REMARK                            x       y       z     vdW  Elec       q    Type
REMARK                         _______ _______ _______ _____ _____    ______ ____
ROOT
ATOM      1  O   UNL     1     -36.528  26.066   3.564  0.00  0.00    -0.286 OA
ATOM      2  C   UNL     1     -36.448  22.182   2.118  0.00  0.00    +0.106 C 
ATOM      3  C   UNL     1     -36.038  22.504   3.536  0.00  0.00    -0.005 C 
ATOM      4  C   UNL     1     -37.257  23.261   1.437  0.00  0.00    -0.005 C 
ATOM      5  C   UNL     1     -36.100  23.807   4.045  0.00  0.00    +0.069 C 
ATOM      6  C   UNL     1     -37.323  24.565   1.940  0.00  0.00    +0.069 C 
ATOM      7  C   UNL     1     -36.648  24.899   3.213  0.00  0.00    +0.201 C 
ATOM      8  C   UNL     1     -35.542  21.482   4.363  0.00  0.00    -0.003 C 
ATOM      9  C   UNL     1     -37.936  22.966   0.242  0.00  0.00    -0.003 C 
ATOM     10  C   UNL     1     -35.668  24.086   5.348  0.00  0.00    +0.136 C 
ATOM     11  C   UNL     1     -38.042  25.558   1.262  0.00  0.00    +0.136 C 
ATOM     12  C   UNL     1     -35.116  21.757   5.663  0.00  0.00    +0.003 C 
ATOM     13  C   UNL     1     -38.656  23.952  -0.432  0.00  0.00    +0.003 C 
ATOM     14  C   UNL     1     -35.177  23.059   6.154  0.00  0.00    +0.037 C 
ATOM     15  C   UNL     1     -38.706  25.247   0.077  0.00  0.00    +0.037 C 
ENDROOT
BRANCH   2  17
ATOM     16  O   UNL     1     -34.408  22.746   1.028  0.00  0.00    -0.292 OA
ATOM     17  C   UNL     1     -35.229  21.869   1.296  0.00  0.00    +0.198 C 
BRANCH  17  18
ATOM     18  C   UNL     1     -35.069  20.434   0.812  0.00  0.00    +0.226 C 
ATOM     19  C   UNL     1     -36.376  19.667   0.903  0.00  0.00    +0.056 C 
BRANCH  18  20
ATOM     20  O   UNL     1     -34.111  19.774   1.624  0.00  0.00    -0.445 OA
BRANCH  20  22
ATOM     21  O   UNL     1     -32.236  20.231   0.355  0.00  0.00    -0.250 OA
ATOM     22  C   UNL     1     -32.923  19.466   1.018  0.00  0.00    +0.318 C 
ATOM     23  C   UNL     1     -32.569  18.034   1.281  0.00  0.00    +0.121 C 
ENDBRANCH  20  22
ENDBRANCH  18  20
ENDBRANCH  17  18
ENDBRANCH   2  17
BRANCH  10  24
ATOM     24  O   UNL     1     -35.719  25.333   5.896  0.00  0.00    -0.505 OA
ATOM     25  H   UNL     1     -36.387  25.544   6.519  0.00  0.00    +0.292 HD
ENDBRANCH  10  24
BRANCH  11  26
ATOM     26  O   UNL     1     -38.147  26.838   1.717  0.00  0.00    -0.505 OA
ATOM     27  H   UNL     1     -38.905  27.349   1.508  0.00  0.00    +0.292 HD
ENDBRANCH  11  26
TORSDOF 6
ENDMDL
MODEL 7
REMARK VINA RESULT:      -5.8      2.205      6.138
REMARK  Name = 5486929
REMARK  6 active torsions:
REMARK  status: ('A' for Active; 'I' for Inactive)
REMARK    1  A    between atoms: C_2  and  C_17
REMARK    2  A    between atoms: C_10  and  O_24
REMARK    3  A    between atoms: C_11  and  O_26
REMARK    4  A    between atoms: C_17  and  C_18
REMARK    5  A    between atoms: C_18  and  O_20
REMARK    6  A    between atoms: O_20  and  C_22
REMARK                            x       y       z     vdW  Elec       q    Type
REMARK                         _______ _______ _______ _____ _____    ______ ____
ROOT
ATOM      1  O   UNL     1     -37.845  26.570   3.095  0.00  0.00    -0.286 OA
ATOM      2  C   UNL     1     -37.453  22.458   2.740  0.00  0.00    +0.106 C 
ATOM      3  C   UNL     1     -36.714  23.232   3.807  0.00  0.00    -0.005 C 
ATOM      4  C   UNL     1     -38.617  23.196   2.120  0.00  0.00    -0.005 C 
ATOM      5  C   UNL     1     -36.871  24.614   3.960  0.00  0.00    +0.069 C 
ATOM      6  C   UNL     1     -38.780  24.578   2.269  0.00  0.00    +0.069 C 
ATOM      7  C   UNL     1     -37.837  25.345   3.113  0.00  0.00    +0.201 C 
ATOM      8  C   UNL     1     -35.812  22.561   4.648  0.00  0.00    -0.003 C 
ATOM      9  C   UNL     1     -39.548  22.490   1.339  0.00  0.00    -0.003 C 
ATOM     10  C   UNL     1     -36.137  25.314   4.926  0.00  0.00    +0.136 C 
ATOM     11  C   UNL     1     -39.842  25.244   1.644  0.00  0.00    +0.136 C 
ATOM     12  C   UNL     1     -35.083  23.255   5.615  0.00  0.00    +0.003 C 
ATOM     13  C   UNL     1     -40.608  23.151   0.720  0.00  0.00    +0.003 C 
ATOM     14  C   UNL     1     -35.244  24.631   5.752  0.00  0.00    +0.037 C 
ATOM     15  C   UNL     1     -40.753  24.527   0.871  0.00  0.00    +0.037 C 
ENDROOT
BRANCH   2  17
ATOM     16  O   UNL     1     -35.941  22.869   0.947  0.00  0.00    -0.292 OA
ATOM     17  C   UNL     1     -36.493  22.034   1.663  0.00  0.00    +0.198 C 
BRANCH  17  18
ATOM     18  C   UNL     1     -36.249  20.540   1.502  0.00  0.00    +0.226 C 
ATOM     19  C   UNL     1     -34.841  20.159   1.924  0.00  0.00    +0.056 C 
BRANCH  18  20
ATOM     20  O   UNL     1     -36.413  20.187   0.138  0.00  0.00    -0.445 OA
BRANCH  20  22
ATOM     21  O   UNL     1     -36.934  17.940  -0.002  0.00  0.00    -0.250 OA
ATOM     22  C   UNL     1     -37.236  19.122  -0.109  0.00  0.00    +0.318 C 
ATOM     23  C   UNL     1     -38.588  19.606  -0.537  0.00  0.00    +0.121 C 
ENDBRANCH  20  22
ENDBRANCH  18  20
ENDBRANCH  17  18
ENDBRANCH   2  17
BRANCH  10  24
ATOM     24  O   UNL     1     -36.263  26.657   5.124  0.00  0.00    -0.505 OA
ATOM     25  H   UNL     1     -37.109  27.031   5.277  0.00  0.00    +0.292 HD
ENDBRANCH  10  24
BRANCH  11  26
ATOM     26  O   UNL     1     -40.051  26.586   1.768  0.00  0.00    -0.505 OA
ATOM     27  H   UNL     1     -40.683  26.907   2.382  0.00  0.00    +0.292 HD
ENDBRANCH  11  26
TORSDOF 6
ENDMDL
MODEL 8
REMARK VINA RESULT:      -5.8      2.351      3.561
REMARK  Name = 5486929
REMARK  6 active torsions:
REMARK  status: ('A' for Active; 'I' for Inactive)
REMARK    1  A    between atoms: C_2  and  C_17
REMARK    2  A    between atoms: C_10  and  O_24
REMARK    3  A    between atoms: C_11  and  O_26
REMARK    4  A    between atoms: C_17  and  C_18
REMARK    5  A    between atoms: C_18  and  O_20
REMARK    6  A    between atoms: O_20  and  C_22
REMARK                            x       y       z     vdW  Elec       q    Type
REMARK                         _______ _______ _______ _____ _____    ______ ____
ROOT
ATOM      1  O   UNL     1     -35.408  20.250   3.109  0.00  0.00    -0.286 OA
ATOM      2  C   UNL     1     -36.856  23.995   2.080  0.00  0.00    +0.106 C 
ATOM      3  C   UNL     1     -37.226  22.762   1.289  0.00  0.00    -0.005 C 
ATOM      4  C   UNL     1     -36.298  23.716   3.456  0.00  0.00    -0.005 C 
ATOM      5  C   UNL     1     -36.774  21.488   1.653  0.00  0.00    +0.069 C 
ATOM      6  C   UNL     1     -35.844  22.445   3.826  0.00  0.00    +0.069 C 
ATOM      7  C   UNL     1     -35.973  21.313   2.883  0.00  0.00    +0.201 C 
ATOM      8  C   UNL     1     -38.012  22.892   0.132  0.00  0.00    -0.003 C 
ATOM      9  C   UNL     1     -36.192  24.764   4.386  0.00  0.00    -0.003 C 
ATOM     10  C   UNL     1     -37.092  20.368   0.874  0.00  0.00    +0.136 C 
ATOM     11  C   UNL     1     -35.287  22.225   5.092  0.00  0.00    +0.136 C 
ATOM     12  C   UNL     1     -38.335  21.777  -0.642  0.00  0.00    +0.003 C 
ATOM     13  C   UNL     1     -35.642  24.546   5.649  0.00  0.00    +0.003 C 
ATOM     14  C   UNL     1     -37.873  20.516  -0.272  0.00  0.00    +0.037 C 
ATOM     15  C   UNL     1     -35.188  23.278   6.000  0.00  0.00    +0.037 C 
ENDROOT
BRANCH   2  17
ATOM     16  O   UNL     1     -36.214  25.908   0.816  0.00  0.00    -0.292 OA
ATOM     17  C   UNL     1     -35.878  24.826   1.297  0.00  0.00    +0.198 C 
BRANCH  17  18
ATOM     18  C   UNL     1     -34.474  24.265   1.126  0.00  0.00    +0.226 C 
ATOM     19  C   UNL     1     -33.429  25.186   1.730  0.00  0.00    +0.056 C 
BRANCH  18  20
ATOM     20  O   UNL     1     -34.193  24.126  -0.258  0.00  0.00    -0.445 OA
BRANCH  20  22
ATOM     21  O   UNL     1     -35.028  22.557  -1.734  0.00  0.00    -0.250 OA
ATOM     22  C   UNL     1     -34.335  22.866  -0.773  0.00  0.00    +0.318 C 
ATOM     23  C   UNL     1     -33.510  21.894   0.013  0.00  0.00    +0.121 C 
ENDBRANCH  20  22
ENDBRANCH  18  20
ENDBRANCH  17  18
ENDBRANCH   2  17
BRANCH  10  24
ATOM     24  O   UNL     1     -36.689  19.105   1.191  0.00  0.00    -0.505 OA
ATOM     25  H   UNL     1     -36.747  18.420   0.553  0.00  0.00    +0.292 HD
ENDBRANCH  10  24
BRANCH  11  26
ATOM     26  O   UNL     1     -34.843  21.004   5.505  0.00  0.00    -0.505 OA
ATOM     27  H   UNL     1     -34.188  20.551   5.010  0.00  0.00    +0.292 HD
ENDBRANCH  11  26
TORSDOF 6
ENDMDL
MODEL 9
REMARK VINA RESULT:      -5.8      1.914      3.003
REMARK  Name = 5486929
REMARK  6 active torsions:
REMARK  status: ('A' for Active; 'I' for Inactive)
REMARK    1  A    between atoms: C_2  and  C_17
REMARK    2  A    between atoms: C_10  and  O_24
REMARK    3  A    between atoms: C_11  and  O_26
REMARK    4  A    between atoms: C_17  and  C_18
REMARK    5  A    between atoms: C_18  and  O_20
REMARK    6  A    between atoms: O_20  and  C_22
REMARK                            x       y       z     vdW  Elec       q    Type
REMARK                         _______ _______ _______ _____ _____    ______ ____
ROOT
ATOM      1  O   UNL     1     -35.580  20.146   3.078  0.00  0.00    -0.286 OA
ATOM      2  C   UNL     1     -36.542  24.069   2.146  0.00  0.00    +0.106 C 
ATOM      3  C   UNL     1     -36.995  22.917   1.278  0.00  0.00    -0.005 C 
ATOM      4  C   UNL     1     -36.104  23.673   3.537  0.00  0.00    -0.005 C 
ATOM      5  C   UNL     1     -36.709  21.587   1.606  0.00  0.00    +0.069 C 
ATOM      6  C   UNL     1     -35.816  22.345   3.871  0.00  0.00    +0.069 C 
ATOM      7  C   UNL     1     -36.010  21.273   2.870  0.00  0.00    +0.201 C 
ATOM      8  C   UNL     1     -37.689  23.181   0.085  0.00  0.00    -0.003 C 
ATOM      9  C   UNL     1     -35.942  24.665   4.519  0.00  0.00    -0.003 C 
ATOM     10  C   UNL     1     -37.099  20.543   0.759  0.00  0.00    +0.136 C 
ATOM     11  C   UNL     1     -35.366  22.013   5.156  0.00  0.00    +0.136 C 
ATOM     12  C   UNL     1     -38.083  22.141  -0.758  0.00  0.00    +0.003 C 
ATOM     13  C   UNL     1     -35.498  24.335   5.800  0.00  0.00    +0.003 C 
ATOM     14  C   UNL     1     -37.787  20.823  -0.422  0.00  0.00    +0.037 C 
ATOM     15  C   UNL     1     -35.208  23.011   6.116  0.00  0.00    +0.037 C 
ENDROOT
BRANCH   2  17
ATOM     16  O   UNL     1     -34.435  24.223   1.048  0.00  0.00    -0.292 OA
ATOM     17  C   UNL     1     -35.433  24.815   1.460  0.00  0.00    +0.198 C 
BRANCH  17  18
ATOM     18  C   UNL     1     -35.600  26.321   1.309  0.00  0.00    +0.226 C 
ATOM     19  C   UNL     1     -36.051  26.693  -0.093  0.00  0.00    +0.056 C 
BRANCH  18  20
ATOM     20  O   UNL     1     -34.355  26.955   1.555  0.00  0.00    -0.445 OA
BRANCH  20  22
ATOM     21  O   UNL     1     -34.836  28.496   3.208  0.00  0.00    -0.250 OA
ATOM     22  C   UNL     1     -34.211  27.531   2.789  0.00  0.00    +0.318 C 
ATOM     23  C   UNL     1     -33.163  26.804   3.575  0.00  0.00    +0.121 C 
ENDBRANCH  20  22
ENDBRANCH  18  20
ENDBRANCH  17  18
ENDBRANCH   2  17
BRANCH  10  24
ATOM     24  O   UNL     1     -36.857  19.230   1.039  0.00  0.00    -0.505 OA
ATOM     25  H   UNL     1     -36.018  18.968   1.365  0.00  0.00    +0.292 HD
ENDBRANCH  10  24
BRANCH  11  26
ATOM     26  O   UNL     1     -35.085  20.734   5.535  0.00  0.00    -0.505 OA
ATOM     27  H   UNL     1     -34.871  20.090   4.889  0.00  0.00    +0.292 HD
ENDBRANCH  11  26
TORSDOF 6
ENDMDL
