MODEL 1
REMARK VINA RESULT:      -7.5      0.000      0.000
REMARK  Name = 54706137
REMARK  5 active torsions:
REMARK  status: ('A' for Active; 'I' for Inactive)
REMARK    1  A    between atoms: C_1  and  C_13
REMARK    2  A    between atoms: C_1  and  C_17
REMARK    3  A    between atoms: C_18  and  C_20
REMARK    4  A    between atoms: C_21  and  C_25
REMARK    5  A    between atoms: C_25  and  O_31
REMARK                            x       y       z     vdW  Elec       q    Type
REMARK                         _______ _______ _______ _____ _____    ______ ____
ROOT
ATOM      1  C   UNL     1     -45.483  26.876   3.813  0.00  0.00    +0.049 C 
ATOM      2  C   UNL     1     -46.183  25.669   4.443  0.00  0.00    +0.007 C 
ENDROOT
BRANCH   1  13
ATOM      3  O   UNL     1     -43.096  29.933   5.892  0.00  0.00    -0.343 OA
ATOM      4  O   UNL     1     -46.325  30.362   5.808  0.00  0.00    -0.327 OA
ATOM      5  O   UNL     1     -45.188  28.235   5.739  0.00  0.00    -0.334 OA
ATOM      6  O   UNL     1     -44.100  32.245   3.799  0.00  0.00    -0.291 OA
ATOM      7  C   UNL     1     -44.176  30.130   6.818  0.00  0.00    +0.171 C 
ATOM      8  C   UNL     1     -43.726  31.221   5.882  0.00  0.00    +0.204 C 
ATOM      9  C   UNL     1     -45.467  29.429   6.485  0.00  0.00    +0.213 C 
ATOM     10  C   UNL     1     -45.817  30.697   4.522  0.00  0.00    +0.179 C 
ATOM     11  C   UNL     1     -45.617  29.426   3.666  0.00  0.00    +0.062 C 
ATOM     12  C   UNL     1     -44.517  31.479   4.660  0.00  0.00    +0.207 C 
ATOM     13  C   UNL     1     -45.910  28.165   4.504  0.00  0.00    +0.124 C 
ATOM     14  C   UNL     1     -43.698  30.170   8.227  0.00  0.00    +0.038 C 
ATOM     15  C   UNL     1     -46.196  29.003   7.757  0.00  0.00    +0.064 C 
ATOM     16  C   UNL     1     -46.478  29.494   2.404  0.00  0.00    +0.005 C 
ENDBRANCH   1  13
BRANCH   1  17
ATOM     17  C   UNL     1     -43.982  26.705   3.910  0.00  0.00    -0.028 C 
ATOM     18  C   UNL     1     -43.065  26.691   2.918  0.00  0.00    -0.026 C 
ATOM     19  C   UNL     1     -43.396  26.869   1.459  0.00  0.00    +0.031 C 
BRANCH  18  20
ATOM     20  C   UNL     1     -41.656  26.496   3.274  0.00  0.00    -0.001 C 
ATOM     21  C   UNL     1     -40.790  25.650   2.688  0.00  0.00    +0.037 C 
BRANCH  21  25
ATOM     22  O   UNL     1     -36.572  24.867   3.751  0.00  0.00    -0.289 OA
ATOM     23  O   UNL     1     -40.476  22.913   1.980  0.00  0.00    -0.270 OA
ATOM     24  N   UNL     1     -38.293  22.151   2.427  0.00  0.00    -0.294 N 
ATOM     25  C   UNL     1     -39.397  25.476   3.065  0.00  0.00    +0.141 C 
ATOM     26  C   UNL     1     -38.754  24.309   2.919  0.00  0.00    +0.123 C 
ATOM     27  C   UNL     1     -37.343  24.052   3.275  0.00  0.00    +0.200 C 
ATOM     28  C   UNL     1     -39.337  23.071   2.376  0.00  0.00    +0.252 C 
ATOM     29  C   UNL     1     -37.017  22.618   2.955  0.00  0.00    +0.160 C 
ATOM     30  H   UNL     1     -38.410  21.224   2.120  0.00  0.00    +0.150 HD
BRANCH  25  31
ATOM     31  O   UNL     1     -38.769  26.592   3.584  0.00  0.00    -0.505 OA
ATOM     32  H   UNL     1     -38.429  26.575   4.457  0.00  0.00    +0.292 HD
ENDBRANCH  25  31
ENDBRANCH  21  25
ENDBRANCH  18  20
ENDBRANCH   1  17
TORSDOF 5
ENDMDL
MODEL 2
REMARK VINA RESULT:      -6.7      7.068     11.448
REMARK  Name = 54706137
REMARK  5 active torsions:
REMARK  status: ('A' for Active; 'I' for Inactive)
REMARK    1  A    between atoms: C_1  and  C_13
REMARK    2  A    between atoms: C_1  and  C_17
REMARK    3  A    between atoms: C_18  and  C_20
REMARK    4  A    between atoms: C_21  and  C_25
REMARK    5  A    between atoms: C_25  and  O_31
REMARK                            x       y       z     vdW  Elec       q    Type
REMARK                         _______ _______ _______ _____ _____    ______ ____
ROOT
ATOM      1  C   UNL     1     -32.968  29.924   3.305  0.00  0.00    +0.049 C 
ATOM      2  C   UNL     1     -32.435  30.593   4.574  0.00  0.00    +0.007 C 
ENDROOT
BRANCH   1  13
ATOM      3  O   UNL     1     -36.116  26.867   2.967  0.00  0.00    -0.343 OA
ATOM      4  O   UNL     1     -33.101  25.836   3.648  0.00  0.00    -0.327 OA
ATOM      5  O   UNL     1     -34.011  27.995   4.223  0.00  0.00    -0.334 OA
ATOM      6  O   UNL     1     -34.570  25.449   0.450  0.00  0.00    -0.291 OA
ATOM      7  C   UNL     1     -35.451  26.088   3.973  0.00  0.00    +0.171 C 
ATOM      8  C   UNL     1     -35.601  25.593   2.558  0.00  0.00    +0.204 C 
ATOM      9  C   UNL     1     -34.087  26.572   4.390  0.00  0.00    +0.213 C 
ATOM     10  C   UNL     1     -33.136  26.167   2.264  0.00  0.00    +0.179 C 
ATOM     11  C   UNL     1     -32.942  27.687   2.063  0.00  0.00    +0.062 C 
ATOM     12  C   UNL     1     -34.444  25.691   1.645  0.00  0.00    +0.207 C 
ATOM     13  C   UNL     1     -32.892  28.407   3.426  0.00  0.00    +0.124 C 
ATOM     14  C   UNL     1     -36.401  25.581   5.000  0.00  0.00    +0.038 C 
ATOM     15  C   UNL     1     -33.836  26.280   5.867  0.00  0.00    +0.064 C 
ATOM     16  C   UNL     1     -31.692  27.957   1.222  0.00  0.00    +0.005 C 
ENDBRANCH   1  13
BRANCH   1  17
ATOM     17  C   UNL     1     -34.397  30.357   3.060  0.00  0.00    -0.028 C 
ATOM     18  C   UNL     1     -34.861  31.322   2.236  0.00  0.00    -0.026 C 
ATOM     19  C   UNL     1     -33.985  32.175   1.357  0.00  0.00    +0.031 C 
BRANCH  18  20
ATOM     20  C   UNL     1     -36.308  31.559   2.185  0.00  0.00    -0.001 C 
ATOM     21  C   UNL     1     -36.945  32.470   1.428  0.00  0.00    +0.037 C 
BRANCH  21  25
ATOM     22  O   UNL     1     -41.269  33.384   1.375  0.00  0.00    -0.289 OA
ATOM     23  O   UNL     1     -36.980  35.293   1.775  0.00  0.00    -0.270 OA
ATOM     24  N   UNL     1     -39.181  36.132   1.796  0.00  0.00    -0.294 N 
ATOM     25  C   UNL     1     -38.382  32.684   1.400  0.00  0.00    +0.141 C 
ATOM     26  C   UNL     1     -38.929  33.901   1.529  0.00  0.00    +0.123 C 
ATOM     27  C   UNL     1     -40.376  34.202   1.510  0.00  0.00    +0.200 C 
ATOM     28  C   UNL     1     -38.188  35.160   1.713  0.00  0.00    +0.252 C 
ATOM     29  C   UNL     1     -40.564  35.685   1.687  0.00  0.00    +0.160 C 
ATOM     30  H   UNL     1     -38.959  37.082   1.923  0.00  0.00    +0.150 HD
BRANCH  25  31
ATOM     31  O   UNL     1     -39.156  31.553   1.229  0.00  0.00    -0.505 OA
ATOM     32  H   UNL     1     -38.941  30.764   1.685  0.00  0.00    +0.292 HD
ENDBRANCH  25  31
ENDBRANCH  21  25
ENDBRANCH  18  20
ENDBRANCH   1  17
TORSDOF 5
ENDMDL
MODEL 3
REMARK VINA RESULT:      -6.7      7.780     10.588
REMARK  Name = 54706137
REMARK  5 active torsions:
REMARK  status: ('A' for Active; 'I' for Inactive)
REMARK    1  A    between atoms: C_1  and  C_13
REMARK    2  A    between atoms: C_1  and  C_17
REMARK    3  A    between atoms: C_18  and  C_20
REMARK    4  A    between atoms: C_21  and  C_25
REMARK    5  A    between atoms: C_25  and  O_31
REMARK                            x       y       z     vdW  Elec       q    Type
REMARK                         _______ _______ _______ _____ _____    ______ ____
ROOT
ATOM      1  C   UNL     1     -34.593  24.598   0.678  0.00  0.00    +0.049 C 
ATOM      2  C   UNL     1     -33.873  23.342   0.179  0.00  0.00    +0.007 C 
ENDROOT
BRANCH   1  13
ATOM      3  O   UNL     1     -34.201  23.990   5.019  0.00  0.00    -0.343 OA
ATOM      4  O   UNL     1     -37.154  23.562   3.712  0.00  0.00    -0.327 OA
ATOM      5  O   UNL     1     -35.053  23.238   2.571  0.00  0.00    -0.334 OA
ATOM      6  O   UNL     1     -36.312  26.420   5.624  0.00  0.00    -0.291 OA
ATOM      7  C   UNL     1     -35.206  22.967   4.955  0.00  0.00    +0.171 C 
ATOM      8  C   UNL     1     -35.424  24.246   5.721  0.00  0.00    +0.204 C 
ATOM      9  C   UNL     1     -35.922  22.826   3.637  0.00  0.00    +0.213 C 
ATOM     10  C   UNL     1     -36.921  24.964   3.787  0.00  0.00    +0.179 C 
ATOM     11  C   UNL     1     -36.078  25.441   2.583  0.00  0.00    +0.062 C 
ATOM     12  C   UNL     1     -36.243  25.311   5.107  0.00  0.00    +0.207 C 
ATOM     13  C   UNL     1     -35.638  24.236   1.725  0.00  0.00    +0.124 C 
ATOM     14  C   UNL     1     -34.810  21.750   5.714  0.00  0.00    +0.038 C 
ATOM     15  C   UNL     1     -36.294  21.369   3.375  0.00  0.00    +0.064 C 
ATOM     16  C   UNL     1     -36.854  26.477   1.767  0.00  0.00    +0.005 C 
ENDBRANCH   1  13
BRANCH   1  17
ATOM     17  C   UNL     1     -33.586  25.567   1.259  0.00  0.00    -0.028 C 
ATOM     18  C   UNL     1     -33.211  26.779   0.795  0.00  0.00    -0.026 C 
ATOM     19  C   UNL     1     -33.775  27.420  -0.446  0.00  0.00    +0.031 C 
BRANCH  18  20
ATOM     20  C   UNL     1     -32.195  27.529   1.543  0.00  0.00    -0.001 C 
ATOM     21  C   UNL     1     -32.016  27.526   2.876  0.00  0.00    +0.037 C 
BRANCH  21  25
ATOM     22  O   UNL     1     -29.072  29.791   5.271  0.00  0.00    -0.289 OA
ATOM     23  O   UNL     1     -33.171  27.477   5.474  0.00  0.00    -0.270 OA
ATOM     24  N   UNL     1     -31.830  28.623   7.036  0.00  0.00    -0.294 N 
ATOM     25  C   UNL     1     -31.000  28.282   3.589  0.00  0.00    +0.141 C 
ATOM     26  C   UNL     1     -31.089  28.542   4.901  0.00  0.00    +0.123 C 
ATOM     27  C   UNL     1     -30.102  29.299   5.699  0.00  0.00    +0.200 C 
ATOM     28  C   UNL     1     -32.186  28.120   5.788  0.00  0.00    +0.252 C 
ATOM     29  C   UNL     1     -30.578  29.364   7.125  0.00  0.00    +0.160 C 
ATOM     30  H   UNL     1     -32.399  28.483   7.826  0.00  0.00    +0.150 HD
BRANCH  25  31
ATOM     31  O   UNL     1     -29.930  28.717   2.833  0.00  0.00    -0.505 OA
ATOM     32  H   UNL     1     -29.164  29.055   3.255  0.00  0.00    +0.292 HD
ENDBRANCH  25  31
ENDBRANCH  21  25
ENDBRANCH  18  20
ENDBRANCH   1  17
TORSDOF 5
ENDMDL
MODEL 4
REMARK VINA RESULT:      -6.7      6.557      9.151
REMARK  Name = 54706137
REMARK  5 active torsions:
REMARK  status: ('A' for Active; 'I' for Inactive)
REMARK    1  A    between atoms: C_1  and  C_13
REMARK    2  A    between atoms: C_1  and  C_17
REMARK    3  A    between atoms: C_18  and  C_20
REMARK    4  A    between atoms: C_21  and  C_25
REMARK    5  A    between atoms: C_25  and  O_31
REMARK                            x       y       z     vdW  Elec       q    Type
REMARK                         _______ _______ _______ _____ _____    ______ ____
ROOT
ATOM      1  C   UNL     1     -36.108  24.923   4.848  0.00  0.00    +0.049 C 
ATOM      2  C   UNL     1     -34.842  25.420   5.551  0.00  0.00    +0.007 C 
ENDROOT
BRANCH   1  13
ATOM      3  O   UNL     1     -34.947  25.501   0.642  0.00  0.00    -0.343 OA
ATOM      4  O   UNL     1     -37.134  27.571   1.885  0.00  0.00    -0.327 OA
ATOM      5  O   UNL     1     -35.421  26.420   3.135  0.00  0.00    -0.334 OA
ATOM      6  O   UNL     1     -38.024  24.979  -0.355  0.00  0.00    -0.291 OA
ATOM      7  C   UNL     1     -35.110  26.918   0.804  0.00  0.00    +0.171 C 
ATOM      8  C   UNL     1     -35.981  26.122  -0.132  0.00  0.00    +0.204 C 
ATOM      9  C   UNL     1     -35.728  27.368   2.102  0.00  0.00    +0.213 C 
ATOM     10  C   UNL     1     -37.806  26.342   1.635  0.00  0.00    +0.179 C 
ATOM     11  C   UNL     1     -37.575  25.349   2.795  0.00  0.00    +0.062 C 
ATOM     12  C   UNL     1     -37.345  25.755   0.306  0.00  0.00    +0.207 C 
ATOM     13  C   UNL     1     -36.586  25.941   3.820  0.00  0.00    +0.124 C 
ATOM     14  C   UNL     1     -33.967  27.678   0.227  0.00  0.00    +0.038 C 
ATOM     15  C   UNL     1     -35.150  28.711   2.540  0.00  0.00    +0.064 C 
ATOM     16  C   UNL     1     -38.909  24.963   3.438  0.00  0.00    +0.005 C 
ENDBRANCH   1  13
BRANCH   1  17
ATOM     17  C   UNL     1     -35.833  23.594   4.177  0.00  0.00    -0.028 C 
ATOM     18  C   UNL     1     -35.557  22.400   4.744  0.00  0.00    -0.026 C 
ATOM     19  C   UNL     1     -35.485  22.167   6.230  0.00  0.00    +0.031 C 
BRANCH  18  20
ATOM     20  C   UNL     1     -35.314  21.250   3.866  0.00  0.00    -0.001 C 
ATOM     21  C   UNL     1     -35.485  21.209   2.533  0.00  0.00    +0.037 C 
BRANCH  21  25
ATOM     22  O   UNL     1     -34.985  17.716  -0.130  0.00  0.00    -0.289 OA
ATOM     23  O   UNL     1     -38.029  21.027   1.273  0.00  0.00    -0.270 OA
ATOM     24  N   UNL     1     -38.113  19.228  -0.245  0.00  0.00    -0.294 N 
ATOM     25  C   UNL     1     -35.238  20.053   1.688  0.00  0.00    +0.141 C 
ATOM     26  C   UNL     1     -36.171  19.551   0.867  0.00  0.00    +0.123 C 
ATOM     27  C   UNL     1     -35.999  18.383  -0.022  0.00  0.00    +0.200 C 
ATOM     28  C   UNL     1     -37.538  20.073   0.701  0.00  0.00    +0.252 C 
ATOM     29  C   UNL     1     -37.284  18.152  -0.772  0.00  0.00    +0.160 C 
ATOM     30  H   UNL     1     -39.042  19.353  -0.546  0.00  0.00    +0.150 HD
BRANCH  25  31
ATOM     31  O   UNL     1     -33.976  19.498   1.779  0.00  0.00    -0.505 OA
ATOM     32  H   UNL     1     -33.864  18.646   2.152  0.00  0.00    +0.292 HD
ENDBRANCH  25  31
ENDBRANCH  21  25
ENDBRANCH  18  20
ENDBRANCH   1  17
TORSDOF 5
ENDMDL
MODEL 5
REMARK VINA RESULT:      -6.6      2.825      9.182
REMARK  Name = 54706137
REMARK  5 active torsions:
REMARK  status: ('A' for Active; 'I' for Inactive)
REMARK    1  A    between atoms: C_1  and  C_13
REMARK    2  A    between atoms: C_1  and  C_17
REMARK    3  A    between atoms: C_18  and  C_20
REMARK    4  A    between atoms: C_21  and  C_25
REMARK    5  A    between atoms: C_25  and  O_31
REMARK                            x       y       z     vdW  Elec       q    Type
REMARK                         _______ _______ _______ _____ _____    ______ ____
ROOT
ATOM      1  C   UNL     1     -38.094  25.439   0.476  0.00  0.00    +0.049 C 
ATOM      2  C   UNL     1     -37.956  26.457  -0.659  0.00  0.00    +0.007 C 
ENDROOT
BRANCH   1  13
ATOM      3  O   UNL     1     -37.071  24.241   4.585  0.00  0.00    -0.343 OA
ATOM      4  O   UNL     1     -34.605  24.714   2.510  0.00  0.00    -0.327 OA
ATOM      5  O   UNL     1     -36.756  25.801   2.406  0.00  0.00    -0.334 OA
ATOM      6  O   UNL     1     -35.662  21.486   3.508  0.00  0.00    -0.291 OA
ATOM      7  C   UNL     1     -35.874  25.030   4.505  0.00  0.00    +0.171 C 
ATOM      8  C   UNL     1     -35.828  23.532   4.656  0.00  0.00    +0.204 C 
ATOM      9  C   UNL     1     -35.545  25.593   3.148  0.00  0.00    +0.213 C 
ATOM     10  C   UNL     1     -35.199  23.462   2.187  0.00  0.00    +0.179 C 
ATOM     11  C   UNL     1     -36.443  23.664   1.293  0.00  0.00    +0.062 C 
ATOM     12  C   UNL     1     -35.552  22.706   3.461  0.00  0.00    +0.207 C 
ATOM     13  C   UNL     1     -36.741  25.167   1.120  0.00  0.00    +0.124 C 
ATOM     14  C   UNL     1     -35.678  25.866   5.720  0.00  0.00    +0.038 C 
ATOM     15  C   UNL     1     -34.860  26.951   3.276  0.00  0.00    +0.064 C 
ATOM     16  C   UNL     1     -36.255  22.955  -0.049  0.00  0.00    +0.005 C 
ENDBRANCH   1  13
BRANCH   1  17
ATOM     17  C   UNL     1     -39.070  25.956   1.511  0.00  0.00    -0.028 C 
ATOM     18  C   UNL     1     -39.935  25.262   2.282  0.00  0.00    -0.026 C 
ATOM     19  C   UNL     1     -40.075  23.762   2.253  0.00  0.00    +0.031 C 
BRANCH  18  20
ATOM     20  C   UNL     1     -40.792  26.005   3.212  0.00  0.00    -0.001 C 
ATOM     21  C   UNL     1     -41.696  26.948   2.890  0.00  0.00    +0.037 C 
BRANCH  21  25
ATOM     22  O   UNL     1     -44.445  28.996   5.680  0.00  0.00    -0.289 OA
ATOM     23  O   UNL     1     -44.181  25.674   2.349  0.00  0.00    -0.270 OA
ATOM     24  N   UNL     1     -45.907  26.547   3.693  0.00  0.00    -0.294 N 
ATOM     25  C   UNL     1     -42.531  27.670   3.835  0.00  0.00    +0.141 C 
ATOM     26  C   UNL     1     -43.842  27.424   3.967  0.00  0.00    +0.123 C 
ATOM     27  C   UNL     1     -44.758  28.112   4.902  0.00  0.00    +0.200 C 
ATOM     28  C   UNL     1     -44.609  26.425   3.205  0.00  0.00    +0.252 C 
ATOM     29  C   UNL     1     -46.140  27.540   4.734  0.00  0.00    +0.160 C 
ATOM     30  H   UNL     1     -46.639  25.985   3.349  0.00  0.00    +0.150 HD
BRANCH  25  31
ATOM     31  O   UNL     1     -41.891  28.629   4.595  0.00  0.00    -0.505 OA
ATOM     32  H   UNL     1     -42.152  28.775   5.483  0.00  0.00    +0.292 HD
ENDBRANCH  25  31
ENDBRANCH  21  25
ENDBRANCH  18  20
ENDBRANCH   1  17
TORSDOF 5
ENDMDL
MODEL 6
REMARK VINA RESULT:      -6.4      7.692     10.513
REMARK  Name = 54706137
REMARK  5 active torsions:
REMARK  status: ('A' for Active; 'I' for Inactive)
REMARK    1  A    between atoms: C_1  and  C_13
REMARK    2  A    between atoms: C_1  and  C_17
REMARK    3  A    between atoms: C_18  and  C_20
REMARK    4  A    between atoms: C_21  and  C_25
REMARK    5  A    between atoms: C_25  and  O_31
REMARK                            x       y       z     vdW  Elec       q    Type
REMARK                         _______ _______ _______ _____ _____    ______ ____
ROOT
ATOM      1  C   UNL     1     -35.864  21.831   4.101  0.00  0.00    +0.049 C 
ATOM      2  C   UNL     1     -35.144  21.439   5.395  0.00  0.00    +0.007 C 
ENDROOT
BRANCH   1  13
ATOM      3  O   UNL     1     -34.026  25.360   2.222  0.00  0.00    -0.343 OA
ATOM      4  O   UNL     1     -36.663  25.856   4.070  0.00  0.00    -0.327 OA
ATOM      5  O   UNL     1     -35.076  24.060   4.341  0.00  0.00    -0.334 OA
ATOM      6  O   UNL     1     -36.765  25.978   0.534  0.00  0.00    -0.291 OA
ATOM      7  C   UNL     1     -34.404  26.149   3.361  0.00  0.00    +0.171 C 
ATOM      8  C   UNL     1     -34.971  26.412   1.990  0.00  0.00    +0.204 C 
ATOM      9  C   UNL     1     -35.308  25.476   4.360  0.00  0.00    +0.213 C 
ATOM     10  C   UNL     1     -37.106  25.305   2.835  0.00  0.00    +0.179 C 
ATOM     11  C   UNL     1     -36.966  23.767   2.843  0.00  0.00    +0.062 C 
ATOM     12  C   UNL     1     -36.331  25.924   1.679  0.00  0.00    +0.207 C 
ATOM     13  C   UNL     1     -36.273  23.298   4.139  0.00  0.00    +0.124 C 
ATOM     14  C   UNL     1     -33.286  27.008   3.837  0.00  0.00    +0.038 C 
ATOM     15  C   UNL     1     -35.007  25.960   5.776  0.00  0.00    +0.064 C 
ATOM     16  C   UNL     1     -38.332  23.107   2.648  0.00  0.00    +0.005 C 
ENDBRANCH   1  13
BRANCH   1  17
ATOM     17  C   UNL     1     -34.962  21.571   2.914  0.00  0.00    -0.028 C 
ATOM     18  C   UNL     1     -35.180  20.781   1.841  0.00  0.00    -0.026 C 
ATOM     19  C   UNL     1     -36.441  19.986   1.619  0.00  0.00    +0.031 C 
BRANCH  18  20
ATOM     20  C   UNL     1     -34.132  20.687   0.819  0.00  0.00    -0.001 C 
ATOM     21  C   UNL     1     -33.061  19.874   0.840  0.00  0.00    +0.037 C 
BRANCH  21  25
ATOM     22  O   UNL     1     -29.841  19.450  -2.158  0.00  0.00    -0.289 OA
ATOM     23  O   UNL     1     -31.607  17.631   1.814  0.00  0.00    -0.270 OA
ATOM     24  N   UNL     1     -29.778  17.119   0.420  0.00  0.00    -0.294 N 
ATOM     25  C   UNL     1     -32.036  19.805  -0.187  0.00  0.00    +0.141 C 
ATOM     26  C   UNL     1     -31.071  18.876  -0.177  0.00  0.00    +0.123 C 
ATOM     27  C   UNL     1     -29.996  18.737  -1.182  0.00  0.00    +0.200 C 
ATOM     28  C   UNL     1     -30.905  17.822   0.839  0.00  0.00    +0.252 C 
ATOM     29  C   UNL     1     -29.124  17.571  -0.801  0.00  0.00    +0.160 C 
ATOM     30  H   UNL     1     -29.437  16.348   0.928  0.00  0.00    +0.150 HD
BRANCH  25  31
ATOM     31  O   UNL     1     -32.116  20.758  -1.184  0.00  0.00    -0.505 OA
ATOM     32  H   UNL     1     -32.702  20.634  -1.905  0.00  0.00    +0.292 HD
ENDBRANCH  25  31
ENDBRANCH  21  25
ENDBRANCH  18  20
ENDBRANCH   1  17
TORSDOF 5
ENDMDL
MODEL 7
REMARK VINA RESULT:      -6.3      9.079     11.989
REMARK  Name = 54706137
REMARK  5 active torsions:
REMARK  status: ('A' for Active; 'I' for Inactive)
REMARK    1  A    between atoms: C_1  and  C_13
REMARK    2  A    between atoms: C_1  and  C_17
REMARK    3  A    between atoms: C_18  and  C_20
REMARK    4  A    between atoms: C_21  and  C_25
REMARK    5  A    between atoms: C_25  and  O_31
REMARK                            x       y       z     vdW  Elec       q    Type
REMARK                         _______ _______ _______ _____ _____    ______ ____
ROOT
ATOM      1  C   UNL     1     -36.034  21.983   3.082  0.00  0.00    +0.049 C 
ATOM      2  C   UNL     1     -37.437  22.294   2.554  0.00  0.00    +0.007 C 
ENDROOT
BRANCH   1  13
ATOM      3  O   UNL     1     -36.707  19.187  -0.249  0.00  0.00    -0.343 OA
ATOM      4  O   UNL     1     -33.776  20.595  -0.051  0.00  0.00    -0.327 OA
ATOM      5  O   UNL     1     -35.243  20.139   1.808  0.00  0.00    -0.334 OA
ATOM      6  O   UNL     1     -36.198  21.565  -2.444  0.00  0.00    -0.291 OA
ATOM      7  C   UNL     1     -35.329  18.789  -0.178  0.00  0.00    +0.171 C 
ATOM      8  C   UNL     1     -35.892  19.486  -1.389  0.00  0.00    +0.204 C 
ATOM      9  C   UNL     1     -34.453  19.603   0.737  0.00  0.00    +0.213 C 
ATOM     10  C   UNL     1     -34.683  21.569  -0.555  0.00  0.00    +0.179 C 
ATOM     11  C   UNL     1     -35.463  22.236   0.601  0.00  0.00    +0.062 C 
ATOM     12  C   UNL     1     -35.630  20.930  -1.563  0.00  0.00    +0.207 C 
ATOM     13  C   UNL     1     -35.114  21.560   1.943  0.00  0.00    +0.124 C 
ATOM     14  C   UNL     1     -35.175  17.309  -0.226  0.00  0.00    +0.038 C 
ATOM     15  C   UNL     1     -33.372  18.731   1.370  0.00  0.00    +0.064 C 
ATOM     16  C   UNL     1     -35.194  23.741   0.625  0.00  0.00    +0.005 C 
ENDBRANCH   1  13
BRANCH   1  17
ATOM     17  C   UNL     1     -35.470  23.201   3.783  0.00  0.00    -0.028 C 
ATOM     18  C   UNL     1     -35.200  23.373   5.095  0.00  0.00    -0.026 C 
ATOM     19  C   UNL     1     -35.414  22.317   6.148  0.00  0.00    +0.031 C 
BRANCH  18  20
ATOM     20  C   UNL     1     -34.662  24.666   5.532  0.00  0.00    -0.001 C 
ATOM     21  C   UNL     1     -33.855  25.479   4.827  0.00  0.00    +0.037 C 
BRANCH  21  25
ATOM     22  O   UNL     1     -32.226  29.425   5.970  0.00  0.00    -0.289 OA
ATOM     23  O   UNL     1     -33.148  26.603   2.311  0.00  0.00    -0.270 OA
ATOM     24  N   UNL     1     -32.224  28.756   2.559  0.00  0.00    -0.294 N 
ATOM     25  C   UNL     1     -33.336  26.755   5.287  0.00  0.00    +0.141 C 
ATOM     26  C   UNL     1     -32.858  27.682   4.444  0.00  0.00    +0.123 C 
ATOM     27  C   UNL     1     -32.314  29.001   4.831  0.00  0.00    +0.200 C 
ATOM     28  C   UNL     1     -32.788  27.554   2.979  0.00  0.00    +0.252 C 
ATOM     29  C   UNL     1     -31.886  29.732   3.587  0.00  0.00    +0.160 C 
ATOM     30  H   UNL     1     -32.061  28.940   1.606  0.00  0.00    +0.150 HD
BRANCH  25  31
ATOM     31  O   UNL     1     -33.364  26.961   6.652  0.00  0.00    -0.505 OA
ATOM     32  H   UNL     1     -34.127  26.731   7.146  0.00  0.00    +0.292 HD
ENDBRANCH  25  31
ENDBRANCH  21  25
ENDBRANCH  18  20
ENDBRANCH   1  17
TORSDOF 5
ENDMDL
MODEL 8
REMARK VINA RESULT:      -6.3      7.292     10.813
REMARK  Name = 54706137
REMARK  5 active torsions:
REMARK  status: ('A' for Active; 'I' for Inactive)
REMARK    1  A    between atoms: C_1  and  C_13
REMARK    2  A    between atoms: C_1  and  C_17
REMARK    3  A    between atoms: C_18  and  C_20
REMARK    4  A    between atoms: C_21  and  C_25
REMARK    5  A    between atoms: C_25  and  O_31
REMARK                            x       y       z     vdW  Elec       q    Type
REMARK                         _______ _______ _______ _____ _____    ______ ____
ROOT
ATOM      1  C   UNL     1     -37.595  23.906   3.387  0.00  0.00    +0.049 C 
ATOM      2  C   UNL     1     -38.739  24.920   3.471  0.00  0.00    +0.007 C 
ENDROOT
BRANCH   1  13
ATOM      3  O   UNL     1     -34.484  21.355   1.604  0.00  0.00    -0.343 OA
ATOM      4  O   UNL     1     -36.806  22.487  -0.382  0.00  0.00    -0.327 OA
ATOM      5  O   UNL     1     -36.030  23.567   1.631  0.00  0.00    -0.334 OA
ATOM      6  O   UNL     1     -36.716  19.125   0.722  0.00  0.00    -0.291 OA
ATOM      7  C   UNL     1     -34.578  22.111   0.386  0.00  0.00    +0.171 C 
ATOM      8  C   UNL     1     -34.949  20.652   0.445  0.00  0.00    +0.204 C 
ATOM      9  C   UNL     1     -35.709  23.103   0.311  0.00  0.00    +0.213 C 
ATOM     10  C   UNL     1     -37.376  21.429   0.381  0.00  0.00    +0.179 C 
ATOM     11  C   UNL     1     -37.830  21.941   1.766  0.00  0.00    +0.062 C 
ATOM     12  C   UNL     1     -36.380  20.285   0.514  0.00  0.00    +0.207 C 
ATOM     13  C   UNL     1     -37.418  23.415   1.956  0.00  0.00    +0.124 C 
ATOM     14  C   UNL     1     -33.238  22.475  -0.147  0.00  0.00    +0.038 C 
ATOM     15  C   UNL     1     -35.302  24.326  -0.506  0.00  0.00    +0.064 C 
ATOM     16  C   UNL     1     -39.336  21.735   1.942  0.00  0.00    +0.005 C 
ENDBRANCH   1  13
BRANCH   1  17
ATOM     17  C   UNL     1     -36.313  24.539   3.884  0.00  0.00    -0.028 C 
ATOM     18  C   UNL     1     -35.460  24.094   4.832  0.00  0.00    -0.026 C 
ATOM     19  C   UNL     1     -35.640  22.808   5.593  0.00  0.00    +0.031 C 
BRANCH  18  20
ATOM     20  C   UNL     1     -34.279  24.906   5.143  0.00  0.00    -0.001 C 
ATOM     21  C   UNL     1     -34.272  26.172   5.597  0.00  0.00    +0.037 C 
BRANCH  21  25
ATOM     22  O   UNL     1     -30.686  28.667   6.265  0.00  0.00    -0.289 OA
ATOM     23  O   UNL     1     -34.121  27.685   3.194  0.00  0.00    -0.270 OA
ATOM     24  N   UNL     1     -32.278  29.152   3.213  0.00  0.00    -0.294 N 
ATOM     25  C   UNL     1     -33.084  26.953   5.896  0.00  0.00    +0.141 C 
ATOM     26  C   UNL     1     -32.583  27.853   5.038  0.00  0.00    +0.123 C 
ATOM     27  C   UNL     1     -31.383  28.686   5.266  0.00  0.00    +0.200 C 
ATOM     28  C   UNL     1     -33.135  28.176   3.712  0.00  0.00    +0.252 C 
ATOM     29  C   UNL     1     -31.163  29.559   4.059  0.00  0.00    +0.160 C 
ATOM     30  H   UNL     1     -32.418  29.552   2.325  0.00  0.00    +0.150 HD
BRANCH  25  31
ATOM     31  O   UNL     1     -32.499  26.715   7.124  0.00  0.00    -0.505 OA
ATOM     32  H   UNL     1     -32.494  25.849   7.481  0.00  0.00    +0.292 HD
ENDBRANCH  25  31
ENDBRANCH  21  25
ENDBRANCH  18  20
ENDBRANCH   1  17
TORSDOF 5
ENDMDL
MODEL 9
REMARK VINA RESULT:      -6.2      7.340     10.153
REMARK  Name = 54706137
REMARK  5 active torsions:
REMARK  status: ('A' for Active; 'I' for Inactive)
REMARK    1  A    between atoms: C_1  and  C_13
REMARK    2  A    between atoms: C_1  and  C_17
REMARK    3  A    between atoms: C_18  and  C_20
REMARK    4  A    between atoms: C_21  and  C_25
REMARK    5  A    between atoms: C_25  and  O_31
REMARK                            x       y       z     vdW  Elec       q    Type
REMARK                         _______ _______ _______ _____ _____    ______ ____
ROOT
ATOM      1  C   UNL     1     -35.922  23.128   4.668  0.00  0.00    +0.049 C 
ATOM      2  C   UNL     1     -35.380  22.675   6.026  0.00  0.00    +0.007 C 
ENDROOT
BRANCH   1  13
ATOM      3  O   UNL     1     -33.459  25.470   1.872  0.00  0.00    -0.343 OA
ATOM      4  O   UNL     1     -35.244  27.126   4.037  0.00  0.00    -0.327 OA
ATOM      5  O   UNL     1     -34.370  24.899   4.347  0.00  0.00    -0.334 OA
ATOM      6  O   UNL     1     -36.122  26.906   0.615  0.00  0.00    -0.291 OA
ATOM      7  C   UNL     1     -33.259  26.459   2.895  0.00  0.00    +0.171 C 
ATOM      8  C   UNL     1     -34.002  26.773   1.623  0.00  0.00    +0.204 C 
ATOM      9  C   UNL     1     -34.081  26.290   4.146  0.00  0.00    +0.213 C 
ATOM     10  C   UNL     1     -36.128  26.660   3.024  0.00  0.00    +0.179 C 
ATOM     11  C   UNL     1     -36.538  25.195   3.291  0.00  0.00    +0.062 C 
ATOM     12  C   UNL     1     -35.479  26.811   1.654  0.00  0.00    +0.207 C 
ATOM     13  C   UNL     1     -35.770  24.636   4.506  0.00  0.00    +0.124 C 
ATOM     14  C   UNL     1     -31.833  26.871   2.997  0.00  0.00    +0.038 C 
ATOM     15  C   UNL     1     -33.306  26.769   5.371  0.00  0.00    +0.064 C 
ATOM     16  C   UNL     1     -38.054  25.090   3.468  0.00  0.00    +0.005 C 
ENDBRANCH   1  13
BRANCH   1  17
ATOM     17  C   UNL     1     -35.188  22.408   3.557  0.00  0.00    -0.028 C 
ATOM     18  C   UNL     1     -35.698  21.729   2.507  0.00  0.00    -0.026 C 
ATOM     19  C   UNL     1     -37.171  21.574   2.235  0.00  0.00    +0.031 C 
BRANCH  18  20
ATOM     20  C   UNL     1     -34.765  21.102   1.563  0.00  0.00    -0.001 C 
ATOM     21  C   UNL     1     -34.405  19.807   1.532  0.00  0.00    +0.037 C 
BRANCH  21  25
ATOM     22  O   UNL     1     -31.787  17.880  -1.464  0.00  0.00    -0.289 OA
ATOM     23  O   UNL     1     -36.251  18.289  -0.010  0.00  0.00    -0.270 OA
ATOM     24  N   UNL     1     -35.166  17.108  -1.736  0.00  0.00    -0.294 N 
ATOM     25  C   UNL     1     -33.476  19.214   0.585  0.00  0.00    +0.141 C 
ATOM     26  C   UNL     1     -33.875  18.383  -0.387  0.00  0.00    +0.123 C 
ATOM     27  C   UNL     1     -32.996  17.741  -1.388  0.00  0.00    +0.200 C 
ATOM     28  C   UNL     1     -35.262  17.957  -0.637  0.00  0.00    +0.252 C 
ATOM     29  C   UNL     1     -33.839  16.887  -2.296  0.00  0.00    +0.160 C 
ATOM     30  H   UNL     1     -35.962  16.674  -2.119  0.00  0.00    +0.150 HD
BRANCH  25  31
ATOM     31  O   UNL     1     -32.148  19.561   0.745  0.00  0.00    -0.505 OA
ATOM     32  H   UNL     1     -31.825  20.360   0.379  0.00  0.00    +0.292 HD
ENDBRANCH  25  31
ENDBRANCH  21  25
ENDBRANCH  18  20
ENDBRANCH   1  17
TORSDOF 5
ENDMDL
