MODEL 1
REMARK VINA RESULT:      -6.8      0.000      0.000
REMARK  Name = 56842401
REMARK  5 active torsions:
REMARK  status: ('A' for Active; 'I' for Inactive)
REMARK    1  A    between atoms: N_2  and  C_7
REMARK    2  A    between atoms: C_3  and  C_14
REMARK    3  A    between atoms: N_6  and  S_10
REMARK    4  A    between atoms: C_14  and  C_15
REMARK    5  A    between atoms: C_14  and  S_21
REMARK                            x       y       z     vdW  Elec       q    Type
REMARK                         _______ _______ _______ _____ _____    ______ ____
ROOT
ATOM      1  O   UNL     1     -35.763  26.080   2.378  0.00  0.00    -0.273 OA
ATOM      2  N   UNL     1     -37.768  25.978   3.534  0.00  0.00    -0.295 N 
ATOM      3  C   UNL     1     -36.386  25.884   3.418  0.00  0.00    +0.249 C 
ATOM      4  H   UNL     1     -38.182  25.804   4.410  0.00  0.00    +0.150 HD
ENDROOT
BRANCH   2   7
ATOM      5  O   UNL     1     -41.014  25.957   3.389  0.00  0.00    -0.271 OA
ATOM      6  N   UNL     1     -40.094  25.243   1.318  0.00  0.00    -0.154 N 
ATOM      7  C   UNL     1     -38.637  26.328   2.397  0.00  0.00    +0.172 C 
ATOM      8  C   UNL     1     -38.619  25.304   1.243  0.00  0.00    +0.148 C 
ATOM      9  C   UNL     1     -40.128  25.900   2.569  0.00  0.00    +0.264 C 
BRANCH   6  10
ATOM     10  S   UNL     1     -41.171  24.085   0.742  0.00  0.00    +0.096 S 
ATOM     11  O   UNL     1     -40.973  24.115  -0.883  0.00  0.00    -0.050 OA
ATOM     12  O   UNL     1     -42.537  24.526   1.010  0.00  0.00    -0.050 OA
ATOM     13  O   UNL     1     -40.747  22.765   1.198  0.00  0.00    -0.050 OA
ENDBRANCH   6  10
ENDBRANCH   2   7
BRANCH   3  14
ATOM     14  C   UNL     1     -35.724  25.506   4.729  0.00  0.00    +0.233 C 
BRANCH  14  15
ATOM     15  C   UNL     1     -35.538  24.018   4.896  0.00  0.00    +0.009 C 
ATOM     16  C   UNL     1     -35.611  23.175   3.787  0.00  0.00    -0.002 C 
ATOM     17  C   UNL     1     -35.295  23.484   6.162  0.00  0.00    -0.002 C 
ATOM     18  C   UNL     1     -35.439  21.800   3.943  0.00  0.00    -0.000 C 
ATOM     19  C   UNL     1     -35.123  22.108   6.318  0.00  0.00    -0.000 C 
ATOM     20  C   UNL     1     -35.195  21.266   5.208  0.00  0.00    -0.000 C 
ENDBRANCH  14  15
BRANCH  14  21
ATOM     21  S   UNL     1     -34.129  26.252   4.893  0.00  0.00    +0.033 S 
ATOM     22  O   UNL     1     -34.487  27.668   4.168  0.00  0.00    -0.069 OA
ATOM     23  O   UNL     1     -33.187  25.526   4.063  0.00  0.00    -0.069 OA
ATOM     24  O   UNL     1     -33.874  26.498   6.300  0.00  0.00    -0.069 OA
ENDBRANCH  14  21
ENDBRANCH   3  14
TORSDOF 5
ENDMDL
MODEL 2
REMARK VINA RESULT:      -6.4      3.431      6.433
REMARK  Name = 56842401
REMARK  5 active torsions:
REMARK  status: ('A' for Active; 'I' for Inactive)
REMARK    1  A    between atoms: N_2  and  C_7
REMARK    2  A    between atoms: C_3  and  C_14
REMARK    3  A    between atoms: N_6  and  S_10
REMARK    4  A    between atoms: C_14  and  C_15
REMARK    5  A    between atoms: C_14  and  S_21
REMARK                            x       y       z     vdW  Elec       q    Type
REMARK                         _______ _______ _______ _____ _____    ______ ____
ROOT
ATOM      1  O   UNL     1     -33.055  25.176   3.983  0.00  0.00    -0.273 OA
ATOM      2  N   UNL     1     -34.107  26.660   2.548  0.00  0.00    -0.295 N 
ATOM      3  C   UNL     1     -34.046  25.524   3.347  0.00  0.00    +0.249 C 
ATOM      4  H   UNL     1     -34.947  26.861   2.074  0.00  0.00    +0.150 HD
ENDROOT
BRANCH   2   7
ATOM      5  O   UNL     1     -32.898  28.790   4.683  0.00  0.00    -0.271 OA
ATOM      6  N   UNL     1     -32.782  29.677   2.481  0.00  0.00    -0.154 N 
ATOM      7  C   UNL     1     -32.964  27.574   2.382  0.00  0.00    +0.172 C 
ATOM      8  C   UNL     1     -33.222  28.751   1.417  0.00  0.00    +0.148 C 
ATOM      9  C   UNL     1     -32.858  28.680   3.480  0.00  0.00    +0.264 C 
BRANCH   6  10
ATOM     10  S   UNL     1     -33.040  31.330   2.667  0.00  0.00    +0.096 S 
ATOM     11  O   UNL     1     -31.892  31.806   3.733  0.00  0.00    -0.050 OA
ATOM     12  O   UNL     1     -34.332  31.544   3.314  0.00  0.00    -0.050 OA
ATOM     13  O   UNL     1     -32.756  32.006   1.405  0.00  0.00    -0.050 OA
ENDBRANCH   6  10
ENDBRANCH   2   7
BRANCH   3  14
ATOM     14  C   UNL     1     -35.351  24.751   3.346  0.00  0.00    +0.233 C 
BRANCH  14  15
ATOM     15  C   UNL     1     -35.299  23.491   4.175  0.00  0.00    +0.009 C 
ATOM     16  C   UNL     1     -35.211  23.573   5.565  0.00  0.00    -0.002 C 
ATOM     17  C   UNL     1     -35.339  22.243   3.551  0.00  0.00    -0.002 C 
ATOM     18  C   UNL     1     -35.164  22.408   6.330  0.00  0.00    -0.000 C 
ATOM     19  C   UNL     1     -35.292  21.079   4.317  0.00  0.00    -0.000 C 
ATOM     20  C   UNL     1     -35.204  21.161   5.707  0.00  0.00    -0.000 C 
ENDBRANCH  14  15
BRANCH  14  21
ATOM     21  S   UNL     1     -36.688  25.728   3.965  0.00  0.00    +0.033 S 
ATOM     22  O   UNL     1     -36.980  26.570   2.599  0.00  0.00    -0.069 OA
ATOM     23  O   UNL     1     -36.177  26.634   4.974  0.00  0.00    -0.069 OA
ATOM     24  O   UNL     1     -37.818  24.856   4.226  0.00  0.00    -0.069 OA
ENDBRANCH  14  21
ENDBRANCH   3  14
TORSDOF 5
ENDMDL
MODEL 3
REMARK VINA RESULT:      -6.2      1.975      2.445
REMARK  Name = 56842401
REMARK  5 active torsions:
REMARK  status: ('A' for Active; 'I' for Inactive)
REMARK    1  A    between atoms: N_2  and  C_7
REMARK    2  A    between atoms: C_3  and  C_14
REMARK    3  A    between atoms: N_6  and  S_10
REMARK    4  A    between atoms: C_14  and  C_15
REMARK    5  A    between atoms: C_14  and  S_21
REMARK                            x       y       z     vdW  Elec       q    Type
REMARK                         _______ _______ _______ _____ _____    ______ ____
ROOT
ATOM      1  O   UNL     1     -37.756  26.035   3.406  0.00  0.00    -0.273 OA
ATOM      2  N   UNL     1     -35.687  25.867   2.376  0.00  0.00    -0.295 N 
ATOM      3  C   UNL     1     -36.551  25.805   3.464  0.00  0.00    +0.249 C 
ATOM      4  H   UNL     1     -34.733  25.667   2.517  0.00  0.00    +0.150 HD
ENDROOT
BRANCH   2   7
ATOM      5  O   UNL     1     -36.973  28.667   1.347  0.00  0.00    -0.271 OA
ATOM      6  N   UNL     1     -38.014  26.833   0.252  0.00  0.00    -0.154 N 
ATOM      7  C   UNL     1     -36.143  26.222   1.021  0.00  0.00    +0.172 C 
ATOM      8  C   UNL     1     -37.440  25.511   0.579  0.00  0.00    +0.148 C 
ATOM      9  C   UNL     1     -37.000  27.526   0.951  0.00  0.00    +0.264 C 
BRANCH   6  10
ATOM     10  S   UNL     1     -39.615  27.307   0.041  0.00  0.00    +0.096 S 
ATOM     11  O   UNL     1     -40.259  26.153  -0.926  0.00  0.00    -0.050 OA
ATOM     12  O   UNL     1     -39.650  28.558  -0.711  0.00  0.00    -0.050 OA
ATOM     13  O   UNL     1     -40.313  27.228   1.321  0.00  0.00    -0.050 OA
ENDBRANCH   6  10
ENDBRANCH   2   7
BRANCH   3  14
ATOM     14  C   UNL     1     -35.835  25.423   4.745  0.00  0.00    +0.233 C 
BRANCH  14  15
ATOM     15  C   UNL     1     -35.602  23.938   4.879  0.00  0.00    +0.009 C 
ATOM     16  C   UNL     1     -35.712  23.110   3.761  0.00  0.00    -0.002 C 
ATOM     17  C   UNL     1     -35.276  23.393   6.121  0.00  0.00    -0.002 C 
ATOM     18  C   UNL     1     -35.496  21.738   3.886  0.00  0.00    -0.000 C 
ATOM     19  C   UNL     1     -35.060  22.021   6.245  0.00  0.00    -0.000 C 
ATOM     20  C   UNL     1     -35.170  21.193   5.128  0.00  0.00    -0.000 C 
ENDBRANCH  14  15
BRANCH  14  21
ATOM     21  S   UNL     1     -34.257  26.212   4.869  0.00  0.00    +0.033 S 
ATOM     22  O   UNL     1     -34.683  27.636   4.197  0.00  0.00    -0.069 OA
ATOM     23  O   UNL     1     -33.326  25.537   3.986  0.00  0.00    -0.069 OA
ATOM     24  O   UNL     1     -33.956  26.430   6.272  0.00  0.00    -0.069 OA
ENDBRANCH  14  21
ENDBRANCH   3  14
TORSDOF 5
ENDMDL
MODEL 4
REMARK VINA RESULT:      -6.2      2.907      6.417
REMARK  Name = 56842401
REMARK  5 active torsions:
REMARK  status: ('A' for Active; 'I' for Inactive)
REMARK    1  A    between atoms: N_2  and  C_7
REMARK    2  A    between atoms: C_3  and  C_14
REMARK    3  A    between atoms: N_6  and  S_10
REMARK    4  A    between atoms: C_14  and  C_15
REMARK    5  A    between atoms: C_14  and  S_21
REMARK                            x       y       z     vdW  Elec       q    Type
REMARK                         _______ _______ _______ _____ _____    ______ ____
ROOT
ATOM      1  O   UNL     1     -34.120  24.531   1.180  0.00  0.00    -0.273 OA
ATOM      2  N   UNL     1     -35.145  26.160   2.470  0.00  0.00    -0.295 N 
ATOM      3  C   UNL     1     -35.011  24.877   1.951  0.00  0.00    +0.249 C 
ATOM      4  H   UNL     1     -35.893  26.347   3.083  0.00  0.00    +0.150 HD
ENDROOT
BRANCH   2   7
ATOM      5  O   UNL     1     -31.985  26.405   3.182  0.00  0.00    -0.271 OA
ATOM      6  N   UNL     1     -33.027  28.536   3.321  0.00  0.00    -0.154 N 
ATOM      7  C   UNL     1     -34.213  27.251   2.136  0.00  0.00    +0.172 C 
ATOM      8  C   UNL     1     -34.451  28.556   2.924  0.00  0.00    +0.148 C 
ATOM      9  C   UNL     1     -32.856  27.196   2.906  0.00  0.00    +0.264 C 
BRANCH   6  10
ATOM     10  S   UNL     1     -32.230  29.326   4.575  0.00  0.00    +0.096 S 
ATOM     11  O   UNL     1     -32.466  28.364   5.879  0.00  0.00    -0.050 OA
ATOM     12  O   UNL     1     -32.908  30.589   4.854  0.00  0.00    -0.050 OA
ATOM     13  O   UNL     1     -30.795  29.334   4.305  0.00  0.00    -0.050 OA
ENDBRANCH   6  10
ENDBRANCH   2   7
BRANCH   3  14
ATOM     14  C   UNL     1     -36.098  23.942   2.444  0.00  0.00    +0.233 C 
BRANCH  14  15
ATOM     15  C   UNL     1     -35.732  23.218   3.717  0.00  0.00    +0.009 C 
ATOM     16  C   UNL     1     -35.557  21.834   3.708  0.00  0.00    -0.002 C 
ATOM     17  C   UNL     1     -35.570  23.934   4.904  0.00  0.00    -0.002 C 
ATOM     18  C   UNL     1     -35.219  21.167   4.885  0.00  0.00    -0.000 C 
ATOM     19  C   UNL     1     -35.231  23.266   6.080  0.00  0.00    -0.000 C 
ATOM     20  C   UNL     1     -35.056  21.882   6.071  0.00  0.00    -0.000 C 
ENDBRANCH  14  15
BRANCH  14  21
ATOM     21  S   UNL     1     -37.611  24.806   2.752  0.00  0.00    +0.033 S 
ATOM     22  O   UNL     1     -38.527  23.502   3.100  0.00  0.00    -0.069 OA
ATOM     23  O   UNL     1     -38.077  25.388   1.509  0.00  0.00    -0.069 OA
ATOM     24  O   UNL     1     -37.454  25.601   3.956  0.00  0.00    -0.069 OA
ENDBRANCH  14  21
ENDBRANCH   3  14
TORSDOF 5
ENDMDL
MODEL 5
REMARK VINA RESULT:      -6.2      2.279      3.101
REMARK  Name = 56842401
REMARK  5 active torsions:
REMARK  status: ('A' for Active; 'I' for Inactive)
REMARK    1  A    between atoms: N_2  and  C_7
REMARK    2  A    between atoms: C_3  and  C_14
REMARK    3  A    between atoms: N_6  and  S_10
REMARK    4  A    between atoms: C_14  and  C_15
REMARK    5  A    between atoms: C_14  and  S_21
REMARK                            x       y       z     vdW  Elec       q    Type
REMARK                         _______ _______ _______ _____ _____    ______ ____
ROOT
ATOM      1  O   UNL     1     -38.542  23.393   2.996  0.00  0.00    -0.273 OA
ATOM      2  N   UNL     1     -38.624  25.651   2.484  0.00  0.00    -0.295 N 
ATOM      3  C   UNL     1     -38.037  24.512   3.023  0.00  0.00    +0.249 C 
ATOM      4  H   UNL     1     -38.144  26.508   2.553  0.00  0.00    +0.150 HD
ENDROOT
BRANCH   2   7
ATOM      5  O   UNL     1     -39.897  27.839   0.447  0.00  0.00    -0.271 OA
ATOM      6  N   UNL     1     -41.591  26.940   1.851  0.00  0.00    -0.154 N 
ATOM      7  C   UNL     1     -39.937  25.625   1.816  0.00  0.00    +0.172 C 
ATOM      8  C   UNL     1     -41.136  25.864   2.757  0.00  0.00    +0.148 C 
ATOM      9  C   UNL     1     -40.356  26.982   1.165  0.00  0.00    +0.264 C 
BRANCH   6  10
ATOM     10  S   UNL     1     -42.654  28.216   2.117  0.00  0.00    +0.096 S 
ATOM     11  O   UNL     1     -44.083  27.494   2.463  0.00  0.00    -0.050 OA
ATOM     12  O   UNL     1     -42.844  28.951   0.870  0.00  0.00    -0.050 OA
ATOM     13  O   UNL     1     -42.244  28.943   3.315  0.00  0.00    -0.050 OA
ENDBRANCH   6  10
ENDBRANCH   2   7
BRANCH   3  14
ATOM     14  C   UNL     1     -36.692  24.805   3.658  0.00  0.00    +0.233 C 
BRANCH  14  15
ATOM     15  C   UNL     1     -36.072  23.602   4.326  0.00  0.00    +0.009 C 
ATOM     16  C   UNL     1     -35.808  22.450   3.585  0.00  0.00    -0.002 C 
ATOM     17  C   UNL     1     -35.762  23.642   5.686  0.00  0.00    -0.002 C 
ATOM     18  C   UNL     1     -35.235  21.339   4.204  0.00  0.00    -0.000 C 
ATOM     19  C   UNL     1     -35.189  22.531   6.304  0.00  0.00    -0.000 C 
ATOM     20  C   UNL     1     -34.925  21.379   5.563  0.00  0.00    -0.000 C 
ENDBRANCH  14  15
BRANCH  14  21
ATOM     21  S   UNL     1     -35.525  25.400   2.469  0.00  0.00    +0.033 S 
ATOM     22  O   UNL     1     -35.931  26.977   2.552  0.00  0.00    -0.069 OA
ATOM     23  O   UNL     1     -35.890  24.890   1.162  0.00  0.00    -0.069 OA
ATOM     24  O   UNL     1     -34.188  25.233   3.007  0.00  0.00    -0.069 OA
ENDBRANCH  14  21
ENDBRANCH   3  14
TORSDOF 5
ENDMDL
MODEL 6
REMARK VINA RESULT:      -6.1      1.763      2.521
REMARK  Name = 56842401
REMARK  5 active torsions:
REMARK  status: ('A' for Active; 'I' for Inactive)
REMARK    1  A    between atoms: N_2  and  C_7
REMARK    2  A    between atoms: C_3  and  C_14
REMARK    3  A    between atoms: N_6  and  S_10
REMARK    4  A    between atoms: C_14  and  C_15
REMARK    5  A    between atoms: C_14  and  S_21
REMARK                            x       y       z     vdW  Elec       q    Type
REMARK                         _______ _______ _______ _____ _____    ______ ____
ROOT
ATOM      1  O   UNL     1     -36.104  25.408   1.693  0.00  0.00    -0.273 OA
ATOM      2  N   UNL     1     -38.095  25.197   2.860  0.00  0.00    -0.295 N 
ATOM      3  C   UNL     1     -36.712  25.298   2.755  0.00  0.00    +0.249 C 
ATOM      4  H   UNL     1     -38.496  25.112   3.755  0.00  0.00    +0.150 HD
ENDROOT
BRANCH   2   7
ATOM      5  O   UNL     1     -38.741  27.668   0.852  0.00  0.00    -0.271 OA
ATOM      6  N   UNL     1     -40.692  26.354   1.193  0.00  0.00    -0.154 N 
ATOM      7  C   UNL     1     -38.982  25.214   1.684  0.00  0.00    +0.172 C 
ATOM      8  C   UNL     1     -40.487  25.146   2.020  0.00  0.00    +0.148 C 
ATOM      9  C   UNL     1     -39.309  26.641   1.143  0.00  0.00    +0.264 C 
BRANCH   6  10
ATOM     10  S   UNL     1     -41.965  27.453   1.161  0.00  0.00    +0.096 S 
ATOM     11  O   UNL     1     -43.311  26.520   1.166  0.00  0.00    -0.050 OA
ATOM     12  O   UNL     1     -41.951  28.168  -0.113  0.00  0.00    -0.050 OA
ATOM     13  O   UNL     1     -41.972  28.218   2.405  0.00  0.00    -0.050 OA
ENDBRANCH   6  10
ENDBRANCH   2   7
BRANCH   3  14
ATOM     14  C   UNL     1     -36.028  25.251   4.107  0.00  0.00    +0.233 C 
BRANCH  14  15
ATOM     15  C   UNL     1     -35.708  23.850   4.567  0.00  0.00    +0.009 C 
ATOM     16  C   UNL     1     -35.486  23.593   5.920  0.00  0.00    -0.002 C 
ATOM     17  C   UNL     1     -35.633  22.811   3.639  0.00  0.00    -0.002 C 
ATOM     18  C   UNL     1     -35.190  22.297   6.344  0.00  0.00    -0.000 C 
ATOM     19  C   UNL     1     -35.337  21.516   4.063  0.00  0.00    -0.000 C 
ATOM     20  C   UNL     1     -35.115  21.259   5.416  0.00  0.00    -0.000 C 
ENDBRANCH  14  15
BRANCH  14  21
ATOM     21  S   UNL     1     -34.510  26.158   4.102  0.00  0.00    +0.033 S 
ATOM     22  O   UNL     1     -34.488  26.534   5.689  0.00  0.00    -0.069 OA
ATOM     23  O   UNL     1     -34.695  27.375   3.335  0.00  0.00    -0.069 OA
ATOM     24  O   UNL     1     -33.422  25.240   3.825  0.00  0.00    -0.069 OA
ENDBRANCH  14  21
ENDBRANCH   3  14
TORSDOF 5
ENDMDL
MODEL 7
REMARK VINA RESULT:      -6.1      3.446      7.407
REMARK  Name = 56842401
REMARK  5 active torsions:
REMARK  status: ('A' for Active; 'I' for Inactive)
REMARK    1  A    between atoms: N_2  and  C_7
REMARK    2  A    between atoms: C_3  and  C_14
REMARK    3  A    between atoms: N_6  and  S_10
REMARK    4  A    between atoms: C_14  and  C_15
REMARK    5  A    between atoms: C_14  and  S_21
REMARK                            x       y       z     vdW  Elec       q    Type
REMARK                         _______ _______ _______ _____ _____    ______ ____
ROOT
ATOM      1  O   UNL     1     -35.562  26.574   5.195  0.00  0.00    -0.273 OA
ATOM      2  N   UNL     1     -33.953  26.829   3.546  0.00  0.00    -0.295 N 
ATOM      3  C   UNL     1     -35.028  26.192   4.156  0.00  0.00    +0.249 C 
ATOM      4  H   UNL     1     -33.589  26.450   2.713  0.00  0.00    +0.150 HD
ENDROOT
BRANCH   2   7
ATOM      5  O   UNL     1     -31.626  28.685   2.244  0.00  0.00    -0.271 OA
ATOM      6  N   UNL     1     -31.346  28.547   4.600  0.00  0.00    -0.154 N 
ATOM      7  C   UNL     1     -33.337  28.047   4.099  0.00  0.00    +0.172 C 
ATOM      8  C   UNL     1     -32.408  27.800   5.307  0.00  0.00    +0.148 C 
ATOM      9  C   UNL     1     -32.034  28.500   3.367  0.00  0.00    +0.264 C 
BRANCH   6  10
ATOM     10  S   UNL     1     -29.681  28.569   4.840  0.00  0.00    +0.096 S 
ATOM     11  O   UNL     1     -29.501  28.546   6.468  0.00  0.00    -0.050 OA
ATOM     12  O   UNL     1     -29.145  29.845   4.373  0.00  0.00    -0.050 OA
ATOM     13  O   UNL     1     -29.105  27.328   4.331  0.00  0.00    -0.050 OA
ENDBRANCH   6  10
ENDBRANCH   2   7
BRANCH   3  14
ATOM     14  C   UNL     1     -35.473  24.959   3.393  0.00  0.00    +0.233 C 
BRANCH  14  15
ATOM     15  C   UNL     1     -35.379  23.689   4.203  0.00  0.00    +0.009 C 
ATOM     16  C   UNL     1     -35.270  23.754   5.593  0.00  0.00    -0.002 C 
ATOM     17  C   UNL     1     -35.402  22.450   3.563  0.00  0.00    -0.002 C 
ATOM     18  C   UNL     1     -35.183  22.579   6.340  0.00  0.00    -0.000 C 
ATOM     19  C   UNL     1     -35.316  21.276   4.311  0.00  0.00    -0.000 C 
ATOM     20  C   UNL     1     -35.206  21.340   5.700  0.00  0.00    -0.000 C 
ENDBRANCH  14  15
BRANCH  14  21
ATOM     21  S   UNL     1     -37.147  25.103   2.842  0.00  0.00    +0.033 S 
ATOM     22  O   UNL     1     -37.139  26.711   2.570  0.00  0.00    -0.069 OA
ATOM     23  O   UNL     1     -38.032  24.820   3.955  0.00  0.00    -0.069 OA
ATOM     24  O   UNL     1     -37.278  24.416   1.570  0.00  0.00    -0.069 OA
ENDBRANCH  14  21
ENDBRANCH   3  14
TORSDOF 5
ENDMDL
MODEL 8
REMARK VINA RESULT:      -6.0      3.881      6.531
REMARK  Name = 56842401
REMARK  5 active torsions:
REMARK  status: ('A' for Active; 'I' for Inactive)
REMARK    1  A    between atoms: N_2  and  C_7
REMARK    2  A    between atoms: C_3  and  C_14
REMARK    3  A    between atoms: N_6  and  S_10
REMARK    4  A    between atoms: C_14  and  C_15
REMARK    5  A    between atoms: C_14  and  S_21
REMARK                            x       y       z     vdW  Elec       q    Type
REMARK                         _______ _______ _______ _____ _____    ______ ____
ROOT
ATOM      1  O   UNL     1     -35.290  25.022   1.305  0.00  0.00    -0.273 OA
ATOM      2  N   UNL     1     -34.937  26.367   3.159  0.00  0.00    -0.295 N 
ATOM      3  C   UNL     1     -35.453  25.257   2.500  0.00  0.00    +0.249 C 
ATOM      4  H   UNL     1     -35.119  26.473   4.121  0.00  0.00    +0.150 HD
ENDROOT
BRANCH   2   7
ATOM      5  O   UNL     1     -31.765  26.988   3.492  0.00  0.00    -0.271 OA
ATOM      6  N   UNL     1     -32.971  29.012   3.177  0.00  0.00    -0.154 N 
ATOM      7  C   UNL     1     -34.127  27.389   2.474  0.00  0.00    +0.172 C 
ATOM      8  C   UNL     1     -34.417  28.837   2.922  0.00  0.00    +0.148 C 
ATOM      9  C   UNL     1     -32.717  27.623   3.104  0.00  0.00    +0.264 C 
BRANCH   6  10
ATOM     10  S   UNL     1     -32.156  30.150   4.110  0.00  0.00    +0.096 S 
ATOM     11  O   UNL     1     -32.709  31.594   3.570  0.00  0.00    -0.050 OA
ATOM     12  O   UNL     1     -30.731  30.099   3.794  0.00  0.00    -0.050 OA
ATOM     13  O   UNL     1     -32.580  30.025   5.502  0.00  0.00    -0.050 OA
ENDBRANCH   6  10
ENDBRANCH   2   7
BRANCH   3  14
ATOM     14  C   UNL     1     -36.253  24.360   3.425  0.00  0.00    +0.233 C 
BRANCH  14  15
ATOM     15  C   UNL     1     -36.422  22.956   2.898  0.00  0.00    +0.009 C 
ATOM     16  C   UNL     1     -35.345  22.070   2.914  0.00  0.00    -0.002 C 
ATOM     17  C   UNL     1     -37.656  22.545   2.393  0.00  0.00    -0.002 C 
ATOM     18  C   UNL     1     -35.502  20.773   2.426  0.00  0.00    -0.000 C 
ATOM     19  C   UNL     1     -37.813  21.247   1.906  0.00  0.00    -0.000 C 
ATOM     20  C   UNL     1     -36.736  20.361   1.922  0.00  0.00    -0.000 C 
ENDBRANCH  14  15
BRANCH  14  21
ATOM     21  S   UNL     1     -35.499  24.231   5.020  0.00  0.00    +0.033 S 
ATOM     22  O   UNL     1     -36.056  25.638   5.627  0.00  0.00    -0.069 OA
ATOM     23  O   UNL     1     -34.060  24.324   4.865  0.00  0.00    -0.069 OA
ATOM     24  O   UNL     1     -36.119  23.134   5.739  0.00  0.00    -0.069 OA
ENDBRANCH  14  21
ENDBRANCH   3  14
TORSDOF 5
ENDMDL
MODEL 9
REMARK VINA RESULT:      -6.0      4.811      6.264
REMARK  Name = 56842401
REMARK  5 active torsions:
REMARK  status: ('A' for Active; 'I' for Inactive)
REMARK    1  A    between atoms: N_2  and  C_7
REMARK    2  A    between atoms: C_3  and  C_14
REMARK    3  A    between atoms: N_6  and  S_10
REMARK    4  A    between atoms: C_14  and  C_15
REMARK    5  A    between atoms: C_14  and  S_21
REMARK                            x       y       z     vdW  Elec       q    Type
REMARK                         _______ _______ _______ _____ _____    ______ ____
ROOT
ATOM      1  O   UNL     1     -35.654  21.366   1.113  0.00  0.00    -0.273 OA
ATOM      2  N   UNL     1     -37.816  20.558   0.901  0.00  0.00    -0.295 N 
ATOM      3  C   UNL     1     -36.817  21.314   1.505  0.00  0.00    +0.249 C 
ATOM      4  H   UNL     1     -38.722  20.577   1.286  0.00  0.00    +0.150 HD
ENDROOT
BRANCH   2   7
ATOM      5  O   UNL     1     -39.988  19.183  -1.085  0.00  0.00    -0.271 OA
ATOM      6  N   UNL     1     -38.112  17.752  -0.802  0.00  0.00    -0.154 N 
ATOM      7  C   UNL     1     -37.570  19.730  -0.292  0.00  0.00    +0.172 C 
ATOM      8  C   UNL     1     -37.018  18.321   0.012  0.00  0.00    +0.148 C 
ATOM      9  C   UNL     1     -38.829  18.970  -0.820  0.00  0.00    +0.264 C 
BRANCH   6  10
ATOM     10  S   UNL     1     -38.746  16.194  -0.844  0.00  0.00    +0.096 S 
ATOM     11  O   UNL     1     -38.334  15.624  -2.323  0.00  0.00    -0.050 OA
ATOM     12  O   UNL     1     -40.204  16.268  -0.812  0.00  0.00    -0.050 OA
ATOM     13  O   UNL     1     -38.055  15.366   0.139  0.00  0.00    -0.050 OA
ENDBRANCH   6  10
ENDBRANCH   2   7
BRANCH   3  14
ATOM     14  C   UNL     1     -37.324  22.071   2.717  0.00  0.00    +0.233 C 
BRANCH  14  15
ATOM     15  C   UNL     1     -36.251  22.875   3.410  0.00  0.00    +0.009 C 
ATOM     16  C   UNL     1     -35.664  23.962   2.762  0.00  0.00    -0.002 C 
ATOM     17  C   UNL     1     -35.846  22.531   4.701  0.00  0.00    -0.002 C 
ATOM     18  C   UNL     1     -34.673  24.704   3.404  0.00  0.00    -0.000 C 
ATOM     19  C   UNL     1     -34.855  23.274   5.342  0.00  0.00    -0.000 C 
ATOM     20  C   UNL     1     -34.268  24.361   4.694  0.00  0.00    -0.000 C 
ENDBRANCH  14  15
BRANCH  14  21
ATOM     21  S   UNL     1     -38.621  23.194   2.288  0.00  0.00    +0.033 S 
ATOM     22  O   UNL     1     -39.843  22.113   2.300  0.00  0.00    -0.069 OA
ATOM     23  O   UNL     1     -38.413  23.651   0.928  0.00  0.00    -0.069 OA
ATOM     24  O   UNL     1     -38.811  24.124   3.385  0.00  0.00    -0.069 OA
ENDBRANCH  14  21
ENDBRANCH   3  14
TORSDOF 5
ENDMDL
