MODEL 1
REMARK VINA RESULT:      -7.7      0.000      0.000
REMARK  Name = 194326
REMARK  2 active torsions:
REMARK  status: ('A' for Active; 'I' for Inactive)
REMARK    1  A    between atoms: C_9  and  C_35
REMARK    2  A    between atoms: C_40  and  O_41
REMARK                            x       y       z     vdW  Elec       q    Type
REMARK                         _______ _______ _______ _____ _____    ______ ____
ROOT
ATOM      1  O   UNL     1     -34.678  20.277   3.007  0.00  0.00    -0.474 OA
ATOM      2  O   UNL     1     -36.182  21.408  -0.586  0.00  0.00    -0.274 OA
ATOM      3  O   UNL     1     -35.811  27.887   2.287  0.00  0.00    -0.275 OA
ATOM      4  N   UNL     1     -35.155  23.488  -0.682  0.00  0.00    -0.279 N 
ATOM      5  N   UNL     1     -37.790  25.908   3.389  0.00  0.00    +0.388 N 
ATOM      6  N   UNL     1     -34.062  26.364   2.225  0.00  0.00    -0.304 N 
ATOM      7  N   UNL     1     -39.147  25.893   0.625  0.00  0.00    +0.384 N 
ATOM      8  C   UNL     1     -34.605  21.867   1.157  0.00  0.00    +0.146 C 
ATOM      9  C   UNL     1     -34.651  20.368   1.553  0.00  0.00    +0.201 C 
ATOM     10  C   UNL     1     -35.255  22.416   2.385  0.00  0.00    +0.024 C 
ATOM     11  C   UNL     1     -35.368  22.212  -0.118  0.00  0.00    +0.233 C 
ATOM     12  C   UNL     1     -35.201  21.480   3.401  0.00  0.00    +0.135 C 
ATOM     13  C   UNL     1     -36.680  25.433   4.230  0.00  0.00    -0.029 C 
ATOM     14  C   UNL     1     -36.205  24.021   3.914  0.00  0.00    -0.042 C 
ATOM     15  C   UNL     1     -35.788  23.672   2.623  0.00  0.00    -0.007 C 
ATOM     16  C   UNL     1     -36.065  23.894  -1.767  0.00  0.00    +0.093 C 
ATOM     17  C   UNL     1     -34.067  24.419  -0.312  0.00  0.00    +0.095 C 
ATOM     18  C   UNL     1     -35.625  21.770   4.684  0.00  0.00    +0.036 C 
ATOM     19  C   UNL     1     -37.483  24.124  -1.217  0.00  0.00    +0.019 C 
ATOM     20  C   UNL     1     -35.508  26.451   4.194  0.00  0.00    +0.068 C 
ATOM     21  C   UNL     1     -36.121  23.054   4.939  0.00  0.00    -0.003 C 
ATOM     22  C   UNL     1     -34.497  25.888  -0.161  0.00  0.00    +0.043 C 
ATOM     23  C   UNL     1     -38.067  25.499  -1.556  0.00  0.00    -0.022 C 
ATOM     24  C   UNL     1     -39.070  25.258   3.646  0.00  0.00    -0.083 C 
ATOM     25  C   UNL     1     -33.647  26.653   0.860  0.00  0.00    +0.091 C 
ATOM     26  C   UNL     1     -40.202  25.980   2.897  0.00  0.00    -0.047 C 
ATOM     27  C   UNL     1     -39.388  25.735  -0.812  0.00  0.00    -0.082 C 
ATOM     28  C   UNL     1     -35.150  26.990   2.812  0.00  0.00    +0.221 C 
ATOM     29  C   UNL     1     -40.352  25.637   1.407  0.00  0.00    -0.084 C 
ATOM     30  H   UNL     1     -37.541  25.746   2.414  0.00  0.00    -0.084 HD
ATOM     31  H   UNL     1     -37.918  26.895   3.612  0.00  0.00    -0.084 HD
ATOM     32  H   UNL     1     -33.554  25.702   2.748  0.00  0.00    +0.149 HD
ATOM     33  H   UNL     1     -38.833  26.847   0.805  0.00  0.00    -0.085 HD
ATOM     34  H   UNL     1     -38.438  25.215   0.904  0.00  0.00    -0.085 HD
ENDROOT
BRANCH   9  35
ATOM     35  C   UNL     1     -33.475  19.589   1.004  0.00  0.00    +0.018 C 
ATOM     36  C   UNL     1     -32.419  20.262   0.391  0.00  0.00    +0.002 C 
ATOM     37  C   UNL     1     -33.448  18.199   1.114  0.00  0.00    +0.002 C 
ATOM     38  C   UNL     1     -31.335  19.544  -0.115  0.00  0.00    +0.036 C 
ATOM     39  C   UNL     1     -32.364  17.482   0.609  0.00  0.00    +0.036 C 
ATOM     40  C   UNL     1     -31.307  18.153  -0.005  0.00  0.00    +0.134 C 
BRANCH  40  41
ATOM     41  O   UNL     1     -30.250  17.454  -0.498  0.00  0.00    -0.506 OA
ATOM     42  H   UNL     1     -29.802  16.837   0.046  0.00  0.00    +0.292 HD
ENDBRANCH  40  41
ENDBRANCH   9  35
TORSDOF 2
ENDMDL
MODEL 2
REMARK VINA RESULT:      -7.4      3.331      7.455
REMARK  Name = 194326
REMARK  2 active torsions:
REMARK  status: ('A' for Active; 'I' for Inactive)
REMARK    1  A    between atoms: C_9  and  C_35
REMARK    2  A    between atoms: C_40  and  O_41
REMARK                            x       y       z     vdW  Elec       q    Type
REMARK                         _______ _______ _______ _____ _____    ______ ____
ROOT
ATOM      1  O   UNL     1     -38.071  22.665   2.994  0.00  0.00    -0.474 OA
ATOM      2  O   UNL     1     -34.786  20.286   2.988  0.00  0.00    -0.274 OA
ATOM      3  O   UNL     1     -36.356  19.629  -3.902  0.00  0.00    -0.275 OA
ATOM      4  N   UNL     1     -34.104  20.748   0.818  0.00  0.00    -0.279 N 
ATOM      5  N   UNL     1     -38.205  18.425  -1.858  0.00  0.00    +0.388 N 
ATOM      6  N   UNL     1     -36.149  21.647  -2.778  0.00  0.00    -0.304 N 
ATOM      7  N   UNL     1     -35.874  16.616  -0.977  0.00  0.00    +0.384 N 
ATOM      8  C   UNL     1     -36.012  22.005   1.860  0.00  0.00    +0.146 C 
ATOM      9  C   UNL     1     -36.656  22.395   3.217  0.00  0.00    +0.201 C 
ATOM     10  C   UNL     1     -37.247  21.486   1.197  0.00  0.00    +0.024 C 
ATOM     11  C   UNL     1     -34.909  20.956   1.957  0.00  0.00    +0.233 C 
ATOM     12  C   UNL     1     -38.366  21.953   1.862  0.00  0.00    +0.135 C 
ATOM     13  C   UNL     1     -38.834  19.754  -1.805  0.00  0.00    -0.029 C 
ATOM     14  C   UNL     1     -38.660  20.485  -0.481  0.00  0.00    -0.042 C 
ATOM     15  C   UNL     1     -37.386  20.723   0.050  0.00  0.00    -0.007 C 
ATOM     16  C   UNL     1     -33.207  19.579   0.844  0.00  0.00    +0.093 C 
ATOM     17  C   UNL     1     -34.049  21.631  -0.368  0.00  0.00    +0.095 C 
ATOM     18  C   UNL     1     -39.644  21.721   1.390  0.00  0.00    +0.036 C 
ATOM     19  C   UNL     1     -34.023  18.278   0.785  0.00  0.00    +0.019 C 
ATOM     20  C   UNL     1     -38.355  20.620  -3.002  0.00  0.00    +0.068 C 
ATOM     21  C   UNL     1     -39.786  20.989   0.205  0.00  0.00    -0.003 C 
ATOM     22  C   UNL     1     -34.044  20.898  -1.720  0.00  0.00    +0.043 C 
ATOM     23  C   UNL     1     -33.601  17.328  -0.341  0.00  0.00    -0.022 C 
ATOM     24  C   UNL     1     -38.858  17.409  -1.039  0.00  0.00    -0.083 C 
ATOM     25  C   UNL     1     -34.696  21.717  -2.840  0.00  0.00    +0.091 C 
ATOM     26  C   UNL     1     -38.281  16.017  -1.344  0.00  0.00    -0.047 C 
ATOM     27  C   UNL     1     -34.580  16.153  -0.468  0.00  0.00    -0.082 C 
ATOM     28  C   UNL     1     -36.858  20.572  -3.289  0.00  0.00    +0.221 C 
ATOM     29  C   UNL     1     -36.946  15.676  -0.664  0.00  0.00    -0.084 C 
ATOM     30  H   UNL     1     -37.241  18.518  -1.541  0.00  0.00    -0.084 HD
ATOM     31  H   UNL     1     -38.281  18.109  -2.825  0.00  0.00    -0.084 HD
ATOM     32  H   UNL     1     -36.644  22.389  -2.359  0.00  0.00    +0.149 HD
ATOM     33  H   UNL     1     -35.813  16.721  -1.990  0.00  0.00    -0.085 HD
ATOM     34  H   UNL     1     -36.092  17.506  -0.529  0.00  0.00    -0.085 HD
ENDROOT
BRANCH   9  35
ATOM     35  C   UNL     1     -35.990  23.599   3.848  0.00  0.00    +0.018 C 
ATOM     36  C   UNL     1     -35.242  23.449   5.015  0.00  0.00    +0.002 C 
ATOM     37  C   UNL     1     -36.123  24.856   3.260  0.00  0.00    +0.002 C 
ATOM     38  C   UNL     1     -34.628  24.559   5.597  0.00  0.00    +0.036 C 
ATOM     39  C   UNL     1     -35.509  25.965   3.841  0.00  0.00    +0.036 C 
ATOM     40  C   UNL     1     -34.761  25.817   5.009  0.00  0.00    +0.134 C 
BRANCH  40  41
ATOM     41  O   UNL     1     -34.162  26.898   5.577  0.00  0.00    -0.506 OA
ATOM     42  H   UNL     1     -33.877  26.862   6.468  0.00  0.00    +0.292 HD
ENDBRANCH  40  41
ENDBRANCH   9  35
TORSDOF 2
ENDMDL
MODEL 3
REMARK VINA RESULT:      -7.4      3.030      7.215
REMARK  Name = 194326
REMARK  2 active torsions:
REMARK  status: ('A' for Active; 'I' for Inactive)
REMARK    1  A    between atoms: C_9  and  C_35
REMARK    2  A    between atoms: C_40  and  O_41
REMARK                            x       y       z     vdW  Elec       q    Type
REMARK                         _______ _______ _______ _____ _____    ______ ____
ROOT
ATOM      1  O   UNL     1     -33.395  27.118   5.427  0.00  0.00    -0.474 OA
ATOM      2  O   UNL     1     -31.509  26.048   1.999  0.00  0.00    -0.274 OA
ATOM      3  O   UNL     1     -37.940  23.605   0.259  0.00  0.00    -0.275 OA
ATOM      4  N   UNL     1     -33.331  26.296   0.583  0.00  0.00    -0.279 N 
ATOM      5  N   UNL     1     -36.407  22.251   2.465  0.00  0.00    +0.388 N 
ATOM      6  N   UNL     1     -37.503  25.746   1.036  0.00  0.00    -0.304 N 
ATOM      7  N   UNL     1     -34.250  21.548   0.383  0.00  0.00    +0.384 N 
ATOM      8  C   UNL     1     -33.470  27.000   2.990  0.00  0.00    +0.146 C 
ATOM      9  C   UNL     1     -32.618  27.395   4.225  0.00  0.00    +0.201 C 
ATOM     10  C   UNL     1     -34.326  25.974   3.660  0.00  0.00    +0.024 C 
ATOM     11  C   UNL     1     -32.671  26.429   1.822  0.00  0.00    +0.233 C 
ATOM     12  C   UNL     1     -34.277  26.147   5.031  0.00  0.00    +0.135 C 
ATOM     13  C   UNL     1     -36.995  23.270   3.348  0.00  0.00    -0.029 C 
ATOM     14  C   UNL     1     -35.992  24.252   3.937  0.00  0.00    -0.042 C 
ATOM     15  C   UNL     1     -35.150  25.008   3.110  0.00  0.00    -0.007 C 
ATOM     16  C   UNL     1     -32.629  25.532  -0.464  0.00  0.00    +0.093 C 
ATOM     17  C   UNL     1     -34.634  26.905   0.234  0.00  0.00    +0.095 C 
ATOM     18  C   UNL     1     -35.069  25.408   5.889  0.00  0.00    +0.036 C 
ATOM     19  C   UNL     1     -32.562  24.044  -0.084  0.00  0.00    +0.019 C 
ATOM     20  C   UNL     1     -38.154  24.004   2.622  0.00  0.00    +0.068 C 
ATOM     21  C   UNL     1     -35.937  24.462   5.332  0.00  0.00    -0.003 C 
ATOM     22  C   UNL     1     -35.598  25.975  -0.523  0.00  0.00    +0.043 C 
ATOM     23  C   UNL     1     -33.113  23.101  -1.159  0.00  0.00    -0.022 C 
ATOM     24  C   UNL     1     -35.596  21.248   3.145  0.00  0.00    -0.083 C 
ATOM     25  C   UNL     1     -37.071  26.294  -0.241  0.00  0.00    +0.091 C 
ATOM     26  C   UNL     1     -35.230  20.106   2.184  0.00  0.00    -0.047 C 
ATOM     27  C   UNL     1     -33.202  21.661  -0.636  0.00  0.00    -0.082 C 
ATOM     28  C   UNL     1     -37.868  24.417   1.182  0.00  0.00    +0.221 C 
ATOM     29  C   UNL     1     -34.056  20.376   1.231  0.00  0.00    -0.084 C 
ATOM     30  H   UNL     1     -35.818  22.726   1.781  0.00  0.00    -0.084 HD
ATOM     31  H   UNL     1     -37.190  21.751   2.042  0.00  0.00    -0.084 HD
ATOM     32  H   UNL     1     -37.538  26.339   1.822  0.00  0.00    +0.149 HD
ATOM     33  H   UNL     1     -35.156  21.474  -0.080  0.00  0.00    -0.085 HD
ATOM     34  H   UNL     1     -34.207  22.378   0.975  0.00  0.00    -0.085 HD
ENDROOT
BRANCH   9  35
ATOM     35  C   UNL     1     -32.202  28.850   4.198  0.00  0.00    +0.018 C 
ATOM     36  C   UNL     1     -32.543  29.652   3.110  0.00  0.00    +0.002 C 
ATOM     37  C   UNL     1     -31.479  29.387   5.262  0.00  0.00    +0.002 C 
ATOM     38  C   UNL     1     -32.160  30.993   3.085  0.00  0.00    +0.036 C 
ATOM     39  C   UNL     1     -31.096  30.728   5.238  0.00  0.00    +0.036 C 
ATOM     40  C   UNL     1     -31.436  31.532   4.150  0.00  0.00    +0.134 C 
BRANCH  40  41
ATOM     41  O   UNL     1     -31.063  32.839   4.125  0.00  0.00    -0.506 OA
ATOM     42  H   UNL     1     -31.714  33.513   4.137  0.00  0.00    +0.292 HD
ENDBRANCH  40  41
ENDBRANCH   9  35
TORSDOF 2
ENDMDL
MODEL 4
REMARK VINA RESULT:      -7.2      4.383      7.387
REMARK  Name = 194326
REMARK  2 active torsions:
REMARK  status: ('A' for Active; 'I' for Inactive)
REMARK    1  A    between atoms: C_9  and  C_35
REMARK    2  A    between atoms: C_40  and  O_41
REMARK                            x       y       z     vdW  Elec       q    Type
REMARK                         _______ _______ _______ _____ _____    ______ ____
ROOT
ATOM      1  O   UNL     1     -33.630  26.611   5.870  0.00  0.00    -0.474 OA
ATOM      2  O   UNL     1     -35.149  27.710   2.274  0.00  0.00    -0.274 OA
ATOM      3  O   UNL     1     -28.577  30.179   1.239  0.00  0.00    -0.275 OA
ATOM      4  N   UNL     1     -33.189  27.478   1.053  0.00  0.00    -0.279 N 
ATOM      5  N   UNL     1     -30.336  31.510   3.284  0.00  0.00    +0.388 N 
ATOM      6  N   UNL     1     -29.088  28.030   1.946  0.00  0.00    -0.304 N 
ATOM      7  N   UNL     1     -32.265  32.229   0.995  0.00  0.00    +0.384 N 
ATOM      8  C   UNL     1     -33.300  26.752   3.456  0.00  0.00    +0.146 C 
ATOM      9  C   UNL     1     -34.276  26.344   4.591  0.00  0.00    +0.201 C 
ATOM     10  C   UNL     1     -32.522  27.773   4.221  0.00  0.00    +0.024 C 
ATOM     11  C   UNL     1     -33.974  27.333   2.216  0.00  0.00    +0.233 C 
ATOM     12  C   UNL     1     -32.714  27.587   5.578  0.00  0.00    +0.135 C 
ATOM     13  C   UNL     1     -29.841  30.483   4.215  0.00  0.00    -0.029 C 
ATOM     14  C   UNL     1     -30.898  29.494   4.686  0.00  0.00    -0.042 C 
ATOM     15  C   UNL     1     -31.647  28.746   3.769  0.00  0.00    -0.007 C 
ATOM     16  C   UNL     1     -33.779  28.251  -0.054  0.00  0.00    +0.093 C 
ATOM     17  C   UNL     1     -31.855  26.875   0.837  0.00  0.00    +0.095 C 
ATOM     18  C   UNL     1     -32.018  28.319   6.520  0.00  0.00    +0.036 C 
ATOM     19  C   UNL     1     -33.889  29.736   0.331  0.00  0.00    +0.019 C 
ATOM     20  C   UNL     1     -28.610  29.758   3.607  0.00  0.00    +0.068 C 
ATOM     21  C   UNL     1     -31.098  29.271   6.066  0.00  0.00    -0.003 C 
ATOM     22  C   UNL     1     -30.819  27.813   0.194  0.00  0.00    +0.043 C 
ATOM     23  C   UNL     1     -33.231  30.690  -0.671  0.00  0.00    -0.022 C 
ATOM     24  C   UNL     1     -31.216  32.506   3.886  0.00  0.00    -0.083 C 
ATOM     25  C   UNL     1     -29.383  27.493   0.625  0.00  0.00    +0.091 C 
ATOM     26  C   UNL     1     -31.482  33.656   2.902  0.00  0.00    -0.047 C 
ATOM     27  C   UNL     1     -33.201  32.125  -0.129  0.00  0.00    -0.082 C 
ATOM     28  C   UNL     1     -28.744  29.358   2.141  0.00  0.00    +0.221 C 
ATOM     29  C   UNL     1     -32.550  33.393   1.829  0.00  0.00    -0.084 C 
ATOM     30  H   UNL     1     -30.849  31.041   2.538  0.00  0.00    -0.084 HD
ATOM     31  H   UNL     1     -29.514  32.015   2.950  0.00  0.00    -0.084 HD
ATOM     32  H   UNL     1     -29.135  27.430   2.726  0.00  0.00    +0.149 HD
ATOM     33  H   UNL     1     -31.316  32.309   0.630  0.00  0.00    -0.085 HD
ATOM     34  H   UNL     1     -32.368  31.394   1.572  0.00  0.00    -0.085 HD
ENDROOT
BRANCH   9  35
ATOM     35  C   UNL     1     -34.683  24.889   4.507  0.00  0.00    +0.018 C 
ATOM     36  C   UNL     1     -34.952  24.172   5.672  0.00  0.00    +0.002 C 
ATOM     37  C   UNL     1     -34.790  24.267   3.264  0.00  0.00    +0.002 C 
ATOM     38  C   UNL     1     -35.327  22.831   5.595  0.00  0.00    +0.036 C 
ATOM     39  C   UNL     1     -35.166  22.926   3.186  0.00  0.00    +0.036 C 
ATOM     40  C   UNL     1     -35.435  22.207   4.351  0.00  0.00    +0.134 C 
BRANCH  40  41
ATOM     41  O   UNL     1     -35.801  20.900   4.276  0.00  0.00    -0.506 OA
ATOM     42  H   UNL     1     -36.226  20.490   5.003  0.00  0.00    +0.292 HD
ENDBRANCH  40  41
ENDBRANCH   9  35
TORSDOF 2
ENDMDL
MODEL 5
REMARK VINA RESULT:      -7.0      4.012      6.936
REMARK  Name = 194326
REMARK  2 active torsions:
REMARK  status: ('A' for Active; 'I' for Inactive)
REMARK    1  A    between atoms: C_9  and  C_35
REMARK    2  A    between atoms: C_40  and  O_41
REMARK                            x       y       z     vdW  Elec       q    Type
REMARK                         _______ _______ _______ _____ _____    ______ ____
ROOT
ATOM      1  O   UNL     1     -36.355  25.528   1.900  0.00  0.00    -0.474 OA
ATOM      2  O   UNL     1     -32.347  25.283   1.330  0.00  0.00    -0.274 OA
ATOM      3  O   UNL     1     -32.597  32.217   2.823  0.00  0.00    -0.275 OA
ATOM      4  N   UNL     1     -31.743  26.938   2.842  0.00  0.00    -0.279 N 
ATOM      5  N   UNL     1     -33.826  31.225   0.262  0.00  0.00    +0.388 N 
ATOM      6  N   UNL     1     -33.544  30.547   4.125  0.00  0.00    -0.304 N 
ATOM      7  N   UNL     1     -31.022  30.278  -0.587  0.00  0.00    +0.384 N 
ATOM      8  C   UNL     1     -34.127  26.167   2.665  0.00  0.00    +0.146 C 
ATOM      9  C   UNL     1     -35.027  24.998   2.186  0.00  0.00    +0.201 C 
ATOM     10  C   UNL     1     -34.859  27.275   1.981  0.00  0.00    +0.024 C 
ATOM     11  C   UNL     1     -32.668  26.066   2.231  0.00  0.00    +0.233 C 
ATOM     12  C   UNL     1     -36.129  26.853   1.634  0.00  0.00    +0.135 C 
ATOM     13  C   UNL     1     -35.031  30.972   1.068  0.00  0.00    -0.029 C 
ATOM     14  C   UNL     1     -35.392  29.502   1.222  0.00  0.00    -0.042 C 
ATOM     15  C   UNL     1     -34.472  28.583   1.745  0.00  0.00    -0.007 C 
ATOM     16  C   UNL     1     -30.394  26.995   2.250  0.00  0.00    +0.093 C 
ATOM     17  C   UNL     1     -31.998  27.750   4.052  0.00  0.00    +0.095 C 
ATOM     18  C   UNL     1     -37.062  27.716   1.092  0.00  0.00    +0.036 C 
ATOM     19  C   UNL     1     -30.447  27.659   0.864  0.00  0.00    +0.019 C 
ATOM     20  C   UNL     1     -34.912  31.679   2.445  0.00  0.00    +0.068 C 
ATOM     21  C   UNL     1     -36.689  29.050   0.896  0.00  0.00    -0.003 C 
ATOM     22  C   UNL     1     -31.479  29.196   3.981  0.00  0.00    +0.043 C 
ATOM     23  C   UNL     1     -29.487  28.841   0.702  0.00  0.00    -0.022 C 
ATOM     24  C   UNL     1     -33.977  30.957  -1.164  0.00  0.00    -0.083 C 
ATOM     25  C   UNL     1     -32.320  30.169   4.815  0.00  0.00    +0.091 C 
ATOM     26  C   UNL     1     -32.758  31.473  -1.943  0.00  0.00    -0.047 C 
ATOM     27  C   UNL     1     -29.735  29.576  -0.622  0.00  0.00    -0.082 C 
ATOM     28  C   UNL     1     -33.565  31.527   3.146  0.00  0.00    +0.221 C 
ATOM     29  C   UNL     1     -31.516  30.569  -1.929  0.00  0.00    -0.084 C 
ATOM     30  H   UNL     1     -33.076  30.633   0.619  0.00  0.00    -0.084 HD
ATOM     31  H   UNL     1     -33.626  32.222   0.349  0.00  0.00    -0.084 HD
ATOM     32  H   UNL     1     -34.385  30.092   4.361  0.00  0.00    +0.149 HD
ATOM     33  H   UNL     1     -30.906  31.156  -0.080  0.00  0.00    -0.085 HD
ATOM     34  H   UNL     1     -31.700  29.673  -0.124  0.00  0.00    -0.085 HD
ENDROOT
BRANCH   9  35
ATOM     35  C   UNL     1     -35.120  23.884   3.205  0.00  0.00    +0.018 C 
ATOM     36  C   UNL     1     -34.849  24.143   4.547  0.00  0.00    +0.002 C 
ATOM     37  C   UNL     1     -35.477  22.598   2.800  0.00  0.00    +0.002 C 
ATOM     38  C   UNL     1     -34.934  23.116   5.488  0.00  0.00    +0.036 C 
ATOM     39  C   UNL     1     -35.562  21.571   3.740  0.00  0.00    +0.036 C 
ATOM     40  C   UNL     1     -35.291  21.829   5.083  0.00  0.00    +0.134 C 
BRANCH  40  41
ATOM     41  O   UNL     1     -35.374  20.827   6.000  0.00  0.00    -0.506 OA
ATOM     42  H   UNL     1     -35.884  20.064   5.815  0.00  0.00    +0.292 HD
ENDBRANCH  40  41
ENDBRANCH   9  35
TORSDOF 2
ENDMDL
MODEL 6
REMARK VINA RESULT:      -7.0      1.801      3.795
REMARK  Name = 194326
REMARK  2 active torsions:
REMARK  status: ('A' for Active; 'I' for Inactive)
REMARK    1  A    between atoms: C_9  and  C_35
REMARK    2  A    between atoms: C_40  and  O_41
REMARK                            x       y       z     vdW  Elec       q    Type
REMARK                         _______ _______ _______ _____ _____    ______ ____
ROOT
ATOM      1  O   UNL     1     -35.828  20.484  -0.724  0.00  0.00    -0.474 OA
ATOM      2  O   UNL     1     -33.504  23.799  -0.479  0.00  0.00    -0.274 OA
ATOM      3  O   UNL     1     -38.974  26.283   3.298  0.00  0.00    -0.275 OA
ATOM      4  N   UNL     1     -34.223  24.497   1.615  0.00  0.00    -0.279 N 
ATOM      5  N   UNL     1     -39.335  25.782   0.354  0.00  0.00    +0.388 N 
ATOM      6  N   UNL     1     -37.907  24.261   3.687  0.00  0.00    -0.304 N 
ATOM      7  N   UNL     1     -37.165  27.905  -0.161  0.00  0.00    +0.384 N 
ATOM      8  C   UNL     1     -34.960  22.288   0.673  0.00  0.00    +0.146 C 
ATOM      9  C   UNL     1     -34.606  21.196  -0.371  0.00  0.00    +0.201 C 
ATOM     10  C   UNL     1     -36.393  22.471   0.290  0.00  0.00    +0.024 C 
ATOM     11  C   UNL     1     -34.148  23.573   0.552  0.00  0.00    +0.233 C 
ATOM     12  C   UNL     1     -36.824  21.382  -0.445  0.00  0.00    +0.135 C 
ATOM     13  C   UNL     1     -39.651  24.398   0.741  0.00  0.00    -0.029 C 
ATOM     14  C   UNL     1     -38.633  23.364   0.281  0.00  0.00    -0.042 C 
ATOM     15  C   UNL     1     -37.280  23.480   0.624  0.00  0.00    -0.007 C 
ATOM     16  C   UNL     1     -33.629  25.825   1.383  0.00  0.00    +0.093 C 
ATOM     17  C   UNL     1     -34.796  24.223   2.951  0.00  0.00    +0.095 C 
ATOM     18  C   UNL     1     -38.143  21.237  -0.829  0.00  0.00    +0.036 C 
ATOM     19  C   UNL     1     -34.455  26.606   0.347  0.00  0.00    +0.019 C 
ATOM     20  C   UNL     1     -39.899  24.314   2.272  0.00  0.00    +0.068 C 
ATOM     21  C   UNL     1     -39.052  22.233  -0.453  0.00  0.00    -0.003 C 
ATOM     22  C   UNL     1     -35.691  25.342   3.512  0.00  0.00    +0.043 C 
ATOM     23  C   UNL     1     -34.907  27.990   0.825  0.00  0.00    -0.022 C 
ATOM     24  C   UNL     1     -39.470  26.063  -1.071  0.00  0.00    -0.083 C 
ATOM     25  C   UNL     1     -36.790  24.812   4.440  0.00  0.00    +0.091 C 
ATOM     26  C   UNL     1     -39.354  27.573  -1.337  0.00  0.00    -0.047 C 
ATOM     27  C   UNL     1     -35.887  28.624  -0.170  0.00  0.00    -0.082 C 
ATOM     28  C   UNL     1     -38.895  25.065   3.140  0.00  0.00    +0.221 C 
ATOM     29  C   UNL     1     -37.928  28.142  -1.383  0.00  0.00    -0.084 C 
ATOM     30  H   UNL     1     -38.372  25.976   0.627  0.00  0.00    -0.084 HD
ATOM     31  H   UNL     1     -40.014  26.376   0.830  0.00  0.00    -0.084 HD
ATOM     32  H   UNL     1     -37.963  23.286   3.561  0.00  0.00    +0.149 HD
ATOM     33  H   UNL     1     -37.716  28.221   0.638  0.00  0.00    -0.085 HD
ATOM     34  H   UNL     1     -36.968  26.907  -0.099  0.00  0.00    -0.085 HD
ENDROOT
BRANCH   9  35
ATOM     35  C   UNL     1     -33.565  20.224   0.140  0.00  0.00    +0.018 C 
ATOM     36  C   UNL     1     -33.931  19.214   1.028  0.00  0.00    +0.002 C 
ATOM     37  C   UNL     1     -32.240  20.339  -0.280  0.00  0.00    +0.002 C 
ATOM     38  C   UNL     1     -32.971  18.318   1.499  0.00  0.00    +0.036 C 
ATOM     39  C   UNL     1     -31.281  19.443   0.190  0.00  0.00    +0.036 C 
ATOM     40  C   UNL     1     -31.645  18.432   1.080  0.00  0.00    +0.134 C 
BRANCH  40  41
ATOM     41  O   UNL     1     -30.710  17.558   1.539  0.00  0.00    -0.506 OA
ATOM     42  H   UNL     1     -30.884  16.637   1.528  0.00  0.00    +0.292 HD
ENDBRANCH  40  41
ENDBRANCH   9  35
TORSDOF 2
ENDMDL
MODEL 7
REMARK VINA RESULT:      -6.9      3.609      6.048
REMARK  Name = 194326
REMARK  2 active torsions:
REMARK  status: ('A' for Active; 'I' for Inactive)
REMARK    1  A    between atoms: C_9  and  C_35
REMARK    2  A    between atoms: C_40  and  O_41
REMARK                            x       y       z     vdW  Elec       q    Type
REMARK                         _______ _______ _______ _____ _____    ______ ____
ROOT
ATOM      1  O   UNL     1     -35.085  26.789   4.025  0.00  0.00    -0.474 OA
ATOM      2  O   UNL     1     -38.961  26.148   3.015  0.00  0.00    -0.274 OA
ATOM      3  O   UNL     1     -36.926  29.065  -3.126  0.00  0.00    -0.275 OA
ATOM      4  N   UNL     1     -38.608  25.787   0.749  0.00  0.00    -0.279 N 
ATOM      5  N   UNL     1     -37.021  30.776  -0.654  0.00  0.00    +0.388 N 
ATOM      6  N   UNL     1     -35.843  27.304  -2.074  0.00  0.00    -0.304 N 
ATOM      7  N   UNL     1     -40.049  30.228  -0.527  0.00  0.00    +0.384 N 
ATOM      8  C   UNL     1     -36.670  26.038   2.327  0.00  0.00    +0.146 C 
ATOM      9  C   UNL     1     -36.257  25.947   3.820  0.00  0.00    +0.201 C 
ATOM     10  C   UNL     1     -36.093  27.387   2.044  0.00  0.00    +0.024 C 
ATOM     11  C   UNL     1     -38.174  25.976   2.078  0.00  0.00    +0.233 C 
ATOM     12  C   UNL     1     -35.164  27.711   3.015  0.00  0.00    +0.135 C 
ATOM     13  C   UNL     1     -35.659  30.285  -0.395  0.00  0.00    -0.029 C 
ATOM     14  C   UNL     1     -35.529  29.396   0.834  0.00  0.00    -0.042 C 
ATOM     15  C   UNL     1     -36.307  28.239   0.974  0.00  0.00    -0.007 C 
ATOM     16  C   UNL     1     -40.048  25.965   0.490  0.00  0.00    +0.093 C 
ATOM     17  C   UNL     1     -37.751  25.375  -0.384  0.00  0.00    +0.095 C 
ATOM     18  C   UNL     1     -34.391  28.855   2.934  0.00  0.00    +0.036 C 
ATOM     19  C   UNL     1     -40.441  27.443   0.648  0.00  0.00    +0.019 C 
ATOM     20  C   UNL     1     -35.090  29.592  -1.663  0.00  0.00    +0.068 C 
ATOM     21  C   UNL     1     -34.573  29.694   1.829  0.00  0.00    -0.003 C 
ATOM     22  C   UNL     1     -37.994  26.147  -1.692  0.00  0.00    +0.043 C 
ATOM     23  C   UNL     1     -41.163  28.029  -0.570  0.00  0.00    -0.022 C 
ATOM     24  C   UNL     1     -37.504  31.768   0.300  0.00  0.00    -0.083 C 
ATOM     25  C   UNL     1     -36.733  26.258  -2.557  0.00  0.00    +0.091 C 
ATOM     26  C   UNL     1     -38.824  32.388  -0.186  0.00  0.00    -0.047 C 
ATOM     27  C   UNL     1     -41.343  29.546  -0.426  0.00  0.00    -0.082 C 
ATOM     28  C   UNL     1     -36.046  28.641  -2.376  0.00  0.00    +0.221 C 
ATOM     29  C   UNL     1     -40.092  31.560   0.068  0.00  0.00    -0.084 C 
ATOM     30  H   UNL     1     -37.656  29.978  -0.631  0.00  0.00    -0.084 HD
ATOM     31  H   UNL     1     -36.993  31.240  -1.562  0.00  0.00    -0.084 HD
ATOM     32  H   UNL     1     -35.072  27.054  -1.515  0.00  0.00    +0.149 HD
ATOM     33  H   UNL     1     -39.796  30.315  -1.512  0.00  0.00    -0.085 HD
ATOM     34  H   UNL     1     -39.359  29.677  -0.018  0.00  0.00    -0.085 HD
ENDROOT
BRANCH   9  35
ATOM     35  C   UNL     1     -35.960  24.527   4.251  0.00  0.00    +0.018 C 
ATOM     36  C   UNL     1     -35.561  24.265   5.561  0.00  0.00    +0.002 C 
ATOM     37  C   UNL     1     -36.085  23.481   3.337  0.00  0.00    +0.002 C 
ATOM     38  C   UNL     1     -35.287  22.956   5.958  0.00  0.00    +0.036 C 
ATOM     39  C   UNL     1     -35.812  22.173   3.734  0.00  0.00    +0.036 C 
ATOM     40  C   UNL     1     -35.413  21.909   5.044  0.00  0.00    +0.134 C 
BRANCH  40  41
ATOM     41  O   UNL     1     -35.146  20.633   5.432  0.00  0.00    -0.506 OA
ATOM     42  H   UNL     1     -35.406  19.915   4.891  0.00  0.00    +0.292 HD
ENDBRANCH  40  41
ENDBRANCH   9  35
TORSDOF 2
ENDMDL
MODEL 8
REMARK VINA RESULT:      -6.8      2.710      7.283
REMARK  Name = 194326
REMARK  2 active torsions:
REMARK  status: ('A' for Active; 'I' for Inactive)
REMARK    1  A    between atoms: C_9  and  C_35
REMARK    2  A    between atoms: C_40  and  O_41
REMARK                            x       y       z     vdW  Elec       q    Type
REMARK                         _______ _______ _______ _____ _____    ______ ____
ROOT
ATOM      1  O   UNL     1     -34.072  25.712   4.520  0.00  0.00    -0.474 OA
ATOM      2  O   UNL     1     -31.812  25.424   1.164  0.00  0.00    -0.274 OA
ATOM      3  O   UNL     1     -36.973  20.999  -0.873  0.00  0.00    -0.275 OA
ATOM      4  N   UNL     1     -33.558  25.077  -0.326  0.00  0.00    -0.279 N 
ATOM      5  N   UNL     1     -35.154  20.188   1.381  0.00  0.00    +0.388 N 
ATOM      6  N   UNL     1     -37.313  23.142  -0.056  0.00  0.00    -0.304 N 
ATOM      7  N   UNL     1     -32.811  20.304  -0.614  0.00  0.00    +0.384 N 
ATOM      8  C   UNL     1     -34.014  25.634   2.081  0.00  0.00    +0.146 C 
ATOM      9  C   UNL     1     -33.392  26.264   3.355  0.00  0.00    +0.201 C 
ATOM     10  C   UNL     1     -34.498  24.364   2.703  0.00  0.00    +0.024 C 
ATOM     11  C   UNL     1     -33.028  25.395   0.942  0.00  0.00    +0.233 C 
ATOM     12  C   UNL     1     -34.559  24.511   4.077  0.00  0.00    +0.135 C 
ATOM     13  C   UNL     1     -36.083  20.927   2.250  0.00  0.00    -0.029 C 
ATOM     14  C   UNL     1     -35.493  22.175   2.891  0.00  0.00    -0.042 C 
ATOM     15  C   UNL     1     -34.926  23.190   2.108  0.00  0.00    -0.007 C 
ATOM     16  C   UNL     1     -32.602  24.620  -1.350  0.00  0.00    +0.093 C 
ATOM     17  C   UNL     1     -34.976  25.219  -0.723  0.00  0.00    +0.095 C 
ATOM     18  C   UNL     1     -35.085  23.527   4.892  0.00  0.00    +0.036 C 
ATOM     19  C   UNL     1     -32.050  23.233  -0.983  0.00  0.00    +0.019 C 
ATOM     20  C   UNL     1     -37.395  21.245   1.482  0.00  0.00    +0.068 C 
ATOM     21  C   UNL     1     -35.563  22.357   4.289  0.00  0.00    -0.003 C 
ATOM     22  C   UNL     1     -35.542  24.038  -1.530  0.00  0.00    +0.043 C 
ATOM     23  C   UNL     1     -32.211  22.185  -2.090  0.00  0.00    -0.022 C 
ATOM     24  C   UNL     1     -34.077  19.500   2.085  0.00  0.00    -0.083 C 
ATOM     25  C   UNL     1     -37.045  23.835  -1.308  0.00  0.00    +0.091 C 
ATOM     26  C   UNL     1     -33.312  18.572   1.128  0.00  0.00    -0.047 C 
ATOM     27  C   UNL     1     -31.827  20.787  -1.587  0.00  0.00    -0.082 C 
ATOM     28  C   UNL     1     -37.212  21.765   0.060  0.00  0.00    +0.221 C 
ATOM     29  C   UNL     1     -32.264  19.245   0.229  0.00  0.00    -0.084 C 
ATOM     30  H   UNL     1     -34.735  20.849   0.728  0.00  0.00    -0.084 HD
ATOM     31  H   UNL     1     -35.706  19.464   0.921  0.00  0.00    -0.084 HD
ATOM     32  H   UNL     1     -37.574  23.669   0.734  0.00  0.00    +0.149 HD
ATOM     33  H   UNL     1     -33.622  19.940  -1.116  0.00  0.00    -0.085 HD
ATOM     34  H   UNL     1     -33.073  21.084  -0.012  0.00  0.00    -0.085 HD
ENDROOT
BRANCH   9  35
ATOM     35  C   UNL     1     -33.491  27.774   3.360  0.00  0.00    +0.018 C 
ATOM     36  C   UNL     1     -32.498  28.535   3.975  0.00  0.00    +0.002 C 
ATOM     37  C   UNL     1     -34.576  28.402   2.750  0.00  0.00    +0.002 C 
ATOM     38  C   UNL     1     -32.590  29.927   3.981  0.00  0.00    +0.036 C 
ATOM     39  C   UNL     1     -34.667  29.794   2.754  0.00  0.00    +0.036 C 
ATOM     40  C   UNL     1     -33.675  30.557   3.370  0.00  0.00    +0.134 C 
BRANCH  40  41
ATOM     41  O   UNL     1     -33.763  31.914   3.375  0.00  0.00    -0.506 OA
ATOM     42  H   UNL     1     -34.502  32.337   2.984  0.00  0.00    +0.292 HD
ENDBRANCH  40  41
ENDBRANCH   9  35
TORSDOF 2
ENDMDL
MODEL 9
REMARK VINA RESULT:      -6.8      1.375      1.596
REMARK  Name = 194326
REMARK  2 active torsions:
REMARK  status: ('A' for Active; 'I' for Inactive)
REMARK    1  A    between atoms: C_9  and  C_35
REMARK    2  A    between atoms: C_40  and  O_41
REMARK                            x       y       z     vdW  Elec       q    Type
REMARK                         _______ _______ _______ _____ _____    ______ ____
ROOT
ATOM      1  O   UNL     1     -34.368  20.216   1.469  0.00  0.00    -0.474 OA
ATOM      2  O   UNL     1     -35.191  22.816  -1.533  0.00  0.00    -0.274 OA
ATOM      3  O   UNL     1     -35.188  27.554   3.750  0.00  0.00    -0.275 OA
ATOM      4  N   UNL     1     -34.118  24.659  -0.616  0.00  0.00    -0.279 N 
ATOM      5  N   UNL     1     -37.373  25.490   3.636  0.00  0.00    +0.388 N 
ATOM      6  N   UNL     1     -33.490  26.028   3.340  0.00  0.00    -0.304 N 
ATOM      7  N   UNL     1     -38.223  26.701   0.935  0.00  0.00    +0.384 N 
ATOM      8  C   UNL     1     -33.935  22.398   0.462  0.00  0.00    +0.146 C 
ATOM      9  C   UNL     1     -34.083  20.876   0.201  0.00  0.00    +0.201 C 
ATOM     10  C   UNL     1     -34.779  22.470   1.693  0.00  0.00    +0.024 C 
ATOM     11  C   UNL     1     -34.454  23.290  -0.661  0.00  0.00    +0.233 C 
ATOM     12  C   UNL     1     -34.926  21.206   2.235  0.00  0.00    +0.135 C 
ATOM     13  C   UNL     1     -36.439  24.621   4.368  0.00  0.00    -0.029 C 
ATOM     14  C   UNL     1     -35.948  23.414   3.580  0.00  0.00    -0.042 C 
ATOM     15  C   UNL     1     -35.318  23.570   2.339  0.00  0.00    -0.007 C 
ATOM     16  C   UNL     1     -34.813  25.545  -1.566  0.00  0.00    +0.093 C 
ATOM     17  C   UNL     1     -33.091  25.262   0.262  0.00  0.00    +0.095 C 
ATOM     18  C   UNL     1     -35.563  21.000   3.444  0.00  0.00    +0.036 C 
ATOM     19  C   UNL     1     -36.300  25.666  -1.193  0.00  0.00    +0.019 C 
ATOM     20  C   UNL     1     -35.257  25.457   4.928  0.00  0.00    +0.068 C 
ATOM     21  C   UNL     1     -36.067  22.115   4.122  0.00  0.00    -0.003 C 
ATOM     22  C   UNL     1     -33.508  26.583   0.931  0.00  0.00    +0.043 C 
ATOM     23  C   UNL     1     -36.785  27.110  -1.026  0.00  0.00    -0.022 C 
ATOM     24  C   UNL     1     -38.693  24.912   3.407  0.00  0.00    -0.083 C 
ATOM     25  C   UNL     1     -32.835  26.797   2.291  0.00  0.00    +0.091 C 
ATOM     26  C   UNL     1     -39.659  25.973   2.856  0.00  0.00    -0.047 C 
ATOM     27  C   UNL     1     -38.211  27.151  -0.461  0.00  0.00    -0.082 C 
ATOM     28  C   UNL     1     -34.650  26.466   3.958  0.00  0.00    +0.221 C 
ATOM     29  C   UNL     1     -39.552  26.266   1.352  0.00  0.00    -0.084 C 
ATOM     30  H   UNL     1     -36.960  25.707   2.729  0.00  0.00    -0.084 HD
ATOM     31  H   UNL     1     -37.517  26.314   4.219  0.00  0.00    -0.084 HD
ATOM     32  H   UNL     1     -33.096  25.169   3.618  0.00  0.00    +0.149 HD
ATOM     33  H   UNL     1     -37.924  27.471   1.534  0.00  0.00    -0.085 HD
ATOM     34  H   UNL     1     -37.590  25.905   1.017  0.00  0.00    -0.085 HD
ENDROOT
BRANCH   9  35
ATOM     35  C   UNL     1     -32.846  20.275  -0.432  0.00  0.00    +0.018 C 
ATOM     36  C   UNL     1     -32.740  20.200  -1.820  0.00  0.00    +0.002 C 
ATOM     37  C   UNL     1     -31.814  19.799   0.375  0.00  0.00    +0.002 C 
ATOM     38  C   UNL     1     -31.600  19.646  -2.403  0.00  0.00    +0.036 C 
ATOM     39  C   UNL     1     -30.673  19.246  -0.208  0.00  0.00    +0.036 C 
ATOM     40  C   UNL     1     -30.566  19.170  -1.597  0.00  0.00    +0.134 C 
BRANCH  40  41
ATOM     41  O   UNL     1     -29.454  18.631  -2.165  0.00  0.00    -0.506 OA
ATOM     42  H   UNL     1     -28.942  18.005  -1.692  0.00  0.00    +0.292 HD
ENDBRANCH  40  41
ENDBRANCH   9  35
TORSDOF 2
ENDMDL
