MODEL 1
REMARK VINA RESULT:      -6.1      0.000      0.000
REMARK  Name = 20056103
REMARK  8 active torsions:
REMARK  status: ('A' for Active; 'I' for Inactive)
REMARK    1  A    between atoms: C_7  and  C_31
REMARK    2  A    between atoms: C_11  and  O_25
REMARK    3  A    between atoms: C_13  and  O_27
REMARK    4  A    between atoms: C_18  and  O_29
REMARK    5  A    between atoms: C_31  and  C_33
REMARK    6  A    between atoms: C_33  and  C_34
REMARK    7  A    between atoms: C_34  and  C_36
REMARK    8  A    between atoms: C_36  and  O_37
REMARK                            x       y       z     vdW  Elec       q    Type
REMARK                         _______ _______ _______ _____ _____    ______ ____
ROOT
ATOM      1  O   UNL     1     -34.040  23.930   4.995  0.00  0.00    -0.296 OA
ATOM      2  O   UNL     1     -37.368  27.807   0.991  0.00  0.00    -0.289 OA
ATOM      3  C   UNL     1     -36.418  24.635   2.486  0.00  0.00    +0.042 C 
ATOM      4  C   UNL     1     -35.651  25.262   3.696  0.00  0.00    +0.071 C 
ATOM      5  C   UNL     1     -34.759  28.727   2.014  0.00  0.00    +0.021 C 
ATOM      6  C   UNL     1     -33.700  29.068   3.141  0.00  0.00    +0.009 C 
ATOM      7  C   UNL     1     -37.006  23.329   3.091  0.00  0.00    +0.011 C 
ATOM      8  C   UNL     1     -34.859  26.461   3.201  0.00  0.00    -0.013 C 
ATOM      9  C   UNL     1     -35.444  27.377   2.382  0.00  0.00    +0.009 C 
ATOM     10  C   UNL     1     -33.011  30.486   3.093  0.00  0.00    +0.025 C 
ATOM     11  C   UNL     1     -37.452  25.670   2.035  0.00  0.00    +0.172 C 
ATOM     12  C   UNL     1     -32.723  27.901   3.295  0.00  0.00    +0.034 C 
ATOM     13  C   UNL     1     -33.451  26.628   3.727  0.00  0.00    +0.129 C 
ATOM     14  C   UNL     1     -35.830  22.749   3.900  0.00  0.00    +0.065 C 
ATOM     15  C   UNL     1     -35.754  29.919   1.961  0.00  0.00    +0.007 C 
ATOM     16  C   UNL     1     -35.021  23.980   4.265  0.00  0.00    +0.153 C 
ATOM     17  C   UNL     1     -36.797  27.028   1.754  0.00  0.00    +0.195 C 
ATOM     18  C   UNL     1     -34.114  31.572   2.952  0.00  0.00    +0.110 C 
ATOM     19  C   UNL     1     -35.466  24.273   1.296  0.00  0.00    +0.004 C 
ATOM     20  C   UNL     1     -35.090  31.285   1.821  0.00  0.00    +0.030 C 
ATOM     21  C   UNL     1     -36.521  25.776   4.881  0.00  0.00    +0.012 C 
ATOM     22  C   UNL     1     -34.153  28.507   0.608  0.00  0.00    +0.004 C 
ATOM     23  C   UNL     1     -31.936  30.629   1.996  0.00  0.00    +0.002 C 
ATOM     24  C   UNL     1     -32.282  30.754   4.440  0.00  0.00    +0.002 C 
ENDROOT
BRANCH  11  25
ATOM     25  O   UNL     1     -38.175  25.258   0.887  0.00  0.00    -0.377 OA
ATOM     26  H   UNL     1     -38.210  24.289   0.859  0.00  0.00    +0.211 HD
ENDBRANCH  11  25
BRANCH  13  27
ATOM     27  O   UNL     1     -32.653  25.526   3.287  0.00  0.00    -0.380 OA
ATOM     28  H   UNL     1     -32.709  25.452   2.321  0.00  0.00    +0.211 HD
ENDBRANCH  13  27
BRANCH  18  29
ATOM     29  O   UNL     1     -33.531  32.857   2.746  0.00  0.00    -0.384 OA
ATOM     30  H   UNL     1     -33.413  33.300   3.600  0.00  0.00    +0.210 HD
ENDBRANCH  18  29
BRANCH   7  31
ATOM     31  C   UNL     1     -37.581  22.300   2.123  0.00  0.00    +0.001 C 
ATOM     32  C   UNL     1     -39.097  22.198   2.309  0.00  0.00    +0.000 C 
BRANCH  31  33
ATOM     33  C   UNL     1     -36.877  20.942   2.317  0.00  0.00    +0.012 C 
BRANCH  33  34
ATOM     34  C   UNL     1     -36.123  20.459   1.077  0.00  0.00    +0.109 C 
BRANCH  34  36
ATOM     35  O   UNL     1     -33.773  21.000   0.734  0.00  0.00    -0.250 OA
ATOM     36  C   UNL     1     -34.634  20.364   1.325  0.00  0.00    +0.314 C 
BRANCH  36  37
ATOM     37  O   UNL     1     -34.350  19.462   2.301  0.00  0.00    -0.480 OA
ATOM     38  H   UNL     1     -33.982  19.750   3.114  0.00  0.00    +0.295 HD
ENDBRANCH  36  37
ENDBRANCH  34  36
ENDBRANCH  33  34
ENDBRANCH  31  33
ENDBRANCH   7  31
TORSDOF 8
ENDMDL
MODEL 2
REMARK VINA RESULT:      -6.0      3.220      8.565
REMARK  Name = 20056103
REMARK  8 active torsions:
REMARK  status: ('A' for Active; 'I' for Inactive)
REMARK    1  A    between atoms: C_7  and  C_31
REMARK    2  A    between atoms: C_11  and  O_25
REMARK    3  A    between atoms: C_13  and  O_27
REMARK    4  A    between atoms: C_18  and  O_29
REMARK    5  A    between atoms: C_31  and  C_33
REMARK    6  A    between atoms: C_33  and  C_34
REMARK    7  A    between atoms: C_34  and  C_36
REMARK    8  A    between atoms: C_36  and  O_37
REMARK                            x       y       z     vdW  Elec       q    Type
REMARK                         _______ _______ _______ _____ _____    ______ ____
ROOT
ATOM      1  O   UNL     1     -38.437  24.770   1.626  0.00  0.00    -0.296 OA
ATOM      2  O   UNL     1     -35.465  19.070   0.723  0.00  0.00    -0.289 OA
ATOM      3  C   UNL     1     -36.186  22.183   2.453  0.00  0.00    +0.042 C 
ATOM      4  C   UNL     1     -37.497  22.496   1.660  0.00  0.00    +0.071 C 
ATOM      5  C   UNL     1     -36.637  20.444  -1.609  0.00  0.00    +0.021 C 
ATOM      6  C   UNL     1     -37.799  21.145  -2.425  0.00  0.00    +0.009 C 
ATOM      7  C   UNL     1     -36.485  22.774   3.860  0.00  0.00    +0.011 C 
ATOM      8  C   UNL     1     -37.278  22.141   0.199  0.00  0.00    -0.013 C 
ATOM      9  C   UNL     1     -36.697  20.956  -0.139  0.00  0.00    +0.009 C 
ATOM     10  C   UNL     1     -38.067  20.643  -3.896  0.00  0.00    +0.025 C 
ATOM     11  C   UNL     1     -35.996  20.664   2.409  0.00  0.00    +0.172 C 
ATOM     12  C   UNL     1     -37.670  22.664  -2.295  0.00  0.00    +0.034 C 
ATOM     13  C   UNL     1     -37.810  23.105  -0.838  0.00  0.00    +0.129 C 
ATOM     14  C   UNL     1     -37.125  24.139   3.544  0.00  0.00    +0.065 C 
ATOM     15  C   UNL     1     -36.870  18.912  -1.728  0.00  0.00    +0.007 C 
ATOM     16  C   UNL     1     -37.750  23.921   2.178  0.00  0.00    +0.153 C 
ATOM     17  C   UNL     1     -36.023  20.139   0.968  0.00  0.00    +0.195 C 
ATOM     18  C   UNL     1     -38.190  19.094  -3.879  0.00  0.00    +0.110 C 
ATOM     19  C   UNL     1     -34.932  22.899   1.844  0.00  0.00    +0.004 C 
ATOM     20  C   UNL     1     -37.037  18.412  -3.159  0.00  0.00    +0.030 C 
ATOM     21  C   UNL     1     -38.779  21.732   2.104  0.00  0.00    +0.012 C 
ATOM     22  C   UNL     1     -35.211  20.782  -2.101  0.00  0.00    +0.004 C 
ATOM     23  C   UNL     1     -37.017  21.113  -4.925  0.00  0.00    +0.002 C 
ATOM     24  C   UNL     1     -39.430  21.201  -4.395  0.00  0.00    +0.002 C 
ENDROOT
BRANCH  11  25
ATOM     25  O   UNL     1     -34.794  20.244   3.032  0.00  0.00    -0.377 OA
ATOM     26  H   UNL     1     -34.989  19.535   3.665  0.00  0.00    +0.211 HD
ENDBRANCH  11  25
BRANCH  13  27
ATOM     27  O   UNL     1     -37.120  24.351  -0.715  0.00  0.00    -0.380 OA
ATOM     28  H   UNL     1     -37.683  24.988  -0.247  0.00  0.00    +0.211 HD
ENDBRANCH  13  27
BRANCH  18  29
ATOM     29  O   UNL     1     -38.275  18.581  -5.207  0.00  0.00    -0.384 OA
ATOM     30  H   UNL     1     -37.406  18.641  -5.634  0.00  0.00    +0.210 HD
ENDBRANCH  18  29
BRANCH   7  31
ATOM     31  C   UNL     1     -35.316  22.914   4.828  0.00  0.00    +0.001 C 
ATOM     32  C   UNL     1     -35.456  21.902   5.968  0.00  0.00    +0.000 C 
BRANCH  31  33
ATOM     33  C   UNL     1     -35.230  24.365   5.345  0.00  0.00    +0.012 C 
BRANCH  33  34
ATOM     34  C   UNL     1     -33.992  25.118   4.855  0.00  0.00    +0.109 C 
BRANCH  34  36
ATOM     35  O   UNL     1     -33.268  27.408   5.254  0.00  0.00    -0.250 OA
ATOM     36  C   UNL     1     -34.158  26.616   4.980  0.00  0.00    +0.314 C 
BRANCH  36  37
ATOM     37  O   UNL     1     -35.443  26.993   4.754  0.00  0.00    -0.480 OA
ATOM     38  H   UNL     1     -35.963  26.533   4.123  0.00  0.00    +0.295 HD
ENDBRANCH  36  37
ENDBRANCH  34  36
ENDBRANCH  33  34
ENDBRANCH  31  33
ENDBRANCH   7  31
TORSDOF 8
ENDMDL
MODEL 3
REMARK VINA RESULT:      -6.0      4.027      8.081
REMARK  Name = 20056103
REMARK  8 active torsions:
REMARK  status: ('A' for Active; 'I' for Inactive)
REMARK    1  A    between atoms: C_7  and  C_31
REMARK    2  A    between atoms: C_11  and  O_25
REMARK    3  A    between atoms: C_13  and  O_27
REMARK    4  A    between atoms: C_18  and  O_29
REMARK    5  A    between atoms: C_31  and  C_33
REMARK    6  A    between atoms: C_33  and  C_34
REMARK    7  A    between atoms: C_34  and  C_36
REMARK    8  A    between atoms: C_36  and  O_37
REMARK                            x       y       z     vdW  Elec       q    Type
REMARK                         _______ _______ _______ _____ _____    ______ ____
ROOT
ATOM      1  O   UNL     1     -36.291  22.612   4.417  0.00  0.00    -0.296 OA
ATOM      2  O   UNL     1     -35.435  22.991  -2.007  0.00  0.00    -0.289 OA
ATOM      3  C   UNL     1     -37.036  23.757   1.164  0.00  0.00    +0.042 C 
ATOM      4  C   UNL     1     -35.890  23.177   2.056  0.00  0.00    +0.071 C 
ATOM      5  C   UNL     1     -34.418  20.621  -0.576  0.00  0.00    +0.021 C 
ATOM      6  C   UNL     1     -33.579  19.868   0.535  0.00  0.00    +0.009 C 
ATOM      7  C   UNL     1     -37.577  24.935   2.022  0.00  0.00    +0.011 C 
ATOM      8  C   UNL     1     -35.387  21.889   1.425  0.00  0.00    -0.013 C 
ATOM      9  C   UNL     1     -35.130  21.836   0.089  0.00  0.00    +0.009 C 
ATOM     10  C   UNL     1     -32.613  18.712   0.067  0.00  0.00    +0.025 C 
ATOM     11  C   UNL     1     -36.398  24.158  -0.169  0.00  0.00    +0.172 C 
ATOM     12  C   UNL     1     -34.499  19.485   1.697  0.00  0.00    +0.034 C 
ATOM     13  C   UNL     1     -35.106  20.726   2.350  0.00  0.00    +0.129 C 
ATOM     14  C   UNL     1     -37.659  24.337   3.439  0.00  0.00    +0.065 C 
ATOM     15  C   UNL     1     -33.414  21.038  -1.687  0.00  0.00    +0.007 C 
ATOM     16  C   UNL     1     -36.590  23.259   3.422  0.00  0.00    +0.153 C 
ATOM     17  C   UNL     1     -35.622  22.990  -0.790  0.00  0.00    +0.195 C 
ATOM     18  C   UNL     1     -31.733  19.240  -1.099  0.00  0.00    +0.110 C 
ATOM     19  C   UNL     1     -38.186  22.722   0.920  0.00  0.00    +0.004 C 
ATOM     20  C   UNL     1     -32.542  19.899  -2.206  0.00  0.00    +0.030 C 
ATOM     21  C   UNL     1     -34.637  24.081   2.254  0.00  0.00    +0.012 C 
ATOM     22  C   UNL     1     -35.552  19.779  -1.207  0.00  0.00    +0.004 C 
ATOM     23  C   UNL     1     -33.334  17.404  -0.319  0.00  0.00    +0.002 C 
ATOM     24  C   UNL     1     -31.650  18.339   1.230  0.00  0.00    +0.002 C 
ENDROOT
BRANCH  11  25
ATOM     25  O   UNL     1     -37.347  24.635  -1.108  0.00  0.00    -0.377 OA
ATOM     26  H   UNL     1     -37.284  24.114  -1.924  0.00  0.00    +0.211 HD
ENDBRANCH  11  25
BRANCH  13  27
ATOM     27  O   UNL     1     -36.328  20.314   2.967  0.00  0.00    -0.380 OA
ATOM     28  H   UNL     1     -36.396  20.712   3.849  0.00  0.00    +0.211 HD
ENDBRANCH  13  27
BRANCH  18  29
ATOM     29  O   UNL     1     -30.954  18.185  -1.660  0.00  0.00    -0.384 OA
ATOM     30  H   UNL     1     -31.519  17.411  -1.812  0.00  0.00    +0.210 HD
ENDBRANCH  18  29
BRANCH   7  31
ATOM     31  C   UNL     1     -38.902  25.563   1.603  0.00  0.00    +0.001 C 
ATOM     32  C   UNL     1     -38.663  26.971   1.052  0.00  0.00    +0.000 C 
BRANCH  31  33
ATOM     33  C   UNL     1     -39.886  25.561   2.790  0.00  0.00    +0.012 C 
BRANCH  33  34
ATOM     34  C   UNL     1     -41.323  25.907   2.395  0.00  0.00    +0.109 C 
BRANCH  34  36
ATOM     35  O   UNL     1     -43.241  26.664   3.691  0.00  0.00    -0.250 OA
ATOM     36  C   UNL     1     -42.036  26.678   3.484  0.00  0.00    +0.314 C 
BRANCH  36  37
ATOM     37  O   UNL     1     -41.165  27.415   4.221  0.00  0.00    -0.480 OA
ATOM     38  H   UNL     1     -40.279  27.521   3.933  0.00  0.00    +0.295 HD
ENDBRANCH  36  37
ENDBRANCH  34  36
ENDBRANCH  33  34
ENDBRANCH  31  33
ENDBRANCH   7  31
TORSDOF 8
ENDMDL
MODEL 4
REMARK VINA RESULT:      -5.9      2.799      5.558
REMARK  Name = 20056103
REMARK  8 active torsions:
REMARK  status: ('A' for Active; 'I' for Inactive)
REMARK    1  A    between atoms: C_7  and  C_31
REMARK    2  A    between atoms: C_11  and  O_25
REMARK    3  A    between atoms: C_13  and  O_27
REMARK    4  A    between atoms: C_18  and  O_29
REMARK    5  A    between atoms: C_31  and  C_33
REMARK    6  A    between atoms: C_33  and  C_34
REMARK    7  A    between atoms: C_34  and  C_36
REMARK    8  A    between atoms: C_36  and  O_37
REMARK                            x       y       z     vdW  Elec       q    Type
REMARK                         _______ _______ _______ _____ _____    ______ ____
ROOT
ATOM      1  O   UNL     1     -34.207  22.442  -2.279  0.00  0.00    -0.296 OA
ATOM      2  O   UNL     1     -35.901  21.482   3.913  0.00  0.00    -0.289 OA
ATOM      3  C   UNL     1     -35.788  20.719   0.362  0.00  0.00    +0.042 C 
ATOM      4  C   UNL     1     -34.623  21.708   0.032  0.00  0.00    +0.071 C 
ATOM      5  C   UNL     1     -35.188  24.208   3.043  0.00  0.00    +0.021 C 
ATOM      6  C   UNL     1     -34.254  25.305   2.385  0.00  0.00    +0.009 C 
ATOM      7  C   UNL     1     -35.550  19.559  -0.645  0.00  0.00    +0.011 C 
ATOM      8  C   UNL     1     -34.838  22.992   0.818  0.00  0.00    -0.013 C 
ATOM      9  C   UNL     1     -35.162  22.940   2.139  0.00  0.00    +0.009 C 
ATOM     10  C   UNL     1     -33.963  26.613   3.215  0.00  0.00    +0.025 C 
ATOM     11  C   UNL     1     -35.642  20.342   1.839  0.00  0.00    +0.172 C 
ATOM     12  C   UNL     1     -34.706  25.563   0.946  0.00  0.00    +0.034 C 
ATOM     13  C   UNL     1     -34.587  24.297   0.096  0.00  0.00    +0.129 C 
ATOM     14  C   UNL     1     -35.243  20.290  -1.966  0.00  0.00    +0.065 C 
ATOM     15  C   UNL     1     -34.632  23.948   4.470  0.00  0.00    +0.007 C 
ATOM     16  C   UNL     1     -34.660  21.613  -1.501  0.00  0.00    +0.153 C 
ATOM     17  C   UNL     1     -35.579  21.590   2.730  0.00  0.00    +0.195 C 
ATOM     18  C   UNL     1     -33.502  26.206   4.642  0.00  0.00    +0.110 C 
ATOM     19  C   UNL     1     -37.199  21.349   0.105  0.00  0.00    +0.004 C 
ATOM     20  C   UNL     1     -34.437  25.208   5.308  0.00  0.00    +0.030 C 
ATOM     21  C   UNL     1     -33.182  21.226   0.375  0.00  0.00    +0.012 C 
ATOM     22  C   UNL     1     -36.678  24.608   3.143  0.00  0.00    +0.004 C 
ATOM     23  C   UNL     1     -35.144  27.605   3.267  0.00  0.00    +0.002 C 
ATOM     24  C   UNL     1     -32.785  27.391   2.563  0.00  0.00    +0.002 C 
ENDROOT
BRANCH  11  25
ATOM     25  O   UNL     1     -36.688  19.500   2.295  0.00  0.00    -0.377 OA
ATOM     26  H   UNL     1     -36.515  18.589   2.010  0.00  0.00    +0.211 HD
ENDBRANCH  11  25
BRANCH  13  27
ATOM     27  O   UNL     1     -35.526  24.428  -0.974  0.00  0.00    -0.380 OA
ATOM     28  H   UNL     1     -36.252  23.798  -0.846  0.00  0.00    +0.211 HD
ENDBRANCH  13  27
BRANCH  18  29
ATOM     29  O   UNL     1     -33.379  27.355   5.479  0.00  0.00    -0.384 OA
ATOM     30  H   UNL     1     -34.206  27.490   5.967  0.00  0.00    +0.210 HD
ENDBRANCH  18  29
BRANCH   7  31
ATOM     31  C   UNL     1     -36.667  18.536  -0.819  0.00  0.00    +0.001 C 
ATOM     32  C   UNL     1     -36.195  17.160  -0.343  0.00  0.00    +0.000 C 
BRANCH  31  33
ATOM     33  C   UNL     1     -37.140  18.514  -2.287  0.00  0.00    +0.012 C 
BRANCH  33  34
ATOM     34  C   UNL     1     -38.572  19.017  -2.478  0.00  0.00    +0.109 C 
BRANCH  34  36
ATOM     35  O   UNL     1     -39.688  17.328  -1.125  0.00  0.00    -0.250 OA
ATOM     36  C   UNL     1     -39.498  18.505  -1.397  0.00  0.00    +0.314 C 
BRANCH  36  37
ATOM     37  O   UNL     1     -40.118  19.526  -0.750  0.00  0.00    -0.480 OA
ATOM     38  H   UNL     1     -39.632  20.072  -0.161  0.00  0.00    +0.295 HD
ENDBRANCH  36  37
ENDBRANCH  34  36
ENDBRANCH  33  34
ENDBRANCH  31  33
ENDBRANCH   7  31
TORSDOF 8
ENDMDL
MODEL 5
REMARK VINA RESULT:      -5.8      1.958      3.978
REMARK  Name = 20056103
REMARK  8 active torsions:
REMARK  status: ('A' for Active; 'I' for Inactive)
REMARK    1  A    between atoms: C_7  and  C_31
REMARK    2  A    between atoms: C_11  and  O_25
REMARK    3  A    between atoms: C_13  and  O_27
REMARK    4  A    between atoms: C_18  and  O_29
REMARK    5  A    between atoms: C_31  and  C_33
REMARK    6  A    between atoms: C_33  and  C_34
REMARK    7  A    between atoms: C_34  and  C_36
REMARK    8  A    between atoms: C_36  and  O_37
REMARK                            x       y       z     vdW  Elec       q    Type
REMARK                         _______ _______ _______ _____ _____    ______ ____
ROOT
ATOM      1  O   UNL     1     -33.981  25.841  -0.024  0.00  0.00    -0.296 OA
ATOM      2  O   UNL     1     -32.682  28.834   5.587  0.00  0.00    -0.289 OA
ATOM      3  C   UNL     1     -34.128  26.255   3.476  0.00  0.00    +0.042 C 
ATOM      4  C   UNL     1     -33.283  26.606   2.208  0.00  0.00    +0.071 C 
ATOM      5  C   UNL     1     -32.570  30.395   3.087  0.00  0.00    +0.021 C 
ATOM      6  C   UNL     1     -32.085  30.707   1.613  0.00  0.00    +0.009 C 
ATOM      7  C   UNL     1     -34.307  24.715   3.354  0.00  0.00    +0.011 C 
ATOM      8  C   UNL     1     -33.189  28.119   2.091  0.00  0.00    -0.013 C 
ATOM      9  C   UNL     1     -32.887  28.873   3.184  0.00  0.00    +0.009 C 
ATOM     10  C   UNL     1     -31.519  32.149   1.317  0.00  0.00    +0.025 C 
ATOM     11  C   UNL     1     -33.319  26.724   4.689  0.00  0.00    +0.172 C 
ATOM     12  C   UNL     1     -33.143  30.232   0.615  0.00  0.00    +0.034 C 
ATOM     13  C   UNL     1     -33.353  28.720   0.713  0.00  0.00    +0.129 C 
ATOM     14  C   UNL     1     -34.659  24.513   1.868  0.00  0.00    +0.065 C 
ATOM     15  C   UNL     1     -31.423  30.838   4.037  0.00  0.00    +0.007 C 
ATOM     16  C   UNL     1     -33.997  25.700   1.191  0.00  0.00    +0.153 C 
ATOM     17  C   UNL     1     -32.928  28.202   4.560  0.00  0.00    +0.195 C 
ATOM     18  C   UNL     1     -30.450  32.495   2.390  0.00  0.00    +0.110 C 
ATOM     19  C   UNL     1     -35.535  26.943   3.469  0.00  0.00    +0.004 C 
ATOM     20  C   UNL     1     -30.938  32.267   3.813  0.00  0.00    +0.030 C 
ATOM     21  C   UNL     1     -31.819  26.077   2.177  0.00  0.00    +0.012 C 
ATOM     22  C   UNL     1     -33.877  31.111   3.499  0.00  0.00    +0.004 C 
ATOM     23  C   UNL     1     -32.601  33.245   1.226  0.00  0.00    +0.002 C 
ATOM     24  C   UNL     1     -30.796  32.151  -0.060  0.00  0.00    +0.002 C 
ENDROOT
BRANCH  11  25
ATOM     25  O   UNL     1     -34.007  26.532   5.913  0.00  0.00    -0.377 OA
ATOM     26  H   UNL     1     -34.042  25.585   6.119  0.00  0.00    +0.211 HD
ENDBRANCH  11  25
BRANCH  13  27
ATOM     27  O   UNL     1     -34.676  28.455   0.241  0.00  0.00    -0.380 OA
ATOM     28  H   UNL     1     -34.647  28.258  -0.708  0.00  0.00    +0.211 HD
ENDBRANCH  13  27
BRANCH  18  29
ATOM     29  O   UNL     1     -30.024  33.850   2.258  0.00  0.00    -0.384 OA
ATOM     30  H   UNL     1     -29.873  34.229   3.138  0.00  0.00    +0.210 HD
ENDBRANCH  18  29
BRANCH   7  31
ATOM     31  C   UNL     1     -35.331  24.050   4.266  0.00  0.00    +0.001 C 
ATOM     32  C   UNL     1     -34.631  23.449   5.488  0.00  0.00    +0.000 C 
BRANCH  31  33
ATOM     33  C   UNL     1     -36.134  22.995   3.478  0.00  0.00    +0.012 C 
BRANCH  33  34
ATOM     34  C   UNL     1     -35.648  21.562   3.702  0.00  0.00    +0.109 C 
BRANCH  34  36
ATOM     35  O   UNL     1     -35.136  20.878   1.421  0.00  0.00    -0.250 OA
ATOM     36  C   UNL     1     -35.778  20.722   2.450  0.00  0.00    +0.314 C 
BRANCH  36  37
ATOM     37  O   UNL     1     -36.718  19.753   2.598  0.00  0.00    -0.480 OA
ATOM     38  H   UNL     1     -37.610  19.925   2.364  0.00  0.00    +0.295 HD
ENDBRANCH  36  37
ENDBRANCH  34  36
ENDBRANCH  33  34
ENDBRANCH  31  33
ENDBRANCH   7  31
TORSDOF 8
ENDMDL
MODEL 6
REMARK VINA RESULT:      -5.7      3.876      9.709
REMARK  Name = 20056103
REMARK  8 active torsions:
REMARK  status: ('A' for Active; 'I' for Inactive)
REMARK    1  A    between atoms: C_7  and  C_31
REMARK    2  A    between atoms: C_11  and  O_25
REMARK    3  A    between atoms: C_13  and  O_27
REMARK    4  A    between atoms: C_18  and  O_29
REMARK    5  A    between atoms: C_31  and  C_33
REMARK    6  A    between atoms: C_33  and  C_34
REMARK    7  A    between atoms: C_34  and  C_36
REMARK    8  A    between atoms: C_36  and  O_37
REMARK                            x       y       z     vdW  Elec       q    Type
REMARK                         _______ _______ _______ _____ _____    ______ ____
ROOT
ATOM      1  O   UNL     1     -32.722  22.947  -0.205  0.00  0.00    -0.296 OA
ATOM      2  O   UNL     1     -37.233  18.302   0.254  0.00  0.00    -0.289 OA
ATOM      3  C   UNL     1     -35.518  21.351   1.237  0.00  0.00    +0.042 C 
ATOM      4  C   UNL     1     -34.716  21.510  -0.097  0.00  0.00    +0.071 C 
ATOM      5  C   UNL     1     -34.718  17.703  -1.166  0.00  0.00    +0.021 C 
ATOM      6  C   UNL     1     -33.592  17.947  -2.252  0.00  0.00    +0.009 C 
ATOM      7  C   UNL     1     -35.767  22.825   1.666  0.00  0.00    +0.011 C 
ATOM      8  C   UNL     1     -34.234  20.138  -0.540  0.00  0.00    -0.013 C 
ATOM      9  C   UNL     1     -35.087  19.076  -0.530  0.00  0.00    +0.009 C 
ATOM     10  C   UNL     1     -33.187  16.732  -3.173  0.00  0.00    +0.025 C 
ATOM     11  C   UNL     1     -36.777  20.547   0.900  0.00  0.00    +0.172 C 
ATOM     12  C   UNL     1     -32.406  18.666  -1.606  0.00  0.00    +0.034 C 
ATOM     13  C   UNL     1     -32.820  20.036  -1.067  0.00  0.00    +0.129 C 
ATOM     14  C   UNL     1     -34.402  23.501   1.429  0.00  0.00    +0.065 C 
ATOM     15  C   UNL     1     -35.912  17.036  -1.904  0.00  0.00    +0.007 C 
ATOM     16  C   UNL     1     -33.788  22.662   0.323  0.00  0.00    +0.153 C 
ATOM     17  C   UNL     1     -36.428  19.231   0.194  0.00  0.00    +0.195 C 
ATOM     18  C   UNL     1     -34.478  16.108  -3.772  0.00  0.00    +0.110 C 
ATOM     19  C   UNL     1     -34.693  20.619   2.349  0.00  0.00    +0.004 C 
ATOM     20  C   UNL     1     -35.535  15.804  -2.721  0.00  0.00    +0.030 C 
ATOM     21  C   UNL     1     -35.489  22.110  -1.308  0.00  0.00    +0.012 C 
ATOM     22  C   UNL     1     -34.287  16.807   0.018  0.00  0.00    +0.004 C 
ATOM     23  C   UNL     1     -32.321  15.667  -2.469  0.00  0.00    +0.002 C 
ATOM     24  C   UNL     1     -32.336  17.248  -4.368  0.00  0.00    +0.002 C 
ENDROOT
BRANCH  11  25
ATOM     25  O   UNL     1     -37.567  20.264   2.043  0.00  0.00    -0.377 OA
ATOM     26  H   UNL     1     -37.212  20.744   2.808  0.00  0.00    +0.211 HD
ENDBRANCH  11  25
BRANCH  13  27
ATOM     27  O   UNL     1     -31.905  20.362  -0.019  0.00  0.00    -0.380 OA
ATOM     28  H   UNL     1     -31.144  19.762  -0.055  0.00  0.00    +0.211 HD
ENDBRANCH  13  27
BRANCH  18  29
ATOM     29  O   UNL     1     -34.175  14.911  -4.485  0.00  0.00    -0.384 OA
ATOM     30  H   UNL     1     -34.934  14.309  -4.445  0.00  0.00    +0.210 HD
ENDBRANCH  18  29
BRANCH   7  31
ATOM     31  C   UNL     1     -36.274  23.071   3.082  0.00  0.00    +0.001 C 
ATOM     32  C   UNL     1     -37.681  23.672   3.036  0.00  0.00    +0.000 C 
BRANCH  31  33
ATOM     33  C   UNL     1     -35.283  23.968   3.850  0.00  0.00    +0.012 C 
BRANCH  33  34
ATOM     34  C   UNL     1     -35.780  24.386   5.235  0.00  0.00    +0.109 C 
BRANCH  34  36
ATOM     35  O   UNL     1     -34.456  26.304   5.940  0.00  0.00    -0.250 OA
ATOM     36  C   UNL     1     -35.507  25.847   5.514  0.00  0.00    +0.314 C 
BRANCH  36  37
ATOM     37  O   UNL     1     -36.593  26.615   5.240  0.00  0.00    -0.480 OA
ATOM     38  H   UNL     1     -36.773  26.875   4.357  0.00  0.00    +0.295 HD
ENDBRANCH  36  37
ENDBRANCH  34  36
ENDBRANCH  33  34
ENDBRANCH  31  33
ENDBRANCH   7  31
TORSDOF 8
ENDMDL
MODEL 7
REMARK VINA RESULT:      -5.6      9.023     12.566
REMARK  Name = 20056103
REMARK  8 active torsions:
REMARK  status: ('A' for Active; 'I' for Inactive)
REMARK    1  A    between atoms: C_7  and  C_31
REMARK    2  A    between atoms: C_11  and  O_25
REMARK    3  A    between atoms: C_13  and  O_27
REMARK    4  A    between atoms: C_18  and  O_29
REMARK    5  A    between atoms: C_31  and  C_33
REMARK    6  A    between atoms: C_33  and  C_34
REMARK    7  A    between atoms: C_34  and  C_36
REMARK    8  A    between atoms: C_36  and  O_37
REMARK                            x       y       z     vdW  Elec       q    Type
REMARK                         _______ _______ _______ _____ _____    ______ ____
ROOT
ATOM      1  O   UNL     1     -48.350  27.928   4.817  0.00  0.00    -0.296 OA
ATOM      2  O   UNL     1     -41.924  28.805   4.545  0.00  0.00    -0.289 OA
ATOM      3  C   UNL     1     -45.317  29.545   5.613  0.00  0.00    +0.042 C 
ATOM      4  C   UNL     1     -45.924  28.182   5.142  0.00  0.00    +0.071 C 
ATOM      5  C   UNL     1     -43.253  27.357   2.346  0.00  0.00    +0.021 C 
ATOM      6  C   UNL     1     -44.170  26.227   1.722  0.00  0.00    +0.009 C 
ATOM      7  C   UNL     1     -46.171  29.886   6.867  0.00  0.00    +0.011 C 
ATOM      8  C   UNL     1     -45.309  27.814   3.802  0.00  0.00    -0.013 C 
ATOM      9  C   UNL     1     -43.964  27.915   3.615  0.00  0.00    +0.009 C 
ATOM     10  C   UNL     1     -43.575  25.373   0.536  0.00  0.00    +0.025 C 
ATOM     11  C   UNL     1     -43.831  29.295   5.883  0.00  0.00    +0.172 C 
ATOM     12  C   UNL     1     -45.565  26.793   1.449  0.00  0.00    +0.034 C 
ATOM     13  C   UNL     1     -46.234  27.255   2.744  0.00  0.00    +0.129 C 
ATOM     14  C   UNL     1     -47.610  29.570   6.416  0.00  0.00    +0.065 C 
ATOM     15  C   UNL     1     -41.882  26.696   2.660  0.00  0.00    +0.007 C 
ATOM     16  C   UNL     1     -47.413  28.502   5.355  0.00  0.00    +0.153 C 
ATOM     17  C   UNL     1     -43.141  28.664   4.667  0.00  0.00    +0.195 C 
ATOM     18  C   UNL     1     -42.172  24.851   0.952  0.00  0.00    +0.110 C 
ATOM     19  C   UNL     1     -45.487  30.678   4.545  0.00  0.00    +0.004 C 
ATOM     20  C   UNL     1     -41.262  25.948   1.484  0.00  0.00    +0.030 C 
ATOM     21  C   UNL     1     -45.695  26.957   6.076  0.00  0.00    +0.012 C 
ATOM     22  C   UNL     1     -43.030  28.583   1.431  0.00  0.00    +0.004 C 
ATOM     23  C   UNL     1     -43.521  26.119  -0.814  0.00  0.00    +0.002 C 
ATOM     24  C   UNL     1     -44.471  24.125   0.295  0.00  0.00    +0.002 C 
ENDROOT
BRANCH  11  25
ATOM     25  O   UNL     1     -43.135  30.475   6.250  0.00  0.00    -0.377 OA
ATOM     26  H   UNL     1     -43.346  31.183   5.621  0.00  0.00    +0.211 HD
ENDBRANCH  11  25
BRANCH  13  27
ATOM     27  O   UNL     1     -47.189  28.255   2.382  0.00  0.00    -0.380 OA
ATOM     28  H   UNL     1     -46.906  28.691   1.563  0.00  0.00    +0.211 HD
ENDBRANCH  13  27
BRANCH  18  29
ATOM     29  O   UNL     1     -41.529  24.207  -0.147  0.00  0.00    -0.384 OA
ATOM     30  H   UNL     1     -41.110  24.874  -0.713  0.00  0.00    +0.210 HD
ENDBRANCH  18  29
BRANCH   7  31
ATOM     31  C   UNL     1     -46.060  31.298   7.432  0.00  0.00    +0.001 C 
ATOM     32  C   UNL     1     -45.428  31.255   8.826  0.00  0.00    +0.000 C 
BRANCH  31  33
ATOM     33  C   UNL     1     -47.446  31.974   7.442  0.00  0.00    +0.012 C 
BRANCH  33  34
ATOM     34  C   UNL     1     -47.412  33.448   7.037  0.00  0.00    +0.109 C 
BRANCH  34  36
ATOM     35  O   UNL     1     -48.141  33.222   4.724  0.00  0.00    -0.250 OA
ATOM     36  C   UNL     1     -47.317  33.618   5.537  0.00  0.00    +0.314 C 
BRANCH  36  37
ATOM     37  O   UNL     1     -46.180  34.271   5.183  0.00  0.00    -0.480 OA
ATOM     38  H   UNL     1     -45.555  33.854   4.622  0.00  0.00    +0.295 HD
ENDBRANCH  36  37
ENDBRANCH  34  36
ENDBRANCH  33  34
ENDBRANCH  31  33
ENDBRANCH   7  31
TORSDOF 8
ENDMDL
MODEL 8
REMARK VINA RESULT:      -5.6      4.895      7.068
REMARK  Name = 20056103
REMARK  8 active torsions:
REMARK  status: ('A' for Active; 'I' for Inactive)
REMARK    1  A    between atoms: C_7  and  C_31
REMARK    2  A    between atoms: C_11  and  O_25
REMARK    3  A    between atoms: C_13  and  O_27
REMARK    4  A    between atoms: C_18  and  O_29
REMARK    5  A    between atoms: C_31  and  C_33
REMARK    6  A    between atoms: C_33  and  C_34
REMARK    7  A    between atoms: C_34  and  C_36
REMARK    8  A    between atoms: C_36  and  O_37
REMARK                            x       y       z     vdW  Elec       q    Type
REMARK                         _______ _______ _______ _____ _____    ______ ____
ROOT
ATOM      1  O   UNL     1     -35.935  21.230  -2.823  0.00  0.00    -0.296 OA
ATOM      2  O   UNL     1     -36.646  22.138   3.565  0.00  0.00    -0.289 OA
ATOM      3  C   UNL     1     -35.457  20.439   0.582  0.00  0.00    +0.042 C 
ATOM      4  C   UNL     1     -35.771  21.617  -0.398  0.00  0.00    +0.071 C 
ATOM      5  C   UNL     1     -38.631  23.323   1.734  0.00  0.00    +0.021 C 
ATOM      6  C   UNL     1     -39.101  24.205   0.506  0.00  0.00    +0.009 C 
ATOM      7  C   UNL     1     -34.191  19.794  -0.051  0.00  0.00    +0.011 C 
ATOM      8  C   UNL     1     -37.107  22.229  -0.008  0.00  0.00    -0.013 C 
ATOM      9  C   UNL     1     -37.378  22.507   1.297  0.00  0.00    +0.009 C 
ATOM     10  C   UNL     1     -40.240  25.266   0.760  0.00  0.00    +0.025 C 
ATOM     11  C   UNL     1     -35.251  21.060   1.966  0.00  0.00    +0.172 C 
ATOM     12  C   UNL     1     -39.343  23.304  -0.707  0.00  0.00    +0.034 C 
ATOM     13  C   UNL     1     -38.058  22.590  -1.127  0.00  0.00    +0.129 C 
ATOM     14  C   UNL     1     -34.530  19.742  -1.553  0.00  0.00    +0.065 C 
ATOM     15  C   UNL     1     -38.339  24.305   2.902  0.00  0.00    +0.007 C 
ATOM     16  C   UNL     1     -35.503  20.894  -1.728  0.00  0.00    +0.153 C 
ATOM     17  C   UNL     1     -36.444  21.936   2.368  0.00  0.00    +0.195 C 
ATOM     18  C   UNL     1     -39.860  26.117   2.003  0.00  0.00    +0.110 C 
ATOM     19  C   UNL     1     -36.609  19.379   0.634  0.00  0.00    +0.004 C 
ATOM     20  C   UNL     1     -39.478  25.272   3.209  0.00  0.00    +0.030 C 
ATOM     21  C   UNL     1     -34.748  22.790  -0.429  0.00  0.00    +0.012 C 
ATOM     22  C   UNL     1     -39.661  22.269   2.201  0.00  0.00    +0.004 C 
ATOM     23  C   UNL     1     -41.650  24.658   0.903  0.00  0.00    +0.002 C 
ATOM     24  C   UNL     1     -40.319  26.241  -0.450  0.00  0.00    +0.002 C 
ENDROOT
BRANCH  11  25
ATOM     25  O   UNL     1     -35.028  20.089   2.975  0.00  0.00    -0.377 OA
ATOM     26  H   UNL     1     -35.867  19.889   3.421  0.00  0.00    +0.211 HD
ENDBRANCH  11  25
BRANCH  13  27
ATOM     27  O   UNL     1     -38.451  21.397  -1.810  0.00  0.00    -0.380 OA
ATOM     28  H   UNL     1     -38.475  21.564  -2.765  0.00  0.00    +0.211 HD
ENDBRANCH  13  27
BRANCH  18  29
ATOM     29  O   UNL     1     -40.932  26.985   2.366  0.00  0.00    -0.384 OA
ATOM     30  H   UNL     1     -40.687  27.489   3.158  0.00  0.00    +0.210 HD
ENDBRANCH  18  29
BRANCH   7  31
ATOM     31  C   UNL     1     -33.759  18.429   0.472  0.00  0.00    +0.001 C 
ATOM     32  C   UNL     1     -32.485  18.569   1.309  0.00  0.00    +0.000 C 
BRANCH  31  33
ATOM     33  C   UNL     1     -33.579  17.446  -0.702  0.00  0.00    +0.012 C 
BRANCH  33  34
ATOM     34  C   UNL     1     -34.020  16.017  -0.379  0.00  0.00    +0.109 C 
BRANCH  34  36
ATOM     35  O   UNL     1     -36.279  16.355  -1.222  0.00  0.00    -0.250 OA
ATOM     36  C   UNL     1     -35.526  15.877  -0.386  0.00  0.00    +0.314 C 
BRANCH  36  37
ATOM     37  O   UNL     1     -35.961  15.147   0.674  0.00  0.00    -0.480 OA
ATOM     38  H   UNL     1     -36.727  14.612   0.592  0.00  0.00    +0.295 HD
ENDBRANCH  36  37
ENDBRANCH  34  36
ENDBRANCH  33  34
ENDBRANCH  31  33
ENDBRANCH   7  31
TORSDOF 8
ENDMDL
MODEL 9
REMARK VINA RESULT:      -5.6      3.426      7.034
REMARK  Name = 20056103
REMARK  8 active torsions:
REMARK  status: ('A' for Active; 'I' for Inactive)
REMARK    1  A    between atoms: C_7  and  C_31
REMARK    2  A    between atoms: C_11  and  O_25
REMARK    3  A    between atoms: C_13  and  O_27
REMARK    4  A    between atoms: C_18  and  O_29
REMARK    5  A    between atoms: C_31  and  C_33
REMARK    6  A    between atoms: C_33  and  C_34
REMARK    7  A    between atoms: C_34  and  C_36
REMARK    8  A    between atoms: C_36  and  O_37
REMARK                            x       y       z     vdW  Elec       q    Type
REMARK                         _______ _______ _______ _____ _____    ______ ____
ROOT
ATOM      1  O   UNL     1     -37.077  18.166   0.340  0.00  0.00    -0.296 OA
ATOM      2  O   UNL     1     -33.077  23.271   0.056  0.00  0.00    -0.289 OA
ATOM      3  C   UNL     1     -33.952  19.748  -0.091  0.00  0.00    +0.042 C 
ATOM      4  C   UNL     1     -35.497  19.980  -0.181  0.00  0.00    +0.071 C 
ATOM      5  C   UNL     1     -35.598  23.525   1.567  0.00  0.00    +0.021 C 
ATOM      6  C   UNL     1     -37.167  23.451   1.758  0.00  0.00    +0.009 C 
ATOM      7  C   UNL     1     -33.749  18.458  -0.936  0.00  0.00    +0.011 C 
ATOM      8  C   UNL     1     -35.874  21.110   0.763  0.00  0.00    -0.013 C 
ATOM      9  C   UNL     1     -35.142  22.258   0.783  0.00  0.00    +0.009 C 
ATOM     10  C   UNL     1     -37.893  24.718   2.356  0.00  0.00    +0.025 C 
ATOM     11  C   UNL     1     -33.285  21.007  -0.649  0.00  0.00    +0.172 C 
ATOM     12  C   UNL     1     -37.537  22.135   2.445  0.00  0.00    +0.034 C 
ATOM     13  C   UNL     1     -37.128  20.935   1.590  0.00  0.00    +0.129 C 
ATOM     14  C   UNL     1     -34.896  17.542  -0.470  0.00  0.00    +0.065 C 
ATOM     15  C   UNL     1     -35.303  24.848   0.806  0.00  0.00    +0.007 C 
ATOM     16  C   UNL     1     -35.963  18.524  -0.020  0.00  0.00    +0.153 C 
ATOM     17  C   UNL     1     -33.792  22.270   0.059  0.00  0.00    +0.195 C 
ATOM     18  C   UNL     1     -37.440  25.974   1.561  0.00  0.00    +0.110 C 
ATOM     19  C   UNL     1     -33.470  19.489   1.377  0.00  0.00    +0.004 C 
ATOM     20  C   UNL     1     -35.928  26.088   1.438  0.00  0.00    +0.030 C 
ATOM     21  C   UNL     1     -36.062  20.373  -1.577  0.00  0.00    +0.012 C 
ATOM     22  C   UNL     1     -34.787  23.504   2.883  0.00  0.00    +0.004 C 
ATOM     23  C   UNL     1     -37.685  24.907   3.873  0.00  0.00    +0.002 C 
ATOM     24  C   UNL     1     -39.428  24.581   2.152  0.00  0.00    +0.002 C 
ENDROOT
BRANCH  11  25
ATOM     25  O   UNL     1     -31.870  20.963  -0.559  0.00  0.00    -0.377 OA
ATOM     26  H   UNL     1     -31.577  21.506   0.190  0.00  0.00    +0.211 HD
ENDBRANCH  11  25
BRANCH  13  27
ATOM     27  O   UNL     1     -36.949  19.833   2.483  0.00  0.00    -0.380 OA
ATOM     28  H   UNL     1     -37.719  19.763   3.068  0.00  0.00    +0.211 HD
ENDBRANCH  13  27
BRANCH  18  29
ATOM     29  O   UNL     1     -37.947  27.162   2.165  0.00  0.00    -0.384 OA
ATOM     30  H   UNL     1     -38.750  26.953   2.667  0.00  0.00    +0.210 HD
ENDBRANCH  18  29
BRANCH   7  31
ATOM     31  C   UNL     1     -32.398  17.758  -0.838  0.00  0.00    +0.001 C 
ATOM     32  C   UNL     1     -31.696  17.784  -2.198  0.00  0.00    +0.000 C 
BRANCH  31  33
ATOM     33  C   UNL     1     -32.585  16.323  -0.306  0.00  0.00    +0.012 C 
BRANCH  33  34
ATOM     34  C   UNL     1     -31.268  15.590  -0.043  0.00  0.00    +0.109 C 
BRANCH  34  36
ATOM     35  O   UNL     1     -31.712  13.634  -1.424  0.00  0.00    -0.250 OA
ATOM     36  C   UNL     1     -31.374  14.113  -0.350  0.00  0.00    +0.314 C 
BRANCH  36  37
ATOM     37  O   UNL     1     -31.052  13.356   0.731  0.00  0.00    -0.480 OA
ATOM     38  H   UNL     1     -30.814  12.456   0.620  0.00  0.00    +0.295 HD
ENDBRANCH  36  37
ENDBRANCH  34  36
ENDBRANCH  33  34
ENDBRANCH  31  33
ENDBRANCH   7  31
TORSDOF 8
ENDMDL
