MODEL 1
REMARK VINA RESULT:      -5.7      0.000      0.000
REMARK  Name = 21116879
REMARK  5 active torsions:
REMARK  status: ('A' for Active; 'I' for Inactive)
REMARK    1  A    between atoms: C2*_2  and  O2*_16
REMARK    2  A    between atoms: C1*_3  and  N_7
REMARK    3  A    between atoms: C3*_4  and  O3*_18
REMARK    4  A    between atoms: C4*_5  and  C5*_20
REMARK    5  A    between atoms: C5*_20  and  O5*_21
REMARK                            x       y       z     vdW  Elec       q    Type
REMARK                         _______ _______ _______ _____ _____    ______ ____
ROOT
ATOM      1  O4* UNL     1     -35.955  24.111   5.610  0.00  0.00    -0.333 OA
ATOM      2  C2* UNL     1     -35.247  23.702   3.386  0.00  0.00    +0.187 C 
ATOM      3  C1* UNL     1     -35.686  24.782   4.363  0.00  0.00    +0.225 C 
ATOM      4  C3* UNL     1     -36.091  22.526   3.837  0.00  0.00    +0.171 C 
ATOM      5  C4* UNL     1     -36.099  22.693   5.354  0.00  0.00    +0.175 C 
ENDROOT
BRANCH   3   7
ATOM      6 CL   UNL     1     -31.625  29.585   4.365  0.00  0.00    -0.060 Cl
ATOM      7  N   UNL     1     -34.693  25.833   4.575  0.00  0.00    -0.247 N 
ATOM      8  N   UNL     1     -33.135  27.052   5.604  0.00  0.00    -0.243 NA
ATOM      9  N   UNL     1     -34.797  26.999   2.447  0.00  0.00    -0.228 NA
ATOM     10  N   UNL     1     -33.240  28.877   2.388  0.00  0.00    -0.231 NA
ATOM     11  C   UNL     1     -34.326  26.804   3.687  0.00  0.00    +0.152 C 
ATOM     12  C   UNL     1     -33.951  26.023   5.710  0.00  0.00    +0.223 C 
ATOM     13  C   UNL     1     -33.359  27.549   4.344  0.00  0.00    +0.137 C 
ATOM     14  C   UNL     1     -32.811  28.622   3.648  0.00  0.00    +0.155 C 
ATOM     15  C   UNL     1     -34.193  28.063   1.874  0.00  0.00    +0.253 C 
ENDBRANCH   3   7
BRANCH   2  16
ATOM     16  O2* UNL     1     -35.488  24.074   2.045  0.00  0.00    -0.378 OA
ATOM     17  H2* UNL     1     -34.831  24.732   1.768  0.00  0.00    +0.211 HD
ENDBRANCH   2  16
BRANCH   4  18
ATOM     18  O3* UNL     1     -37.424  22.682   3.350  0.00  0.00    -0.379 OA
ATOM     19  H3* UNL     1     -38.048  22.609   4.088  0.00  0.00    +0.211 HD
ENDBRANCH   4  18
BRANCH   5  20
ATOM     20  C5* UNL     1     -34.951  21.964   6.037  0.00  0.00    +0.169 C 
BRANCH  20  21
ATOM     21  O5* UNL     1     -35.138  20.569   5.871  0.00  0.00    -0.379 OA
ATOM     22  H5* UNL     1     -35.727  20.236   6.565  0.00  0.00    +0.211 HD
ENDBRANCH  20  21
ENDBRANCH   5  20
TORSDOF 5
ENDMDL
MODEL 2
REMARK VINA RESULT:      -5.5      4.261      5.474
REMARK  Name = 21116879
REMARK  5 active torsions:
REMARK  status: ('A' for Active; 'I' for Inactive)
REMARK    1  A    between atoms: C2*_2  and  O2*_16
REMARK    2  A    between atoms: C1*_3  and  N_7
REMARK    3  A    between atoms: C3*_4  and  O3*_18
REMARK    4  A    between atoms: C4*_5  and  C5*_20
REMARK    5  A    between atoms: C5*_20  and  O5*_21
REMARK                            x       y       z     vdW  Elec       q    Type
REMARK                         _______ _______ _______ _____ _____    ______ ____
ROOT
ATOM      1  O4* UNL     1     -35.365  23.052   3.948  0.00  0.00    -0.333 OA
ATOM      2  C2* UNL     1     -36.435  24.918   4.940  0.00  0.00    +0.187 C 
ATOM      3  C1* UNL     1     -36.122  24.233   3.619  0.00  0.00    +0.225 C 
ATOM      4  C3* UNL     1     -35.190  24.605   5.745  0.00  0.00    +0.171 C 
ATOM      5  C4* UNL     1     -34.863  23.183   5.299  0.00  0.00    +0.175 C 
ENDROOT
BRANCH   3   7
ATOM      6 CL   UNL     1     -41.279  23.574   0.079  0.00  0.00    -0.060 Cl
ATOM      7  N   UNL     1     -37.305  23.859   2.846  0.00  0.00    -0.247 N 
ATOM      8  N   UNL     1     -38.896  22.572   1.962  0.00  0.00    -0.243 NA
ATOM      9  N   UNL     1     -37.974  26.019   1.957  0.00  0.00    -0.228 NA
ATOM     10  N   UNL     1     -39.974  25.826   0.573  0.00  0.00    -0.231 NA
ATOM     11  C   UNL     1     -38.104  24.694   2.119  0.00  0.00    +0.152 C 
ATOM     12  C   UNL     1     -37.820  22.596   2.721  0.00  0.00    +0.223 C 
ATOM     13  C   UNL     1     -39.085  23.876   1.579  0.00  0.00    +0.137 C 
ATOM     14  C   UNL     1     -40.045  24.488   0.778  0.00  0.00    +0.155 C 
ATOM     15  C   UNL     1     -38.957  26.498   1.165  0.00  0.00    +0.253 C 
ENDBRANCH   3   7
BRANCH   2  16
ATOM     16  O2* UNL     1     -36.654  26.304   4.777  0.00  0.00    -0.378 OA
ATOM     17  H2* UNL     1     -36.182  26.616   3.988  0.00  0.00    +0.211 HD
ENDBRANCH   2  16
BRANCH   4  18
ATOM     18  O3* UNL     1     -34.129  25.470   5.338  0.00  0.00    -0.379 OA
ATOM     19  H3* UNL     1     -33.337  25.278   5.863  0.00  0.00    +0.211 HD
ENDBRANCH   4  18
BRANCH   5  20
ATOM     20  C5* UNL     1     -35.530  22.122   6.164  0.00  0.00    +0.169 C 
BRANCH  20  21
ATOM     21  O5* UNL     1     -35.228  20.845   5.629  0.00  0.00    -0.379 OA
ATOM     22  H5* UNL     1     -34.831  20.291   6.318  0.00  0.00    +0.211 HD
ENDBRANCH  20  21
ENDBRANCH   5  20
TORSDOF 5
ENDMDL
MODEL 3
REMARK VINA RESULT:      -5.4      4.551      6.232
REMARK  Name = 21116879
REMARK  5 active torsions:
REMARK  status: ('A' for Active; 'I' for Inactive)
REMARK    1  A    between atoms: C2*_2  and  O2*_16
REMARK    2  A    between atoms: C1*_3  and  N_7
REMARK    3  A    between atoms: C3*_4  and  O3*_18
REMARK    4  A    between atoms: C4*_5  and  C5*_20
REMARK    5  A    between atoms: C5*_20  and  O5*_21
REMARK                            x       y       z     vdW  Elec       q    Type
REMARK                         _______ _______ _______ _____ _____    ______ ____
ROOT
ATOM      1  O4* UNL     1     -39.065  25.570   1.762  0.00  0.00    -0.333 OA
ATOM      2  C2* UNL     1     -40.118  23.450   1.865  0.00  0.00    +0.187 C 
ATOM      3  C1* UNL     1     -38.778  24.158   1.739  0.00  0.00    +0.225 C 
ATOM      4  C3* UNL     1     -41.031  24.395   1.107  0.00  0.00    +0.171 C 
ATOM      5  C4* UNL     1     -40.474  25.763   1.491  0.00  0.00    +0.175 C 
ENDROOT
BRANCH   3   7
ATOM      6 CL   UNL     1     -34.547  21.923   5.821  0.00  0.00    -0.060 Cl
ATOM      7  N   UNL     1     -37.830  23.831   2.802  0.00  0.00    -0.247 N 
ATOM      8  N   UNL     1     -36.648  24.048   4.680  0.00  0.00    -0.243 NA
ATOM      9  N   UNL     1     -37.025  21.666   2.050  0.00  0.00    -0.228 NA
ATOM     10  N   UNL     1     -35.377  20.747   3.598  0.00  0.00    -0.231 NA
ATOM     11  C   UNL     1     -37.067  22.702   2.900  0.00  0.00    +0.152 C 
ATOM     12  C   UNL     1     -37.543  24.608   3.893  0.00  0.00    +0.223 C 
ATOM     13  C   UNL     1     -36.343  22.856   4.072  0.00  0.00    +0.137 C 
ATOM     14  C   UNL     1     -35.470  21.827   4.412  0.00  0.00    +0.155 C 
ATOM     15  C   UNL     1     -36.147  20.735   2.483  0.00  0.00    +0.253 C 
ENDBRANCH   3   7
BRANCH   2  16
ATOM     16  O2* UNL     1     -40.084  22.151   1.310  0.00  0.00    -0.378 OA
ATOM     17  H2* UNL     1     -40.601  21.548   1.867  0.00  0.00    +0.211 HD
ENDBRANCH   2  16
BRANCH   4  18
ATOM     18  O3* UNL     1     -40.855  24.204  -0.296  0.00  0.00    -0.379 OA
ATOM     19  H3* UNL     1     -40.028  24.624  -0.579  0.00  0.00    +0.211 HD
ENDBRANCH   4  18
BRANCH   5  20
ATOM     20  C5* UNL     1     -41.127  26.340   2.739  0.00  0.00    +0.169 C 
BRANCH  20  21
ATOM     21  O5* UNL     1     -40.110  26.792   3.615  0.00  0.00    -0.379 OA
ATOM     22  H5* UNL     1     -39.340  27.076   3.099  0.00  0.00    +0.211 HD
ENDBRANCH  20  21
ENDBRANCH   5  20
TORSDOF 5
ENDMDL
MODEL 4
REMARK VINA RESULT:      -5.3      3.993      5.842
REMARK  Name = 21116879
REMARK  5 active torsions:
REMARK  status: ('A' for Active; 'I' for Inactive)
REMARK    1  A    between atoms: C2*_2  and  O2*_16
REMARK    2  A    between atoms: C1*_3  and  N_7
REMARK    3  A    between atoms: C3*_4  and  O3*_18
REMARK    4  A    between atoms: C4*_5  and  C5*_20
REMARK    5  A    between atoms: C5*_20  and  O5*_21
REMARK                            x       y       z     vdW  Elec       q    Type
REMARK                         _______ _______ _______ _____ _____    ______ ____
ROOT
ATOM      1  O4* UNL     1     -34.976  19.934   1.817  0.00  0.00    -0.333 OA
ATOM      2  C2* UNL     1     -37.045  20.360   0.745  0.00  0.00    +0.187 C 
ATOM      3  C1* UNL     1     -36.318  20.388   2.081  0.00  0.00    +0.225 C 
ATOM      4  C3* UNL     1     -36.408  19.157   0.080  0.00  0.00    +0.171 C 
ATOM      5  C4* UNL     1     -34.955  19.265   0.533  0.00  0.00    +0.175 C 
ENDROOT
BRANCH   3   7
ATOM      6 CL   UNL     1     -35.784  25.600   5.562  0.00  0.00    -0.060 Cl
ATOM      7  N   UNL     1     -36.276  21.707   2.708  0.00  0.00    -0.247 N 
ATOM      8  N   UNL     1     -36.519  23.911   2.947  0.00  0.00    -0.243 NA
ATOM      9  N   UNL     1     -35.363  21.150   4.889  0.00  0.00    -0.228 NA
ATOM     10  N   UNL     1     -35.133  23.137   6.287  0.00  0.00    -0.231 NA
ATOM     11  C   UNL     1     -35.842  22.001   3.969  0.00  0.00    +0.152 C 
ATOM     12  C   UNL     1     -36.672  22.886   2.134  0.00  0.00    +0.223 C 
ATOM     13  C   UNL     1     -36.001  23.372   4.097  0.00  0.00    +0.137 C 
ATOM     14  C   UNL     1     -35.625  23.938   5.312  0.00  0.00    +0.155 C 
ATOM     15  C   UNL     1     -35.033  21.812   6.019  0.00  0.00    +0.253 C 
ENDBRANCH   3   7
BRANCH   2  16
ATOM     16  O2* UNL     1     -38.443  20.226   0.908  0.00  0.00    -0.378 OA
ATOM     17  H2* UNL     1     -38.890  20.478   0.085  0.00  0.00    +0.211 HD
ENDBRANCH   2  16
BRANCH   4  18
ATOM     18  O3* UNL     1     -36.970  17.960   0.619  0.00  0.00    -0.379 OA
ATOM     19  H3* UNL     1     -36.305  17.506   1.159  0.00  0.00    +0.211 HD
ENDBRANCH   4  18
BRANCH   5  20
ATOM     20  C5* UNL     1     -34.096  20.084  -0.420  0.00  0.00    +0.169 C 
BRANCH  20  21
ATOM     21  O5* UNL     1     -33.897  19.337  -1.607  0.00  0.00    -0.379 OA
ATOM     22  H5* UNL     1     -32.948  19.197  -1.746  0.00  0.00    +0.211 HD
ENDBRANCH  20  21
ENDBRANCH   5  20
TORSDOF 5
ENDMDL
MODEL 5
REMARK VINA RESULT:      -5.3      4.365      6.103
REMARK  Name = 21116879
REMARK  5 active torsions:
REMARK  status: ('A' for Active; 'I' for Inactive)
REMARK    1  A    between atoms: C2*_2  and  O2*_16
REMARK    2  A    between atoms: C1*_3  and  N_7
REMARK    3  A    between atoms: C3*_4  and  O3*_18
REMARK    4  A    between atoms: C4*_5  and  C5*_20
REMARK    5  A    between atoms: C5*_20  and  O5*_21
REMARK                            x       y       z     vdW  Elec       q    Type
REMARK                         _______ _______ _______ _____ _____    ______ ____
ROOT
ATOM      1  O4* UNL     1     -36.730  24.190   4.503  0.00  0.00    -0.333 OA
ATOM      2  C2* UNL     1     -35.484  22.213   4.118  0.00  0.00    +0.187 C 
ATOM      3  C1* UNL     1     -36.787  22.932   3.804  0.00  0.00    +0.225 C 
ATOM      4  C3* UNL     1     -35.225  22.665   5.542  0.00  0.00    +0.171 C 
ATOM      5  C4* UNL     1     -35.697  24.115   5.514  0.00  0.00    +0.175 C 
ENDROOT
BRANCH   3   7
ATOM      6 CL   UNL     1     -38.449  23.294  -2.251  0.00  0.00    -0.060 Cl
ATOM      7  N   UNL     1     -37.008  23.170   2.380  0.00  0.00    -0.247 N 
ATOM      8  N   UNL     1     -36.728  24.031   0.342  0.00  0.00    -0.243 NA
ATOM      9  N   UNL     1     -38.866  21.666   1.945  0.00  0.00    -0.228 NA
ATOM     10  N   UNL     1     -39.556  21.763  -0.394  0.00  0.00    -0.231 NA
ATOM     11  C   UNL     1     -37.950  22.579   1.587  0.00  0.00    +0.152 C 
ATOM     12  C   UNL     1     -36.299  24.034   1.587  0.00  0.00    +0.223 C 
ATOM     13  C   UNL     1     -37.759  23.126   0.328  0.00  0.00    +0.137 C 
ATOM     14  C   UNL     1     -38.607  22.686  -0.685  0.00  0.00    +0.155 C 
ATOM     15  C   UNL     1     -39.626  21.318   0.884  0.00  0.00    +0.253 C 
ENDBRANCH   3   7
BRANCH   2  16
ATOM     16  O2* UNL     1     -35.611  20.812   3.997  0.00  0.00    -0.378 OA
ATOM     17  H2* UNL     1     -35.876  20.436   4.851  0.00  0.00    +0.211 HD
ENDBRANCH   2  16
BRANCH   4  18
ATOM     18  O3* UNL     1     -36.060  21.926   6.434  0.00  0.00    -0.379 OA
ATOM     19  H3* UNL     1     -36.303  22.486   7.187  0.00  0.00    +0.211 HD
ENDBRANCH   4  18
BRANCH   5  20
ATOM     20  C5* UNL     1     -34.590  25.092   5.142  0.00  0.00    +0.169 C 
BRANCH  20  21
ATOM     21  O5* UNL     1     -34.992  26.397   5.519  0.00  0.00    -0.379 OA
ATOM     22  H5* UNL     1     -34.208  26.951   5.656  0.00  0.00    +0.211 HD
ENDBRANCH  20  21
ENDBRANCH   5  20
TORSDOF 5
ENDMDL
MODEL 6
REMARK VINA RESULT:      -5.3      4.144      5.295
REMARK  Name = 21116879
REMARK  5 active torsions:
REMARK  status: ('A' for Active; 'I' for Inactive)
REMARK    1  A    between atoms: C2*_2  and  O2*_16
REMARK    2  A    between atoms: C1*_3  and  N_7
REMARK    3  A    between atoms: C3*_4  and  O3*_18
REMARK    4  A    between atoms: C4*_5  and  C5*_20
REMARK    5  A    between atoms: C5*_20  and  O5*_21
REMARK                            x       y       z     vdW  Elec       q    Type
REMARK                         _______ _______ _______ _____ _____    ______ ____
ROOT
ATOM      1  O4* UNL     1     -36.184  25.293   4.938  0.00  0.00    -0.333 OA
ATOM      2  C2* UNL     1     -36.438  23.314   3.660  0.00  0.00    +0.187 C 
ATOM      3  C1* UNL     1     -37.150  24.563   4.157  0.00  0.00    +0.225 C 
ATOM      4  C3* UNL     1     -35.516  23.010   4.824  0.00  0.00    +0.171 C 
ATOM      5  C4* UNL     1     -35.093  24.404   5.278  0.00  0.00    +0.175 C 
ENDROOT
BRANCH   3   7
ATOM      6 CL   UNL     1     -40.124  27.618  -0.467  0.00  0.00    -0.060 Cl
ATOM      7  N   UNL     1     -37.667  25.418   3.090  0.00  0.00    -0.247 N 
ATOM      8  N   UNL     1     -37.768  27.103   1.633  0.00  0.00    -0.243 NA
ATOM      9  N   UNL     1     -39.744  24.278   2.553  0.00  0.00    -0.228 NA
ATOM     10  N   UNL     1     -40.944  25.420   0.762  0.00  0.00    -0.231 NA
ATOM     11  C   UNL     1     -38.833  25.251   2.400  0.00  0.00    +0.152 C 
ATOM     12  C   UNL     1     -37.063  26.543   2.595  0.00  0.00    +0.223 C 
ATOM     13  C   UNL     1     -38.877  26.305   1.501  0.00  0.00    +0.137 C 
ATOM     14  C   UNL     1     -39.984  26.371   0.661  0.00  0.00    +0.155 C 
ATOM     15  C   UNL     1     -40.767  24.447   1.688  0.00  0.00    +0.253 C 
ENDBRANCH   3   7
BRANCH   2  16
ATOM     16  O2* UNL     1     -37.343  22.266   3.383  0.00  0.00    -0.378 OA
ATOM     17  H2* UNL     1     -38.027  22.582   2.771  0.00  0.00    +0.211 HD
ENDBRANCH   2  16
BRANCH   4  18
ATOM     18  O3* UNL     1     -36.260  22.390   5.872  0.00  0.00    -0.379 OA
ATOM     19  H3* UNL     1     -35.649  22.007   6.520  0.00  0.00    +0.211 HD
ENDBRANCH   4  18
BRANCH   5  20
ATOM     20  C5* UNL     1     -33.835  24.899   4.579  0.00  0.00    +0.169 C 
BRANCH  20  21
ATOM     21  O5* UNL     1     -33.369  26.057   5.251  0.00  0.00    -0.379 OA
ATOM     22  H5* UNL     1     -32.939  26.649   4.615  0.00  0.00    +0.211 HD
ENDBRANCH  20  21
ENDBRANCH   5  20
TORSDOF 5
ENDMDL
MODEL 7
REMARK VINA RESULT:      -5.2      2.201      2.663
REMARK  Name = 21116879
REMARK  5 active torsions:
REMARK  status: ('A' for Active; 'I' for Inactive)
REMARK    1  A    between atoms: C2*_2  and  O2*_16
REMARK    2  A    between atoms: C1*_3  and  N_7
REMARK    3  A    between atoms: C3*_4  and  O3*_18
REMARK    4  A    between atoms: C4*_5  and  C5*_20
REMARK    5  A    between atoms: C5*_20  and  O5*_21
REMARK                            x       y       z     vdW  Elec       q    Type
REMARK                         _______ _______ _______ _____ _____    ______ ____
ROOT
ATOM      1  O4* UNL     1     -36.682  25.072   4.337  0.00  0.00    -0.333 OA
ATOM      2  C2* UNL     1     -37.031  26.335   2.363  0.00  0.00    +0.187 C 
ATOM      3  C1* UNL     1     -36.327  26.321   3.711  0.00  0.00    +0.225 C 
ATOM      4  C3* UNL     1     -38.315  25.598   2.685  0.00  0.00    +0.171 C 
ATOM      5  C4* UNL     1     -37.840  24.526   3.661  0.00  0.00    +0.175 C 
ENDROOT
BRANCH   3   7
ATOM      6 CL   UNL     1     -30.223  27.754   3.214  0.00  0.00    -0.060 Cl
ATOM      7  N   UNL     1     -34.873  26.432   3.625  0.00  0.00    -0.247 N 
ATOM      8  N   UNL     1     -32.732  25.807   3.598  0.00  0.00    -0.243 NA
ATOM      9  N   UNL     1     -34.613  28.825   3.301  0.00  0.00    -0.228 NA
ATOM     10  N   UNL     1     -32.261  29.442   3.101  0.00  0.00    -0.231 NA
ATOM     11  C   UNL     1     -34.148  27.575   3.440  0.00  0.00    +0.152 C 
ATOM     12  C   UNL     1     -33.979  25.398   3.715  0.00  0.00    +0.223 C 
ATOM     13  C   UNL     1     -32.824  27.166   3.425  0.00  0.00    +0.137 C 
ATOM     14  C   UNL     1     -31.862  28.155   3.248  0.00  0.00    +0.155 C 
ATOM     15  C   UNL     1     -33.591  29.694   3.137  0.00  0.00    +0.253 C 
ENDBRANCH   3   7
BRANCH   2  16
ATOM     16  O2* UNL     1     -37.250  27.650   1.895  0.00  0.00    -0.378 OA
ATOM     17  H2* UNL     1     -37.469  27.625   0.950  0.00  0.00    +0.211 HD
ENDBRANCH   2  16
BRANCH   4  18
ATOM     18  O3* UNL     1     -39.211  26.476   3.367  0.00  0.00    -0.379 OA
ATOM     19  H3* UNL     1     -39.956  26.693   2.786  0.00  0.00    +0.211 HD
ENDBRANCH   4  18
BRANCH   5  20
ATOM     20  C5* UNL     1     -37.426  23.235   2.969  0.00  0.00    +0.169 C 
BRANCH  20  21
ATOM     21  O5* UNL     1     -36.807  22.388   3.922  0.00  0.00    -0.379 OA
ATOM     22  H5* UNL     1     -35.997  22.014   3.544  0.00  0.00    +0.211 HD
ENDBRANCH  20  21
ENDBRANCH   5  20
TORSDOF 5
ENDMDL
MODEL 8
REMARK VINA RESULT:      -5.2      3.119      4.469
REMARK  Name = 21116879
REMARK  5 active torsions:
REMARK  status: ('A' for Active; 'I' for Inactive)
REMARK    1  A    between atoms: C2*_2  and  O2*_16
REMARK    2  A    between atoms: C1*_3  and  N_7
REMARK    3  A    between atoms: C3*_4  and  O3*_18
REMARK    4  A    between atoms: C4*_5  and  C5*_20
REMARK    5  A    between atoms: C5*_20  and  O5*_21
REMARK                            x       y       z     vdW  Elec       q    Type
REMARK                         _______ _______ _______ _____ _____    ______ ____
ROOT
ATOM      1  O4* UNL     1     -34.659  20.393   2.013  0.00  0.00    -0.333 OA
ATOM      2  C2* UNL     1     -36.920  21.075   1.832  0.00  0.00    +0.187 C 
ATOM      3  C1* UNL     1     -35.806  20.742   2.813  0.00  0.00    +0.225 C 
ATOM      4  C3* UNL     1     -36.626  20.109   0.702  0.00  0.00    +0.171 C 
ATOM      5  C4* UNL     1     -35.101  20.104   0.666  0.00  0.00    +0.175 C 
ENDROOT
BRANCH   3   7
ATOM      6 CL   UNL     1     -34.228  25.995   5.892  0.00  0.00    -0.060 Cl
ATOM      7  N   UNL     1     -35.460  21.838   3.716  0.00  0.00    -0.247 N 
ATOM      8  N   UNL     1     -35.043  22.914   5.624  0.00  0.00    -0.243 NA
ATOM      9  N   UNL     1     -35.110  23.647   2.133  0.00  0.00    -0.228 NA
ATOM     10  N   UNL     1     -34.494  25.715   3.272  0.00  0.00    -0.231 NA
ATOM     11  C   UNL     1     -35.155  23.122   3.366  0.00  0.00    +0.152 C 
ATOM     12  C   UNL     1     -35.380  21.762   5.081  0.00  0.00    +0.223 C 
ATOM     13  C   UNL     1     -34.899  23.772   4.563  0.00  0.00    +0.137 C 
ATOM     14  C   UNL     1     -34.559  25.120   4.488  0.00  0.00    +0.155 C 
ATOM     15  C   UNL     1     -34.771  24.953   2.186  0.00  0.00    +0.253 C 
ENDBRANCH   3   7
BRANCH   2  16
ATOM     16  O2* UNL     1     -38.198  20.887   2.402  0.00  0.00    -0.378 OA
ATOM     17  H2* UNL     1     -38.373  19.937   2.500  0.00  0.00    +0.211 HD
ENDBRANCH   2  16
BRANCH   4  18
ATOM     18  O3* UNL     1     -37.082  18.804   1.060  0.00  0.00    -0.379 OA
ATOM     19  H3* UNL     1     -36.749  18.576   1.941  0.00  0.00    +0.211 HD
ENDBRANCH   4  18
BRANCH   5  20
ATOM     20  C5* UNL     1     -34.526  21.163  -0.265  0.00  0.00    +0.169 C 
BRANCH  20  21
ATOM     21  O5* UNL     1     -33.461  21.821   0.400  0.00  0.00    -0.379 OA
ATOM     22  H5* UNL     1     -33.730  22.724   0.626  0.00  0.00    +0.211 HD
ENDBRANCH  20  21
ENDBRANCH   5  20
TORSDOF 5
ENDMDL
MODEL 9
REMARK VINA RESULT:      -5.2      4.222      5.666
REMARK  Name = 21116879
REMARK  5 active torsions:
REMARK  status: ('A' for Active; 'I' for Inactive)
REMARK    1  A    between atoms: C2*_2  and  O2*_16
REMARK    2  A    between atoms: C1*_3  and  N_7
REMARK    3  A    between atoms: C3*_4  and  O3*_18
REMARK    4  A    between atoms: C4*_5  and  C5*_20
REMARK    5  A    between atoms: C5*_20  and  O5*_21
REMARK                            x       y       z     vdW  Elec       q    Type
REMARK                         _______ _______ _______ _____ _____    ______ ____
ROOT
ATOM      1  O4* UNL     1     -35.483  24.271   3.009  0.00  0.00    -0.333 OA
ATOM      2  C2* UNL     1     -36.404  25.414   4.868  0.00  0.00    +0.187 C 
ATOM      3  C1* UNL     1     -36.123  25.509   3.377  0.00  0.00    +0.225 C 
ATOM      4  C3* UNL     1     -35.210  24.614   5.350  0.00  0.00    +0.171 C 
ATOM      5  C4* UNL     1     -35.002  23.622   4.210  0.00  0.00    +0.175 C 
ENDROOT
BRANCH   3   7
ATOM      6 CL   UNL     1     -41.503  25.454   0.118  0.00  0.00    -0.060 Cl
ATOM      7  N   UNL     1     -37.317  25.707   2.558  0.00  0.00    -0.247 N 
ATOM      8  N   UNL     1     -38.768  26.714   1.197  0.00  0.00    -0.243 NA
ATOM      9  N   UNL     1     -38.447  23.579   2.870  0.00  0.00    -0.228 NA
ATOM     10  N   UNL     1     -40.545  23.499   1.626  0.00  0.00    -0.231 NA
ATOM     11  C   UNL     1     -38.331  24.814   2.359  0.00  0.00    +0.152 C 
ATOM     12  C   UNL     1     -37.625  26.832   1.840  0.00  0.00    +0.223 C 
ATOM     13  C   UNL     1     -39.220  25.457   1.512  0.00  0.00    +0.137 C 
ATOM     14  C   UNL     1     -40.363  24.753   1.147  0.00  0.00    +0.155 C 
ATOM     15  C   UNL     1     -39.590  22.997   2.447  0.00  0.00    +0.253 C 
ENDBRANCH   3   7
BRANCH   2  16
ATOM     16  O2* UNL     1     -36.494  26.690   5.470  0.00  0.00    -0.378 OA
ATOM     17  H2* UNL     1     -37.414  26.996   5.442  0.00  0.00    +0.211 HD
ENDBRANCH   2  16
BRANCH   4  18
ATOM     18  O3* UNL     1     -34.067  25.466   5.433  0.00  0.00    -0.379 OA
ATOM     19  H3* UNL     1     -33.629  25.337   6.287  0.00  0.00    +0.211 HD
ENDBRANCH   4  18
BRANCH   5  20
ATOM     20  C5* UNL     1     -35.781  22.328   4.401  0.00  0.00    +0.169 C 
BRANCH  20  21
ATOM     21  O5* UNL     1     -36.105  22.192   5.773  0.00  0.00    -0.379 OA
ATOM     22  H5* UNL     1     -36.650  22.943   6.053  0.00  0.00    +0.211 HD
ENDBRANCH  20  21
ENDBRANCH   5  20
TORSDOF 5
ENDMDL
