MODEL 1
REMARK VINA RESULT:      -6.6      0.000      0.000
REMARK  Name = 5491989
REMARK  5 active torsions:
REMARK  status: ('A' for Active; 'I' for Inactive)
REMARK    1  A    between atoms: C_6  and  O_24
REMARK    2  A    between atoms: C_9  and  C_26
REMARK    3  A    between atoms: C_15  and  N_19
REMARK    4  A    between atoms: C_26  and  O_27
REMARK    5  A    between atoms: O_27  and  C_30
REMARK                            x       y       z     vdW  Elec       q    Type
REMARK                         _______ _______ _______ _____ _____    ______ ____
ROOT
ATOM      1  O   UNL     1     -39.043  26.253   3.168  0.00  0.00    -0.286 OA
ATOM      2  O   UNL     1     -38.418  21.074   1.987  0.00  0.00    -0.285 OA
ATOM      3  N   UNL     1     -34.109  24.950   3.056  0.00  0.00    +0.388 N 
ATOM      4  N   UNL     1     -36.766  24.748   4.180  0.00  0.00    -0.290 N 
ATOM      5  C   UNL     1     -34.476  24.242   4.280  0.00  0.00    -0.036 C 
ATOM      6  C   UNL     1     -35.832  23.655   4.526  0.00  0.00    +0.141 C 
ATOM      7  C   UNL     1     -34.657  25.726   4.155  0.00  0.00    -0.057 C 
ATOM      8  C   UNL     1     -36.123  26.057   4.175  0.00  0.00    +0.070 C 
ATOM      9  C   UNL     1     -36.328  22.445   3.670  0.00  0.00    +0.111 C 
ATOM     10  C   UNL     1     -37.767  24.284   3.361  0.00  0.00    +0.088 C 
ATOM     11  C   UNL     1     -37.598  22.997   3.055  0.00  0.00    +0.042 C 
ATOM     12  C   UNL     1     -38.898  25.075   2.862  0.00  0.00    +0.206 C 
ATOM     13  C   UNL     1     -38.555  22.270   2.218  0.00  0.00    +0.210 C 
ATOM     14  C   UNL     1     -39.868  24.361   1.967  0.00  0.00    +0.039 C 
ATOM     15  C   UNL     1     -39.702  23.056   1.661  0.00  0.00    +0.120 C 
ATOM     16  C   UNL     1     -41.011  25.216   1.489  0.00  0.00    +0.036 C 
ATOM     17  H   UNL     1     -34.661  24.814   2.210  0.00  0.00    -0.084 HD
ATOM     18  H   UNL     1     -33.256  25.011   2.500  0.00  0.00    -0.084 HD
ENDROOT
BRANCH  15  19
ATOM     19  N   UNL     1     -40.536  22.336   0.845  0.00  0.00    -0.225 NA
ATOM     20  N   UNL     1     -40.920  21.767  -1.456  0.00  0.00    -0.288 N 
ATOM     21  C   UNL     1     -40.254  22.390  -0.414  0.00  0.00    +0.164 C 
ATOM     22  C   UNL     1     -42.088  20.931  -1.212  0.00  0.00    +0.114 C 
ATOM     23  C   UNL     1     -40.651  22.125  -2.841  0.00  0.00    +0.114 C 
ENDBRANCH  15  19
BRANCH   6  24
ATOM     24  O   UNL     1     -35.964  23.337   5.912  0.00  0.00    -0.341 OA
ATOM     25  C   UNL     1     -35.372  22.083   6.212  0.00  0.00    +0.176 C 
ENDBRANCH   6  24
BRANCH   9  26
ATOM     26  C   UNL     1     -35.345  21.940   2.618  0.00  0.00    +0.218 C 
BRANCH  26  27
ATOM     27  O   UNL     1     -35.197  20.541   2.774  0.00  0.00    -0.434 OA
BRANCH  27  30
ATOM     28  O   UNL     1     -33.821  19.694   1.135  0.00  0.00    -0.227 OA
ATOM     29  N   UNL     1     -36.081  19.277   1.120  0.00  0.00    -0.295 N 
ATOM     30  C   UNL     1     -34.933  19.827   1.633  0.00  0.00    +0.398 C 
ATOM     31  H   UNL     1     -36.944  19.425   1.573  0.00  0.00    +0.148 HD
ATOM     32  H   UNL     1     -36.044  18.736   0.298  0.00  0.00    +0.148 HD
ENDBRANCH  27  30
ENDBRANCH  26  27
ENDBRANCH   9  26
TORSDOF 5
ENDMDL
MODEL 2
REMARK VINA RESULT:      -6.4      3.180      7.293
REMARK  Name = 5491989
REMARK  5 active torsions:
REMARK  status: ('A' for Active; 'I' for Inactive)
REMARK    1  A    between atoms: C_6  and  O_24
REMARK    2  A    between atoms: C_9  and  C_26
REMARK    3  A    between atoms: C_15  and  N_19
REMARK    4  A    between atoms: C_26  and  O_27
REMARK    5  A    between atoms: O_27  and  C_30
REMARK                            x       y       z     vdW  Elec       q    Type
REMARK                         _______ _______ _______ _____ _____    ______ ____
ROOT
ATOM      1  O   UNL     1     -36.585  28.717   1.445  0.00  0.00    -0.286 OA
ATOM      2  O   UNL     1     -32.955  25.702   3.963  0.00  0.00    -0.285 OA
ATOM      3  N   UNL     1     -38.800  24.962   4.102  0.00  0.00    +0.388 N 
ATOM      4  N   UNL     1     -37.082  25.897   1.972  0.00  0.00    -0.290 N 
ATOM      5  C   UNL     1     -38.205  24.141   3.052  0.00  0.00    -0.036 C 
ATOM      6  C   UNL     1     -36.920  24.479   2.359  0.00  0.00    +0.141 C 
ATOM      7  C   UNL     1     -39.179  25.235   2.727  0.00  0.00    -0.057 C 
ATOM      8  C   UNL     1     -38.477  26.322   1.961  0.00  0.00    +0.070 C 
ATOM      9  C   UNL     1     -35.574  24.452   3.151  0.00  0.00    +0.111 C 
ATOM     10  C   UNL     1     -35.969  26.622   2.326  0.00  0.00    +0.088 C 
ATOM     11  C   UNL     1     -35.074  25.871   2.969  0.00  0.00    +0.042 C 
ATOM     12  C   UNL     1     -35.757  28.048   2.052  0.00  0.00    +0.206 C 
ATOM     13  C   UNL     1     -33.792  26.414   3.420  0.00  0.00    +0.210 C 
ATOM     14  C   UNL     1     -34.466  28.636   2.544  0.00  0.00    +0.039 C 
ATOM     15  C   UNL     1     -33.556  27.875   3.189  0.00  0.00    +0.120 C 
ATOM     16  C   UNL     1     -34.296  30.098   2.231  0.00  0.00    +0.036 C 
ATOM     17  H   UNL     1     -38.221  25.632   4.608  0.00  0.00    -0.084 HD
ATOM     18  H   UNL     1     -39.321  24.757   4.955  0.00  0.00    -0.084 HD
ENDROOT
BRANCH  15  19
ATOM     19  N   UNL     1     -32.361  28.338   3.678  0.00  0.00    -0.225 NA
ATOM     20  N   UNL     1     -31.301  29.114   5.687  0.00  0.00    -0.288 N 
ATOM     21  C   UNL     1     -32.358  28.630   4.936  0.00  0.00    +0.164 C 
ATOM     22  C   UNL     1     -29.997  29.357   5.086  0.00  0.00    +0.114 C 
ATOM     23  C   UNL     1     -31.511  29.642   7.028  0.00  0.00    +0.114 C 
ENDBRANCH  15  19
BRANCH   6  24
ATOM     24  O   UNL     1     -36.793  23.676   1.185  0.00  0.00    -0.341 OA
ATOM     25  C   UNL     1     -36.906  22.295   1.489  0.00  0.00    +0.176 C 
ENDBRANCH   6  24
BRANCH   9  26
ATOM     26  C   UNL     1     -35.687  24.060   4.621  0.00  0.00    +0.218 C 
BRANCH  26  27
ATOM     27  O   UNL     1     -34.757  23.025   4.885  0.00  0.00    -0.434 OA
BRANCH  27  30
ATOM     28  O   UNL     1     -35.151  20.800   4.445  0.00  0.00    -0.227 OA
ATOM     29  N   UNL     1     -35.982  21.802   6.340  0.00  0.00    -0.295 N 
ATOM     30  C   UNL     1     -35.284  21.789   5.158  0.00  0.00    +0.398 C 
ATOM     31  H   UNL     1     -36.049  22.633   6.863  0.00  0.00    +0.148 HD
ATOM     32  H   UNL     1     -36.418  20.980   6.663  0.00  0.00    +0.148 HD
ENDBRANCH  27  30
ENDBRANCH  26  27
ENDBRANCH   9  26
TORSDOF 5
ENDMDL
MODEL 3
REMARK VINA RESULT:      -5.9      3.078      3.919
REMARK  Name = 5491989
REMARK  5 active torsions:
REMARK  status: ('A' for Active; 'I' for Inactive)
REMARK    1  A    between atoms: C_6  and  O_24
REMARK    2  A    between atoms: C_9  and  C_26
REMARK    3  A    between atoms: C_15  and  N_19
REMARK    4  A    between atoms: C_26  and  O_27
REMARK    5  A    between atoms: O_27  and  C_30
REMARK                            x       y       z     vdW  Elec       q    Type
REMARK                         _______ _______ _______ _____ _____    ______ ____
ROOT
ATOM      1  O   UNL     1     -37.203  27.945   0.343  0.00  0.00    -0.286 OA
ATOM      2  O   UNL     1     -39.779  24.663   3.690  0.00  0.00    -0.285 OA
ATOM      3  N   UNL     1     -34.103  24.310   2.142  0.00  0.00    +0.388 N 
ATOM      4  N   UNL     1     -35.799  26.622   2.522  0.00  0.00    -0.290 N 
ATOM      5  C   UNL     1     -34.250  25.078   3.375  0.00  0.00    -0.036 C 
ATOM      6  C   UNL     1     -35.488  25.839   3.739  0.00  0.00    +0.141 C 
ATOM      7  C   UNL     1     -33.698  25.705   2.130  0.00  0.00    -0.057 C 
ATOM      8  C   UNL     1     -34.653  26.754   1.631  0.00  0.00    +0.070 C 
ATOM      9  C   UNL     1     -36.815  25.074   4.049  0.00  0.00    +0.111 C 
ATOM     10  C   UNL     1     -37.128  26.494   2.195  0.00  0.00    +0.088 C 
ATOM     11  C   UNL     1     -37.762  25.661   3.022  0.00  0.00    +0.042 C 
ATOM     12  C   UNL     1     -37.801  27.171   1.081  0.00  0.00    +0.206 C 
ATOM     13  C   UNL     1     -39.195  25.389   2.892  0.00  0.00    +0.210 C 
ATOM     14  C   UNL     1     -39.261  26.872   0.904  0.00  0.00    +0.039 C 
ATOM     15  C   UNL     1     -39.907  26.034   1.744  0.00  0.00    +0.120 C 
ATOM     16  C   UNL     1     -39.904  27.597  -0.248  0.00  0.00    +0.036 C 
ATOM     17  H   UNL     1     -34.933  24.021   1.626  0.00  0.00    -0.084 HD
ATOM     18  H   UNL     1     -33.639  23.434   1.902  0.00  0.00    -0.084 HD
ENDROOT
BRANCH  15  19
ATOM     19  N   UNL     1     -41.234  25.703   1.644  0.00  0.00    -0.225 NA
ATOM     20  N   UNL     1     -43.411  26.309   2.455  0.00  0.00    -0.288 N 
ATOM     21  C   UNL     1     -42.034  26.420   2.361  0.00  0.00    +0.164 C 
ATOM     22  C   UNL     1     -44.140  25.300   1.700  0.00  0.00    +0.114 C 
ATOM     23  C   UNL     1     -44.152  27.009   3.495  0.00  0.00    +0.114 C 
ENDBRANCH  15  19
BRANCH   6  24
ATOM     24  O   UNL     1     -35.194  26.730   4.815  0.00  0.00    -0.341 OA
ATOM     25  C   UNL     1     -34.364  26.110   5.785  0.00  0.00    +0.176 C 
ENDBRANCH   6  24
BRANCH   9  26
ATOM     26  C   UNL     1     -36.730  23.554   3.958  0.00  0.00    +0.218 C 
BRANCH  26  27
ATOM     27  O   UNL     1     -36.349  23.048   5.225  0.00  0.00    -0.434 OA
BRANCH  27  30
ATOM     28  O   UNL     1     -34.653  21.783   6.134  0.00  0.00    -0.227 OA
ATOM     29  N   UNL     1     -35.508  21.305   4.054  0.00  0.00    -0.295 N 
ATOM     30  C   UNL     1     -35.434  22.026   5.220  0.00  0.00    +0.398 C 
ATOM     31  H   UNL     1     -36.161  21.556   3.361  0.00  0.00    +0.148 HD
ATOM     32  H   UNL     1     -34.908  20.538   3.911  0.00  0.00    +0.148 HD
ENDBRANCH  27  30
ENDBRANCH  26  27
ENDBRANCH   9  26
TORSDOF 5
ENDMDL
MODEL 4
REMARK VINA RESULT:      -5.8      2.948      7.611
REMARK  Name = 5491989
REMARK  5 active torsions:
REMARK  status: ('A' for Active; 'I' for Inactive)
REMARK    1  A    between atoms: C_6  and  O_24
REMARK    2  A    between atoms: C_9  and  C_26
REMARK    3  A    between atoms: C_15  and  N_19
REMARK    4  A    between atoms: C_26  and  O_27
REMARK    5  A    between atoms: O_27  and  C_30
REMARK                            x       y       z     vdW  Elec       q    Type
REMARK                         _______ _______ _______ _____ _____    ______ ____
ROOT
ATOM      1  O   UNL     1     -32.870  24.801   0.796  0.00  0.00    -0.286 OA
ATOM      2  O   UNL     1     -34.917  26.621   5.390  0.00  0.00    -0.285 OA
ATOM      3  N   UNL     1     -37.645  23.137   1.497  0.00  0.00    +0.388 N 
ATOM      4  N   UNL     1     -34.860  23.264   2.264  0.00  0.00    -0.290 N 
ATOM      5  C   UNL     1     -36.999  22.338   2.534  0.00  0.00    -0.036 C 
ATOM      6  C   UNL     1     -35.797  22.790   3.305  0.00  0.00    +0.141 C 
ATOM      7  C   UNL     1     -36.584  22.229   1.097  0.00  0.00    -0.057 C 
ATOM      8  C   UNL     1     -35.180  22.746   0.940  0.00  0.00    +0.070 C 
ATOM      9  C   UNL     1     -35.909  23.995   4.294  0.00  0.00    +0.111 C 
ATOM     10  C   UNL     1     -34.350  24.496   2.601  0.00  0.00    +0.088 C 
ATOM     11  C   UNL     1     -34.876  24.954   3.738  0.00  0.00    +0.042 C 
ATOM     12  C   UNL     1     -33.353  25.247   1.831  0.00  0.00    +0.206 C 
ATOM     13  C   UNL     1     -34.466  26.235   4.317  0.00  0.00    +0.210 C 
ATOM     14  C   UNL     1     -32.950  26.583   2.384  0.00  0.00    +0.039 C 
ATOM     15  C   UNL     1     -33.477  27.045   3.539  0.00  0.00    +0.120 C 
ATOM     16  C   UNL     1     -31.920  27.307   1.560  0.00  0.00    +0.036 C 
ATOM     17  H   UNL     1     -37.487  24.143   1.464  0.00  0.00    -0.084 HD
ATOM     18  H   UNL     1     -38.612  23.271   1.203  0.00  0.00    -0.084 HD
ENDROOT
BRANCH  15  19
ATOM     19  N   UNL     1     -33.169  28.256   4.104  0.00  0.00    -0.225 NA
ATOM     20  N   UNL     1     -31.569  29.335   5.533  0.00  0.00    -0.288 N 
ATOM     21  C   UNL     1     -32.110  28.262   4.845  0.00  0.00    +0.164 C 
ATOM     22  C   UNL     1     -32.188  30.652   5.484  0.00  0.00    +0.114 C 
ATOM     23  C   UNL     1     -30.528  29.139   6.532  0.00  0.00    +0.114 C 
ENDBRANCH  15  19
BRANCH   6  24
ATOM     24  O   UNL     1     -35.226  21.672   3.986  0.00  0.00    -0.341 OA
ATOM     25  C   UNL     1     -35.249  21.859   5.393  0.00  0.00    +0.176 C 
ENDBRANCH   6  24
BRANCH   9  26
ATOM     26  C   UNL     1     -37.293  24.628   4.400  0.00  0.00    +0.218 C 
BRANCH  26  27
ATOM     27  O   UNL     1     -37.472  25.506   3.303  0.00  0.00    -0.434 OA
BRANCH  27  30
ATOM     28  O   UNL     1     -39.084  26.732   2.208  0.00  0.00    -0.227 OA
ATOM     29  N   UNL     1     -39.654  25.159   3.783  0.00  0.00    -0.295 N 
ATOM     30  C   UNL     1     -38.763  25.876   3.025  0.00  0.00    +0.398 C 
ATOM     31  H   UNL     1     -39.326  24.484   4.422  0.00  0.00    +0.148 HD
ATOM     32  H   UNL     1     -40.621  25.319   3.690  0.00  0.00    +0.148 HD
ENDBRANCH  27  30
ENDBRANCH  26  27
ENDBRANCH   9  26
TORSDOF 5
ENDMDL
MODEL 5
REMARK VINA RESULT:      -5.6      3.361      7.162
REMARK  Name = 5491989
REMARK  5 active torsions:
REMARK  status: ('A' for Active; 'I' for Inactive)
REMARK    1  A    between atoms: C_6  and  O_24
REMARK    2  A    between atoms: C_9  and  C_26
REMARK    3  A    between atoms: C_15  and  N_19
REMARK    4  A    between atoms: C_26  and  O_27
REMARK    5  A    between atoms: O_27  and  C_30
REMARK                            x       y       z     vdW  Elec       q    Type
REMARK                         _______ _______ _______ _____ _____    ______ ____
ROOT
ATOM      1  O   UNL     1     -37.478  28.895   0.655  0.00  0.00    -0.286 OA
ATOM      2  O   UNL     1     -34.065  26.515   4.016  0.00  0.00    -0.285 OA
ATOM      3  N   UNL     1     -39.800  25.293   3.429  0.00  0.00    +0.388 N 
ATOM      4  N   UNL     1     -37.852  26.122   1.459  0.00  0.00    -0.290 N 
ATOM      5  C   UNL     1     -39.000  24.412   2.584  0.00  0.00    -0.036 C 
ATOM      6  C   UNL     1     -37.653  24.777   2.041  0.00  0.00    +0.141 C 
ATOM      7  C   UNL     1     -39.988  25.372   1.991  0.00  0.00    -0.057 C 
ATOM      8  C   UNL     1     -39.256  26.420   1.200  0.00  0.00    +0.070 C 
ATOM      9  C   UNL     1     -36.441  24.958   3.011  0.00  0.00    +0.111 C 
ATOM     10  C   UNL     1     -36.858  26.976   1.871  0.00  0.00    +0.088 C 
ATOM     11  C   UNL     1     -36.019  26.384   2.722  0.00  0.00    +0.042 C 
ATOM     12  C   UNL     1     -36.705  28.374   1.451  0.00  0.00    +0.206 C 
ATOM     13  C   UNL     1     -34.859  27.085   3.276  0.00  0.00    +0.210 C 
ATOM     14  C   UNL     1     -35.546  29.124   2.041  0.00  0.00    +0.039 C 
ATOM     15  C   UNL     1     -34.692  28.524   2.897  0.00  0.00    +0.120 C 
ATOM     16  C   UNL     1     -35.431  30.550   1.571  0.00  0.00    +0.036 C 
ATOM     17  H   UNL     1     -39.351  26.064   3.922  0.00  0.00    -0.084 HD
ATOM     18  H   UNL     1     -40.427  25.143   4.220  0.00  0.00    -0.084 HD
ENDROOT
BRANCH  15  19
ATOM     19  N   UNL     1     -33.618  29.142   3.485  0.00  0.00    -0.225 NA
ATOM     20  N   UNL     1     -31.291  29.630   3.154  0.00  0.00    -0.288 N 
ATOM     21  C   UNL     1     -32.520  29.096   2.807  0.00  0.00    +0.164 C 
ATOM     22  C   UNL     1     -31.107  30.347   4.409  0.00  0.00    +0.114 C 
ATOM     23  C   UNL     1     -30.083  29.279   2.419  0.00  0.00    +0.114 C 
ENDBRANCH  15  19
BRANCH   6  24
ATOM     24  O   UNL     1     -37.297  23.859   1.007  0.00  0.00    -0.341 OA
ATOM     25  C   UNL     1     -36.206  23.039   1.398  0.00  0.00    +0.176 C 
ENDBRANCH   6  24
BRANCH   9  26
ATOM     26  C   UNL     1     -36.745  24.729   4.488  0.00  0.00    +0.218 C 
BRANCH  26  27
ATOM     27  O   UNL     1     -36.645  23.343   4.760  0.00  0.00    -0.434 OA
BRANCH  27  30
ATOM     28  O   UNL     1     -34.445  23.431   5.432  0.00  0.00    -0.227 OA
ATOM     29  N   UNL     1     -35.915  21.935   6.371  0.00  0.00    -0.295 N 
ATOM     30  C   UNL     1     -35.569  22.947   5.512  0.00  0.00    +0.398 C 
ATOM     31  H   UNL     1     -36.839  21.593   6.383  0.00  0.00    +0.148 HD
ATOM     32  H   UNL     1     -35.240  21.549   6.975  0.00  0.00    +0.148 HD
ENDBRANCH  27  30
ENDBRANCH  26  27
ENDBRANCH   9  26
TORSDOF 5
ENDMDL
MODEL 6
REMARK VINA RESULT:      -5.6      5.878      9.961
REMARK  Name = 5491989
REMARK  5 active torsions:
REMARK  status: ('A' for Active; 'I' for Inactive)
REMARK    1  A    between atoms: C_6  and  O_24
REMARK    2  A    between atoms: C_9  and  C_26
REMARK    3  A    between atoms: C_15  and  N_19
REMARK    4  A    between atoms: C_26  and  O_27
REMARK    5  A    between atoms: O_27  and  C_30
REMARK                            x       y       z     vdW  Elec       q    Type
REMARK                         _______ _______ _______ _____ _____    ______ ____
ROOT
ATOM      1  O   UNL     1     -44.885  24.993   1.571  0.00  0.00    -0.286 OA
ATOM      2  O   UNL     1     -41.442  27.948   4.404  0.00  0.00    -0.285 OA
ATOM      3  N   UNL     1     -47.186  29.041   3.663  0.00  0.00    +0.388 N 
ATOM      4  N   UNL     1     -45.772  26.528   3.880  0.00  0.00    -0.290 N 
ATOM      5  C   UNL     1     -46.964  28.280   4.889  0.00  0.00    -0.036 C 
ATOM      6  C   UNL     1     -45.798  27.364   5.100  0.00  0.00    +0.141 C 
ATOM      7  C   UNL     1     -47.768  27.714   3.757  0.00  0.00    -0.057 C 
ATOM      8  C   UNL     1     -47.042  26.538   3.164  0.00  0.00    +0.070 C 
ATOM      9  C   UNL     1     -44.351  27.947   5.192  0.00  0.00    +0.111 C 
ATOM     10  C   UNL     1     -44.499  26.469   3.364  0.00  0.00    +0.088 C 
ATOM     11  C   UNL     1     -43.648  27.221   4.063  0.00  0.00    +0.042 C 
ATOM     12  C   UNL     1     -44.089  25.690   2.190  0.00  0.00    +0.206 C 
ATOM     13  C   UNL     1     -42.226  27.296   3.723  0.00  0.00    +0.210 C 
ATOM     14  C   UNL     1     -42.643  25.786   1.798  0.00  0.00    +0.039 C 
ATOM     15  C   UNL     1     -41.779  26.542   2.509  0.00  0.00    +0.120 C 
ATOM     16  C   UNL     1     -42.275  24.963   0.593  0.00  0.00    +0.036 C 
ATOM     17  H   UNL     1     -46.409  29.207   3.025  0.00  0.00    -0.084 HD
ATOM     18  H   UNL     1     -47.560  29.968   3.460  0.00  0.00    -0.084 HD
ENDROOT
BRANCH  15  19
ATOM     19  N   UNL     1     -40.448  26.689   2.211  0.00  0.00    -0.225 NA
ATOM     20  N   UNL     1     -38.271  25.838   2.761  0.00  0.00    -0.288 N 
ATOM     21  C   UNL     1     -39.651  25.906   2.859  0.00  0.00    +0.164 C 
ATOM     22  C   UNL     1     -37.536  26.705   1.851  0.00  0.00    +0.114 C 
ATOM     23  C   UNL     1     -37.484  25.095   3.735  0.00  0.00    +0.114 C 
ENDBRANCH  15  19
BRANCH   6  24
ATOM     24  O   UNL     1     -46.047  26.538   6.238  0.00  0.00    -0.341 OA
ATOM     25  C   UNL     1     -45.965  27.282   7.443  0.00  0.00    +0.176 C 
ENDBRANCH   6  24
BRANCH   9  26
ATOM     26  C   UNL     1     -44.247  29.463   5.063  0.00  0.00    +0.218 C 
BRANCH  26  27
ATOM     27  O   UNL     1     -43.367  29.942   6.063  0.00  0.00    -0.434 OA
BRANCH  27  30
ATOM     28  O   UNL     1     -44.789  31.553   6.890  0.00  0.00    -0.227 OA
ATOM     29  N   UNL     1     -43.417  30.350   8.287  0.00  0.00    -0.295 N 
ATOM     30  C   UNL     1     -43.933  30.692   7.062  0.00  0.00    +0.398 C 
ATOM     31  H   UNL     1     -42.730  29.647   8.353  0.00  0.00    +0.148 HD
ATOM     32  H   UNL     1     -43.732  30.808   9.100  0.00  0.00    +0.148 HD
ENDBRANCH  27  30
ENDBRANCH  26  27
ENDBRANCH   9  26
TORSDOF 5
ENDMDL
MODEL 7
REMARK VINA RESULT:      -5.5      2.973      6.830
REMARK  Name = 5491989
REMARK  5 active torsions:
REMARK  status: ('A' for Active; 'I' for Inactive)
REMARK    1  A    between atoms: C_6  and  O_24
REMARK    2  A    between atoms: C_9  and  C_26
REMARK    3  A    between atoms: C_15  and  N_19
REMARK    4  A    between atoms: C_26  and  O_27
REMARK    5  A    between atoms: O_27  and  C_30
REMARK                            x       y       z     vdW  Elec       q    Type
REMARK                         _______ _______ _______ _____ _____    ______ ____
ROOT
ATOM      1  O   UNL     1     -34.761  23.676   6.045  0.00  0.00    -0.286 OA
ATOM      2  O   UNL     1     -35.598  26.920   1.876  0.00  0.00    -0.285 OA
ATOM      3  N   UNL     1     -34.812  21.084   1.648  0.00  0.00    +0.388 N 
ATOM      4  N   UNL     1     -36.109  22.721   3.648  0.00  0.00    -0.290 N 
ATOM      5  C   UNL     1     -36.235  21.407   1.707  0.00  0.00    -0.036 C 
ATOM      6  C   UNL     1     -36.779  22.655   2.332  0.00  0.00    +0.141 C 
ATOM      7  C   UNL     1     -35.568  20.625   2.800  0.00  0.00    -0.057 C 
ATOM      8  C   UNL     1     -35.563  21.435   4.066  0.00  0.00    +0.070 C 
ATOM      9  C   UNL     1     -36.484  24.047   1.684  0.00  0.00    +0.111 C 
ATOM     10  C   UNL     1     -35.599  23.979   3.866  0.00  0.00    +0.088 C 
ATOM     11  C   UNL     1     -35.795  24.779   2.817  0.00  0.00    +0.042 C 
ATOM     12  C   UNL     1     -34.916  24.423   5.086  0.00  0.00    +0.206 C 
ATOM     13  C   UNL     1     -35.366  26.179   2.824  0.00  0.00    +0.210 C 
ATOM     14  C   UNL     1     -34.430  25.844   5.098  0.00  0.00    +0.039 C 
ATOM     15  C   UNL     1     -34.633  26.657   4.039  0.00  0.00    +0.120 C 
ATOM     16  C   UNL     1     -33.743  26.250   6.374  0.00  0.00    +0.036 C 
ATOM     17  H   UNL     1     -34.121  21.825   1.760  0.00  0.00    -0.084 HD
ATOM     18  H   UNL     1     -34.217  20.623   0.960  0.00  0.00    -0.084 HD
ENDROOT
BRANCH  15  19
ATOM     19  N   UNL     1     -34.212  27.961   3.968  0.00  0.00    -0.225 NA
ATOM     20  N   UNL     1     -32.277  29.312   3.529  0.00  0.00    -0.288 N 
ATOM     21  C   UNL     1     -32.966  28.119   3.668  0.00  0.00    +0.164 C 
ATOM     22  C   UNL     1     -32.941  30.594   3.723  0.00  0.00    +0.114 C 
ATOM     23  C   UNL     1     -30.823  29.336   3.445  0.00  0.00    +0.114 C 
ENDBRANCH  15  19
BRANCH   6  24
ATOM     24  O   UNL     1     -38.187  22.512   2.521  0.00  0.00    -0.341 OA
ATOM     25  C   UNL     1     -38.778  21.776   1.461  0.00  0.00    +0.176 C 
ENDBRANCH   6  24
BRANCH   9  26
ATOM     26  C   UNL     1     -35.638  24.012   0.415  0.00  0.00    +0.218 C 
BRANCH  26  27
ATOM     27  O   UNL     1     -34.288  23.788   0.779  0.00  0.00    -0.434 OA
BRANCH  27  30
ATOM     28  O   UNL     1     -32.164  24.209  -0.004  0.00  0.00    -0.227 OA
ATOM     29  N   UNL     1     -33.903  25.643  -0.457  0.00  0.00    -0.295 N 
ATOM     30  C   UNL     1     -33.347  24.518   0.099  0.00  0.00    +0.398 C 
ATOM     31  H   UNL     1     -34.863  25.830  -0.334  0.00  0.00    +0.148 HD
ATOM     32  H   UNL     1     -33.343  26.264  -0.976  0.00  0.00    +0.148 HD
ENDBRANCH  27  30
ENDBRANCH  26  27
ENDBRANCH   9  26
TORSDOF 5
ENDMDL
MODEL 8
REMARK VINA RESULT:      -5.4      2.307      4.641
REMARK  Name = 5491989
REMARK  5 active torsions:
REMARK  status: ('A' for Active; 'I' for Inactive)
REMARK    1  A    between atoms: C_6  and  O_24
REMARK    2  A    between atoms: C_9  and  C_26
REMARK    3  A    between atoms: C_15  and  N_19
REMARK    4  A    between atoms: C_26  and  O_27
REMARK    5  A    between atoms: O_27  and  C_30
REMARK                            x       y       z     vdW  Elec       q    Type
REMARK                         _______ _______ _______ _____ _____    ______ ____
ROOT
ATOM      1  O   UNL     1     -35.424  21.270   4.117  0.00  0.00    -0.286 OA
ATOM      2  O   UNL     1     -35.860  24.262  -0.295  0.00  0.00    -0.285 OA
ATOM      3  N   UNL     1     -36.640  26.097   5.251  0.00  0.00    +0.388 N 
ATOM      4  N   UNL     1     -34.827  24.119   4.172  0.00  0.00    -0.290 N 
ATOM      5  C   UNL     1     -35.264  26.331   4.823  0.00  0.00    -0.036 C 
ATOM      6  C   UNL     1     -34.569  25.520   3.773  0.00  0.00    +0.141 C 
ATOM      7  C   UNL     1     -35.578  25.403   5.959  0.00  0.00    -0.057 C 
ATOM      8  C   UNL     1     -35.219  23.995   5.571  0.00  0.00    +0.070 C 
ATOM      9  C   UNL     1     -35.049  25.587   2.287  0.00  0.00    +0.111 C 
ATOM     10  C   UNL     1     -35.259  23.384   3.093  0.00  0.00    +0.088 C 
ATOM     11  C   UNL     1     -35.383  24.138   2.000  0.00  0.00    +0.042 C 
ATOM     12  C   UNL     1     -35.560  21.948   3.105  0.00  0.00    +0.206 C 
ATOM     13  C   UNL     1     -35.800  23.571   0.716  0.00  0.00    +0.210 C 
ATOM     14  C   UNL     1     -36.031  21.355   1.809  0.00  0.00    +0.039 C 
ATOM     15  C   UNL     1     -36.151  22.115   0.699  0.00  0.00    +0.120 C 
ATOM     16  C   UNL     1     -36.319  19.879   1.874  0.00  0.00    +0.036 C 
ATOM     17  H   UNL     1     -37.273  25.571   4.649  0.00  0.00    -0.084 HD
ATOM     18  H   UNL     1     -37.407  26.704   5.540  0.00  0.00    -0.084 HD
ENDROOT
BRANCH  15  19
ATOM     19  N   UNL     1     -36.582  21.653  -0.518  0.00  0.00    -0.225 NA
ATOM     20  N   UNL     1     -38.572  21.220  -1.790  0.00  0.00    -0.288 N 
ATOM     21  C   UNL     1     -37.865  21.635  -0.674  0.00  0.00    +0.164 C 
ATOM     22  C   UNL     1     -37.888  20.731  -2.979  0.00  0.00    +0.114 C 
ATOM     23  C   UNL     1     -40.012  21.010  -1.732  0.00  0.00    +0.114 C 
ENDBRANCH  15  19
BRANCH   6  24
ATOM     24  O   UNL     1     -33.166  25.779   3.828  0.00  0.00    -0.341 OA
ATOM     25  C   UNL     1     -32.899  27.173   3.817  0.00  0.00    +0.176 C 
ENDBRANCH   6  24
BRANCH   9  26
ATOM     26  C   UNL     1     -36.228  26.519   2.022  0.00  0.00    +0.218 C 
BRANCH  26  27
ATOM     27  O   UNL     1     -37.411  25.890   2.480  0.00  0.00    -0.434 OA
BRANCH  27  30
ATOM     28  O   UNL     1     -39.590  26.624   2.370  0.00  0.00    -0.227 OA
ATOM     29  N   UNL     1     -38.434  26.047   0.469  0.00  0.00    -0.295 N 
ATOM     30  C   UNL     1     -38.569  26.222   1.824  0.00  0.00    +0.398 C 
ATOM     31  H   UNL     1     -37.582  25.719   0.098  0.00  0.00    +0.148 HD
ATOM     32  H   UNL     1     -39.189  26.246  -0.130  0.00  0.00    +0.148 HD
ENDBRANCH  27  30
ENDBRANCH  26  27
ENDBRANCH   9  26
TORSDOF 5
ENDMDL
MODEL 9
REMARK VINA RESULT:      -5.4      2.586      5.035
REMARK  Name = 5491989
REMARK  5 active torsions:
REMARK  status: ('A' for Active; 'I' for Inactive)
REMARK    1  A    between atoms: C_6  and  O_24
REMARK    2  A    between atoms: C_9  and  C_26
REMARK    3  A    between atoms: C_15  and  N_19
REMARK    4  A    between atoms: C_26  and  O_27
REMARK    5  A    between atoms: O_27  and  C_30
REMARK                            x       y       z     vdW  Elec       q    Type
REMARK                         _______ _______ _______ _____ _____    ______ ____
ROOT
ATOM      1  O   UNL     1     -39.413  22.128  -0.259  0.00  0.00    -0.286 OA
ATOM      2  O   UNL     1     -38.588  26.328   2.948  0.00  0.00    -0.285 OA
ATOM      3  N   UNL     1     -36.119  21.003   3.475  0.00  0.00    +0.388 N 
ATOM      4  N   UNL     1     -36.871  22.491   1.112  0.00  0.00    -0.290 N 
ATOM      5  C   UNL     1     -35.255  21.894   2.706  0.00  0.00    -0.036 C 
ATOM      6  C   UNL     1     -35.759  23.056   1.906  0.00  0.00    +0.141 C 
ATOM      7  C   UNL     1     -35.837  20.655   2.093  0.00  0.00    -0.057 C 
ATOM      8  C   UNL     1     -36.811  21.038   1.014  0.00  0.00    +0.070 C 
ATOM      9  C   UNL     1     -36.394  24.287   2.630  0.00  0.00    +0.111 C 
ATOM     10  C   UNL     1     -37.981  23.298   1.198  0.00  0.00    +0.088 C 
ATOM     11  C   UNL     1     -37.777  24.335   2.012  0.00  0.00    +0.042 C 
ATOM     12  C   UNL     1     -39.251  23.079   0.497  0.00  0.00    +0.206 C 
ATOM     13  C   UNL     1     -38.805  25.352   2.239  0.00  0.00    +0.210 C 
ATOM     14  C   UNL     1     -40.335  24.087   0.750  0.00  0.00    +0.039 C 
ATOM     15  C   UNL     1     -40.127  25.140   1.569  0.00  0.00    +0.120 C 
ATOM     16  C   UNL     1     -41.614  23.818   0.003  0.00  0.00    +0.036 C 
ATOM     17  H   UNL     1     -37.055  21.310   3.737  0.00  0.00    -0.084 HD
ATOM     18  H   UNL     1     -36.022  20.513   4.364  0.00  0.00    -0.084 HD
ENDROOT
BRANCH  15  19
ATOM     19  N   UNL     1     -41.066  26.097   1.859  0.00  0.00    -0.225 NA
ATOM     20  N   UNL     1     -41.981  28.167   1.058  0.00  0.00    -0.288 N 
ATOM     21  C   UNL     1     -41.133  27.073   1.016  0.00  0.00    +0.164 C 
ATOM     22  C   UNL     1     -42.947  28.333   2.135  0.00  0.00    +0.114 C 
ATOM     23  C   UNL     1     -41.769  29.316   0.188  0.00  0.00    +0.114 C 
ENDBRANCH  15  19
BRANCH   6  24
ATOM     24  O   UNL     1     -34.727  23.507   1.028  0.00  0.00    -0.341 OA
ATOM     25  C   UNL     1     -34.079  24.660   1.542  0.00  0.00    +0.176 C 
ENDBRANCH   6  24
BRANCH   9  26
ATOM     26  C   UNL     1     -36.442  24.199   4.152  0.00  0.00    +0.218 C 
BRANCH  26  27
ATOM     27  O   UNL     1     -35.296  24.845   4.677  0.00  0.00    -0.434 OA
BRANCH  27  30
ATOM     28  O   UNL     1     -34.495  27.003   4.648  0.00  0.00    -0.227 OA
ATOM     29  N   UNL     1     -36.642  26.542   5.329  0.00  0.00    -0.295 N 
ATOM     30  C   UNL     1     -35.396  26.200   4.865  0.00  0.00    +0.398 C 
ATOM     31  H   UNL     1     -37.320  25.844   5.481  0.00  0.00    +0.148 HD
ATOM     32  H   UNL     1     -36.858  27.485   5.510  0.00  0.00    +0.148 HD
ENDBRANCH  27  30
ENDBRANCH  26  27
ENDBRANCH   9  26
TORSDOF 5
ENDMDL
