MODEL 1
REMARK VINA RESULT:      -7.0      0.000      0.000
REMARK  Name = 50901467
REMARK  7 active torsions:
REMARK  status: ('A' for Active; 'I' for Inactive)
REMARK    1  A    between atoms: C_7  and  C_33
REMARK    2  A    between atoms: C_8  and  O_31
REMARK    3  A    between atoms: C_11  and  N_20
REMARK    4  A    between atoms: C_21  and  C_23
REMARK    5  A    between atoms: C_28  and  O_29
REMARK    6  A    between atoms: C_33  and  C_34
REMARK    7  A    between atoms: C_39  and  O_40
REMARK                            x       y       z     vdW  Elec       q    Type
REMARK                         _______ _______ _______ _____ _____    ______ ____
ROOT
ATOM      1  O   UNL     1     -34.789  24.926   3.719  0.00  0.00    -0.450 OA
ATOM      2  O   UNL     1     -34.727  26.483   5.423  0.00  0.00    -0.250 OA
ATOM      3  O   UNL     1     -37.005  28.034   0.235  0.00  0.00    -0.273 OA
ATOM      4  O   UNL     1     -36.885  24.239   0.954  0.00  0.00    -0.273 OA
ATOM      5  N   UNL     1     -36.175  27.678   2.372  0.00  0.00    -0.302 N 
ATOM      6  N   UNL     1     -37.851  25.556   2.593  0.00  0.00    -0.295 N 
ATOM      7  C   UNL     1     -34.877  28.327   2.207  0.00  0.00    +0.103 C 
ATOM      8  C   UNL     1     -33.748  27.270   2.172  0.00  0.00    +0.140 C 
ATOM      9  C   UNL     1     -33.272  26.726   3.522  0.00  0.00    +0.140 C 
ATOM     10  C   UNL     1     -35.881  24.216   4.351  0.00  0.00    +0.196 C 
ATOM     11  C   UNL     1     -36.714  23.509   3.265  0.00  0.00    +0.189 C 
ATOM     12  C   UNL     1     -34.340  26.052   4.344  0.00  0.00    +0.319 C 
ATOM     13  C   UNL     1     -37.072  27.486   1.334  0.00  0.00    +0.243 C 
ATOM     14  C   UNL     1     -38.265  26.624   1.703  0.00  0.00    +0.176 C 
ATOM     15  C   UNL     1     -37.146  24.450   2.138  0.00  0.00    +0.244 C 
ATOM     16  C   UNL     1     -35.316  23.245   5.385  0.00  0.00    +0.050 C 
ATOM     17  H   UNL     1     -36.427  27.361   3.270  0.00  0.00    +0.150 HD
ATOM     18  H   UNL     1     -38.076  25.618   3.549  0.00  0.00    +0.150 HD
ENDROOT
BRANCH  11  20
ATOM     19  O   UNL     1     -37.838  21.093   2.196  0.00  0.00    -0.270 OA
ATOM     20  N   UNL     1     -35.992  22.424   2.646  0.00  0.00    -0.292 N 
ATOM     21  C   UNL     1     -36.627  21.291   2.157  0.00  0.00    +0.246 C 
ATOM     22  H   UNL     1     -35.013  22.489   2.568  0.00  0.00    +0.150 HD
BRANCH  21  23
ATOM     23  C   UNL     1     -35.740  20.253   1.573  0.00  0.00    +0.054 C 
ATOM     24  C   UNL     1     -34.438  20.099   2.049  0.00  0.00    +0.008 C 
ATOM     25  C   UNL     1     -36.208  19.432   0.546  0.00  0.00    +0.008 C 
ATOM     26  C   UNL     1     -33.605  19.125   1.500  0.00  0.00    +0.037 C 
ATOM     27  C   UNL     1     -35.375  18.458  -0.003  0.00  0.00    +0.037 C 
ATOM     28  C   UNL     1     -34.073  18.305   0.473  0.00  0.00    +0.139 C 
BRANCH  28  29
ATOM     29  O   UNL     1     -33.260  17.353  -0.062  0.00  0.00    -0.471 OA
ATOM     30  C   UNL     1     -33.851  16.092  -0.368  0.00  0.00    +0.252 C 
ENDBRANCH  28  29
ENDBRANCH  21  23
ENDBRANCH  11  20
BRANCH   8  31
ATOM     31  O   UNL     1     -32.601  27.849   1.540  0.00  0.00    -0.382 OA
ATOM     32  H   UNL     1     -32.691  27.775   0.577  0.00  0.00    +0.210 HD
ENDBRANCH   8  31
BRANCH   7  33
ATOM     33  C   UNL     1     -34.685  29.420   3.255  0.00  0.00    +0.048 C 
BRANCH  33  34
ATOM     34  C   UNL     1     -34.751  30.789   2.641  0.00  0.00    -0.020 C 
ATOM     35  C   UNL     1     -35.941  31.240   2.070  0.00  0.00    -0.001 C 
ATOM     36  C   UNL     1     -33.623  31.609   2.642  0.00  0.00    -0.001 C 
ATOM     37  C   UNL     1     -36.003  32.512   1.499  0.00  0.00    +0.036 C 
ATOM     38  C   UNL     1     -33.685  32.880   2.072  0.00  0.00    +0.036 C 
ATOM     39  C   UNL     1     -34.875  33.332   1.500  0.00  0.00    +0.134 C 
BRANCH  39  40
ATOM     40  O   UNL     1     -34.935  34.573   0.945  0.00  0.00    -0.506 OA
ATOM     41  H   UNL     1     -34.145  35.020   0.712  0.00  0.00    +0.292 HD
ENDBRANCH  39  40
ENDBRANCH  33  34
ENDBRANCH   7  33
TORSDOF 7
ENDMDL
MODEL 2
REMARK VINA RESULT:      -6.9      1.299      1.723
REMARK  Name = 50901467
REMARK  7 active torsions:
REMARK  status: ('A' for Active; 'I' for Inactive)
REMARK    1  A    between atoms: C_7  and  C_33
REMARK    2  A    between atoms: C_8  and  O_31
REMARK    3  A    between atoms: C_11  and  N_20
REMARK    4  A    between atoms: C_21  and  C_23
REMARK    5  A    between atoms: C_28  and  O_29
REMARK    6  A    between atoms: C_33  and  C_34
REMARK    7  A    between atoms: C_39  and  O_40
REMARK                            x       y       z     vdW  Elec       q    Type
REMARK                         _______ _______ _______ _____ _____    ______ ____
ROOT
ATOM      1  O   UNL     1     -34.412  25.550   3.293  0.00  0.00    -0.450 OA
ATOM      2  O   UNL     1     -34.705  27.066   5.010  0.00  0.00    -0.250 OA
ATOM      3  O   UNL     1     -37.187  28.157  -0.202  0.00  0.00    -0.273 OA
ATOM      4  O   UNL     1     -36.276  24.465   0.489  0.00  0.00    -0.273 OA
ATOM      5  N   UNL     1     -36.331  27.961   1.946  0.00  0.00    -0.302 N 
ATOM      6  N   UNL     1     -37.522  25.531   2.123  0.00  0.00    -0.295 N 
ATOM      7  C   UNL     1     -35.198  28.872   1.807  0.00  0.00    +0.103 C 
ATOM      8  C   UNL     1     -33.870  28.078   1.781  0.00  0.00    +0.140 C 
ATOM      9  C   UNL     1     -33.308  27.632   3.135  0.00  0.00    +0.140 C 
ATOM     10  C   UNL     1     -35.337  24.619   3.902  0.00  0.00    +0.196 C 
ATOM     11  C   UNL     1     -35.986  23.763   2.797  0.00  0.00    +0.189 C 
ATOM     12  C   UNL     1     -34.220  26.738   3.933  0.00  0.00    +0.319 C 
ATOM     13  C   UNL     1     -37.151  27.595   0.892  0.00  0.00    +0.243 C 
ATOM     14  C   UNL     1     -38.140  26.496   1.235  0.00  0.00    +0.176 C 
ATOM     15  C   UNL     1     -36.592  24.603   1.671  0.00  0.00    +0.244 C 
ATOM     16  C   UNL     1     -34.594  23.777   4.937  0.00  0.00    +0.050 C 
ATOM     17  H   UNL     1     -36.522  27.589   2.837  0.00  0.00    +0.150 HD
ATOM     18  H   UNL     1     -37.768  25.533   3.076  0.00  0.00    +0.150 HD
ENDROOT
BRANCH  11  20
ATOM     19  O   UNL     1     -36.397  20.980   2.226  0.00  0.00    -0.270 OA
ATOM     20  N   UNL     1     -35.043  22.862   2.181  0.00  0.00    -0.292 N 
ATOM     21  C   UNL     1     -35.334  21.527   1.945  0.00  0.00    +0.246 C 
ATOM     22  H   UNL     1     -34.159  23.208   1.919  0.00  0.00    +0.150 HD
BRANCH  21  23
ATOM     23  C   UNL     1     -34.246  20.725   1.328  0.00  0.00    +0.054 C 
ATOM     24  C   UNL     1     -34.028  19.410   1.741  0.00  0.00    +0.008 C 
ATOM     25  C   UNL     1     -33.442  21.287   0.336  0.00  0.00    +0.008 C 
ATOM     26  C   UNL     1     -33.006  18.658   1.163  0.00  0.00    +0.037 C 
ATOM     27  C   UNL     1     -32.420  20.534  -0.243  0.00  0.00    +0.037 C 
ATOM     28  C   UNL     1     -32.202  19.220   0.171  0.00  0.00    +0.139 C 
BRANCH  28  29
ATOM     29  O   UNL     1     -31.205  18.486  -0.394  0.00  0.00    -0.471 OA
ATOM     30  C   UNL     1     -29.955  18.450   0.294  0.00  0.00    +0.252 C 
ENDBRANCH  28  29
ENDBRANCH  21  23
ENDBRANCH  11  20
BRANCH   8  31
ATOM     31  O   UNL     1     -32.862  28.894   1.172  0.00  0.00    -0.382 OA
ATOM     32  H   UNL     1     -33.274  29.483   0.520  0.00  0.00    +0.210 HD
ENDBRANCH   8  31
BRANCH   7  33
ATOM     33  C   UNL     1     -35.256  29.969   2.866  0.00  0.00    +0.048 C 
BRANCH  33  34
ATOM     34  C   UNL     1     -35.435  31.325   2.244  0.00  0.00    -0.020 C 
ATOM     35  C   UNL     1     -34.332  32.159   2.058  0.00  0.00    -0.001 C 
ATOM     36  C   UNL     1     -36.705  31.749   1.853  0.00  0.00    -0.001 C 
ATOM     37  C   UNL     1     -34.499  33.417   1.481  0.00  0.00    +0.036 C 
ATOM     38  C   UNL     1     -36.872  33.008   1.276  0.00  0.00    +0.036 C 
ATOM     39  C   UNL     1     -35.769  33.843   1.090  0.00  0.00    +0.134 C 
BRANCH  39  40
ATOM     40  O   UNL     1     -35.932  35.070   0.526  0.00  0.00    -0.506 OA
ATOM     41  H   UNL     1     -35.902  35.164  -0.406  0.00  0.00    +0.292 HD
ENDBRANCH  39  40
ENDBRANCH  33  34
ENDBRANCH   7  33
TORSDOF 7
ENDMDL
MODEL 3
REMARK VINA RESULT:      -6.9      8.567     10.575
REMARK  Name = 50901467
REMARK  7 active torsions:
REMARK  status: ('A' for Active; 'I' for Inactive)
REMARK    1  A    between atoms: C_7  and  C_33
REMARK    2  A    between atoms: C_8  and  O_31
REMARK    3  A    between atoms: C_11  and  N_20
REMARK    4  A    between atoms: C_21  and  C_23
REMARK    5  A    between atoms: C_28  and  O_29
REMARK    6  A    between atoms: C_33  and  C_34
REMARK    7  A    between atoms: C_39  and  O_40
REMARK                            x       y       z     vdW  Elec       q    Type
REMARK                         _______ _______ _______ _____ _____    ______ ____
ROOT
ATOM      1  O   UNL     1     -44.858  27.313   4.502  0.00  0.00    -0.450 OA
ATOM      2  O   UNL     1     -47.125  27.468   4.912  0.00  0.00    -0.250 OA
ATOM      3  O   UNL     1     -43.979  32.405   4.425  0.00  0.00    -0.273 OA
ATOM      4  O   UNL     1     -42.421  29.252   2.824  0.00  0.00    -0.273 OA
ATOM      5  N   UNL     1     -45.446  30.621   4.647  0.00  0.00    -0.302 N 
ATOM      6  N   UNL     1     -44.607  29.723   2.228  0.00  0.00    -0.295 N 
ATOM      7  C   UNL     1     -45.541  30.603   6.104  0.00  0.00    +0.103 C 
ATOM      8  C   UNL     1     -44.800  29.371   6.676  0.00  0.00    +0.140 C 
ATOM      9  C   UNL     1     -45.552  28.038   6.640  0.00  0.00    +0.140 C 
ATOM     10  C   UNL     1     -45.090  26.942   3.123  0.00  0.00    +0.196 C 
ATOM     11  C   UNL     1     -43.888  27.395   2.272  0.00  0.00    +0.189 C 
ATOM     12  C   UNL     1     -45.957  27.578   5.264  0.00  0.00    +0.319 C 
ATOM     13  C   UNL     1     -44.579  31.444   3.947  0.00  0.00    +0.243 C 
ATOM     14  C   UNL     1     -44.521  31.152   2.459  0.00  0.00    +0.176 C 
ATOM     15  C   UNL     1     -43.538  28.871   2.474  0.00  0.00    +0.244 C 
ATOM     16  C   UNL     1     -45.333  25.436   3.042  0.00  0.00    +0.050 C 
ATOM     17  H   UNL     1     -46.030  30.016   4.135  0.00  0.00    +0.150 HD
ATOM     18  H   UNL     1     -45.450  29.344   1.887  0.00  0.00    +0.150 HD
ENDROOT
BRANCH  11  20
ATOM     19  O   UNL     1     -42.162  26.099   0.379  0.00  0.00    -0.270 OA
ATOM     20  N   UNL     1     -42.695  26.641   2.571  0.00  0.00    -0.292 N 
ATOM     21  C   UNL     1     -41.923  26.049   1.582  0.00  0.00    +0.246 C 
ATOM     22  H   UNL     1     -42.419  26.542   3.510  0.00  0.00    +0.150 HD
BRANCH  21  23
ATOM     23  C   UNL     1     -40.740  25.284   2.055  0.00  0.00    +0.054 C 
ATOM     24  C   UNL     1     -40.539  23.972   1.624  0.00  0.00    +0.008 C 
ATOM     25  C   UNL     1     -39.830  25.876   2.931  0.00  0.00    +0.008 C 
ATOM     26  C   UNL     1     -39.430  23.254   2.069  0.00  0.00    +0.037 C 
ATOM     27  C   UNL     1     -38.720  25.158   3.375  0.00  0.00    +0.037 C 
ATOM     28  C   UNL     1     -38.521  23.847   2.945  0.00  0.00    +0.139 C 
BRANCH  28  29
ATOM     29  O   UNL     1     -37.438  23.146   3.378  0.00  0.00    -0.471 OA
ATOM     30  C   UNL     1     -36.406  23.883   4.031  0.00  0.00    +0.252 C 
ENDBRANCH  28  29
ENDBRANCH  21  23
ENDBRANCH  11  20
BRANCH   8  31
ATOM     31  O   UNL     1     -44.488  29.625   8.051  0.00  0.00    -0.382 OA
ATOM     32  H   UNL     1     -45.303  29.606   8.576  0.00  0.00    +0.210 HD
ENDBRANCH   8  31
BRANCH   7  33
ATOM     33  C   UNL     1     -46.995  30.727   6.550  0.00  0.00    +0.048 C 
BRANCH  33  34
ATOM     34  C   UNL     1     -47.373  32.159   6.803  0.00  0.00    -0.020 C 
ATOM     35  C   UNL     1     -47.135  33.126   5.826  0.00  0.00    -0.001 C 
ATOM     36  C   UNL     1     -47.962  32.521   8.014  0.00  0.00    -0.001 C 
ATOM     37  C   UNL     1     -47.486  34.455   6.060  0.00  0.00    +0.036 C 
ATOM     38  C   UNL     1     -48.313  33.851   8.248  0.00  0.00    +0.036 C 
ATOM     39  C   UNL     1     -48.075  34.818   7.271  0.00  0.00    +0.134 C 
BRANCH  39  40
ATOM     40  O   UNL     1     -48.418  36.115   7.500  0.00  0.00    -0.506 OA
ATOM     41  H   UNL     1     -47.755  36.747   7.697  0.00  0.00    +0.292 HD
ENDBRANCH  39  40
ENDBRANCH  33  34
ENDBRANCH   7  33
TORSDOF 7
ENDMDL
MODEL 4
REMARK VINA RESULT:      -6.8      4.227      6.345
REMARK  Name = 50901467
REMARK  7 active torsions:
REMARK  status: ('A' for Active; 'I' for Inactive)
REMARK    1  A    between atoms: C_7  and  C_33
REMARK    2  A    between atoms: C_8  and  O_31
REMARK    3  A    between atoms: C_11  and  N_20
REMARK    4  A    between atoms: C_21  and  C_23
REMARK    5  A    between atoms: C_28  and  O_29
REMARK    6  A    between atoms: C_33  and  C_34
REMARK    7  A    between atoms: C_39  and  O_40
REMARK                            x       y       z     vdW  Elec       q    Type
REMARK                         _______ _______ _______ _____ _____    ______ ____
ROOT
ATOM      1  O   UNL     1     -36.899  22.167  -0.335  0.00  0.00    -0.450 OA
ATOM      2  O   UNL     1     -38.565  23.166  -1.584  0.00  0.00    -0.250 OA
ATOM      3  O   UNL     1     -37.951  24.673   4.061  0.00  0.00    -0.273 OA
ATOM      4  O   UNL     1     -34.846  23.085   2.395  0.00  0.00    -0.273 OA
ATOM      5  N   UNL     1     -38.397  24.270   1.820  0.00  0.00    -0.302 N 
ATOM      6  N   UNL     1     -35.808  24.863   1.270  0.00  0.00    -0.295 N 
ATOM      7  C   UNL     1     -39.543  23.380   1.988  0.00  0.00    +0.103 C 
ATOM      8  C   UNL     1     -39.156  21.928   1.620  0.00  0.00    +0.140 C 
ATOM      9  C   UNL     1     -39.139  21.577   0.129  0.00  0.00    +0.140 C 
ATOM     10  C   UNL     1     -35.877  22.953  -0.991  0.00  0.00    +0.196 C 
ATOM     11  C   UNL     1     -34.688  23.133  -0.028  0.00  0.00    +0.189 C 
ATOM     12  C   UNL     1     -38.191  22.401  -0.703  0.00  0.00    +0.319 C 
ATOM     13  C   UNL     1     -37.631  24.738   2.875  0.00  0.00    +0.243 C 
ATOM     14  C   UNL     1     -36.385  25.489   2.444  0.00  0.00    +0.176 C 
ATOM     15  C   UNL     1     -35.106  23.667   1.343  0.00  0.00    +0.244 C 
ATOM     16  C   UNL     1     -35.479  22.269  -2.297  0.00  0.00    +0.050 C 
ATOM     17  H   UNL     1     -38.157  24.552   0.908  0.00  0.00    +0.150 HD
ATOM     18  H   UNL     1     -35.917  25.300   0.394  0.00  0.00    +0.150 HD
ENDROOT
BRANCH  11  20
ATOM     19  O   UNL     1     -31.958  22.558  -0.707  0.00  0.00    -0.270 OA
ATOM     20  N   UNL     1     -33.985  21.895   0.205  0.00  0.00    -0.292 N 
ATOM     21  C   UNL     1     -32.659  21.711  -0.160  0.00  0.00    +0.246 C 
ATOM     22  H   UNL     1     -34.464  21.152   0.640  0.00  0.00    +0.150 HD
BRANCH  21  23
ATOM     23  C   UNL     1     -32.088  20.370   0.125  0.00  0.00    +0.054 C 
ATOM     24  C   UNL     1     -30.806  20.048  -0.322  0.00  0.00    +0.008 C 
ATOM     25  C   UNL     1     -32.833  19.431   0.839  0.00  0.00    +0.008 C 
ATOM     26  C   UNL     1     -30.270  18.789  -0.056  0.00  0.00    +0.037 C 
ATOM     27  C   UNL     1     -32.296  18.172   1.106  0.00  0.00    +0.037 C 
ATOM     28  C   UNL     1     -31.015  17.851   0.658  0.00  0.00    +0.139 C 
BRANCH  28  29
ATOM     29  O   UNL     1     -30.492  16.621   0.919  0.00  0.00    -0.471 OA
ATOM     30  C   UNL     1     -29.157  16.377   0.477  0.00  0.00    +0.252 C 
ENDBRANCH  28  29
ENDBRANCH  21  23
ENDBRANCH  11  20
BRANCH   8  31
ATOM     31  O   UNL     1     -40.091  21.036   2.237  0.00  0.00    -0.382 OA
ATOM     32  H   UNL     1     -40.709  21.545   2.786  0.00  0.00    +0.210 HD
ENDBRANCH   8  31
BRANCH   7  33
ATOM     33  C   UNL     1     -40.757  23.918   1.236  0.00  0.00    +0.048 C 
BRANCH  33  34
ATOM     34  C   UNL     1     -41.197  25.248   1.780  0.00  0.00    -0.020 C 
ATOM     35  C   UNL     1     -41.587  26.264   0.908  0.00  0.00    -0.001 C 
ATOM     36  C   UNL     1     -41.215  25.465   3.158  0.00  0.00    -0.001 C 
ATOM     37  C   UNL     1     -41.995  27.499   1.413  0.00  0.00    +0.036 C 
ATOM     38  C   UNL     1     -41.623  26.700   3.663  0.00  0.00    +0.036 C 
ATOM     39  C   UNL     1     -42.013  27.717   2.790  0.00  0.00    +0.134 C 
BRANCH  39  40
ATOM     40  O   UNL     1     -42.412  28.920   3.284  0.00  0.00    -0.506 OA
ATOM     41  H   UNL     1     -43.067  28.957   3.954  0.00  0.00    +0.292 HD
ENDBRANCH  39  40
ENDBRANCH  33  34
ENDBRANCH   7  33
TORSDOF 7
ENDMDL
MODEL 5
REMARK VINA RESULT:      -6.8      3.988      6.105
REMARK  Name = 50901467
REMARK  7 active torsions:
REMARK  status: ('A' for Active; 'I' for Inactive)
REMARK    1  A    between atoms: C_7  and  C_33
REMARK    2  A    between atoms: C_8  and  O_31
REMARK    3  A    between atoms: C_11  and  N_20
REMARK    4  A    between atoms: C_21  and  C_23
REMARK    5  A    between atoms: C_28  and  O_29
REMARK    6  A    between atoms: C_33  and  C_34
REMARK    7  A    between atoms: C_39  and  O_40
REMARK                            x       y       z     vdW  Elec       q    Type
REMARK                         _______ _______ _______ _____ _____    ______ ____
ROOT
ATOM      1  O   UNL     1     -36.384  23.826   2.975  0.00  0.00    -0.450 OA
ATOM      2  O   UNL     1     -37.436  24.658   4.854  0.00  0.00    -0.250 OA
ATOM      3  O   UNL     1     -40.691  23.170   0.195  0.00  0.00    -0.273 OA
ATOM      4  O   UNL     1     -37.186  21.554   0.385  0.00  0.00    -0.273 OA
ATOM      5  N   UNL     1     -39.647  23.817   2.164  0.00  0.00    -0.302 N 
ATOM      6  N   UNL     1     -38.501  21.361   2.280  0.00  0.00    -0.295 N 
ATOM      7  C   UNL     1     -39.661  25.261   1.947  0.00  0.00    +0.103 C 
ATOM      8  C   UNL     1     -38.232  25.775   1.650  0.00  0.00    +0.140 C 
ATOM      9  C   UNL     1     -37.314  25.994   2.857  0.00  0.00    +0.140 C 
ATOM     10  C   UNL     1     -36.145  22.553   3.621  0.00  0.00    +0.196 C 
ATOM     11  C   UNL     1     -36.081  21.450   2.546  0.00  0.00    +0.189 C 
ATOM     12  C   UNL     1     -37.065  24.764   3.691  0.00  0.00    +0.319 C 
ATOM     13  C   UNL     1     -40.055  22.897   1.212  0.00  0.00    +0.243 C 
ATOM     14  C   UNL     1     -39.772  21.455   1.590  0.00  0.00    +0.176 C 
ATOM     15  C   UNL     1     -37.289  21.461   1.608  0.00  0.00    +0.244 C 
ATOM     16  C   UNL     1     -34.865  22.643   4.450  0.00  0.00    +0.050 C 
ATOM     17  H   UNL     1     -39.332  23.480   3.033  0.00  0.00    +0.150 HD
ATOM     18  H   UNL     1     -38.496  21.223   3.255  0.00  0.00    +0.150 HD
ENDROOT
BRANCH  11  20
ATOM     19  O   UNL     1     -34.473  19.298   1.535  0.00  0.00    -0.270 OA
ATOM     20  N   UNL     1     -34.908  21.569   1.714  0.00  0.00    -0.292 N 
ATOM     21  C   UNL     1     -34.194  20.464   1.273  0.00  0.00    +0.246 C 
ATOM     22  H   UNL     1     -34.603  22.467   1.450  0.00  0.00    +0.150 HD
BRANCH  21  23
ATOM     23  C   UNL     1     -32.995  20.756   0.446  0.00  0.00    +0.054 C 
ATOM     24  C   UNL     1     -32.899  21.967  -0.241  0.00  0.00    +0.008 C 
ATOM     25  C   UNL     1     -31.965  19.820   0.355  0.00  0.00    +0.008 C 
ATOM     26  C   UNL     1     -31.775  22.240  -1.019  0.00  0.00    +0.037 C 
ATOM     27  C   UNL     1     -30.840  20.093  -0.422  0.00  0.00    +0.037 C 
ATOM     28  C   UNL     1     -30.745  21.303  -1.110  0.00  0.00    +0.139 C 
BRANCH  28  29
ATOM     29  O   UNL     1     -29.647  21.570  -1.869  0.00  0.00    -0.471 OA
ATOM     30  C   UNL     1     -28.384  21.570  -1.206  0.00  0.00    +0.252 C 
ENDBRANCH  28  29
ENDBRANCH  21  23
ENDBRANCH  11  20
BRANCH   8  31
ATOM     31  O   UNL     1     -38.331  27.037   0.981  0.00  0.00    -0.382 OA
ATOM     32  H   UNL     1     -38.682  27.701   1.594  0.00  0.00    +0.210 HD
ENDBRANCH   8  31
BRANCH   7  33
ATOM     33  C   UNL     1     -40.358  25.972   3.104  0.00  0.00    +0.048 C 
BRANCH  33  34
ATOM     34  C   UNL     1     -41.778  26.324   2.759  0.00  0.00    -0.020 C 
ATOM     35  C   UNL     1     -42.272  26.054   1.484  0.00  0.00    -0.001 C 
ATOM     36  C   UNL     1     -42.600  26.919   3.716  0.00  0.00    -0.001 C 
ATOM     37  C   UNL     1     -43.590  26.380   1.163  0.00  0.00    +0.036 C 
ATOM     38  C   UNL     1     -43.918  27.245   3.395  0.00  0.00    +0.036 C 
ATOM     39  C   UNL     1     -44.413  26.976   2.119  0.00  0.00    +0.134 C 
BRANCH  39  40
ATOM     40  O   UNL     1     -45.699  27.293   1.808  0.00  0.00    -0.506 OA
ATOM     41  H   UNL     1     -46.345  26.617   1.740  0.00  0.00    +0.292 HD
ENDBRANCH  39  40
ENDBRANCH  33  34
ENDBRANCH   7  33
TORSDOF 7
ENDMDL
MODEL 6
REMARK VINA RESULT:      -6.7      3.748      9.946
REMARK  Name = 50901467
REMARK  7 active torsions:
REMARK  status: ('A' for Active; 'I' for Inactive)
REMARK    1  A    between atoms: C_7  and  C_33
REMARK    2  A    between atoms: C_8  and  O_31
REMARK    3  A    between atoms: C_11  and  N_20
REMARK    4  A    between atoms: C_21  and  C_23
REMARK    5  A    between atoms: C_28  and  O_29
REMARK    6  A    between atoms: C_33  and  C_34
REMARK    7  A    between atoms: C_39  and  O_40
REMARK                            x       y       z     vdW  Elec       q    Type
REMARK                         _______ _______ _______ _____ _____    ______ ____
ROOT
ATOM      1  O   UNL     1     -37.278  23.995   2.071  0.00  0.00    -0.450 OA
ATOM      2  O   UNL     1     -34.997  24.008   2.434  0.00  0.00    -0.250 OA
ATOM      3  O   UNL     1     -37.170  20.671  -1.885  0.00  0.00    -0.273 OA
ATOM      4  O   UNL     1     -39.425  23.580  -0.709  0.00  0.00    -0.273 OA
ATOM      5  N   UNL     1     -36.059  21.903  -0.264  0.00  0.00    -0.302 N 
ATOM      6  N   UNL     1     -37.245  24.135  -1.249  0.00  0.00    -0.295 N 
ATOM      7  C   UNL     1     -35.853  20.835   0.711  0.00  0.00    +0.103 C 
ATOM      8  C   UNL     1     -36.767  21.046   1.941  0.00  0.00    +0.140 C 
ATOM      9  C   UNL     1     -36.289  22.056   2.989  0.00  0.00    +0.140 C 
ATOM     10  C   UNL     1     -37.232  25.310   1.469  0.00  0.00    +0.196 C 
ATOM     11  C   UNL     1     -38.389  25.440   0.460  0.00  0.00    +0.189 C 
ATOM     12  C   UNL     1     -36.091  23.457   2.472  0.00  0.00    +0.319 C 
ATOM     13  C   UNL     1     -36.805  21.749  -1.420  0.00  0.00    +0.243 C 
ATOM     14  C   UNL     1     -37.037  23.043  -2.179  0.00  0.00    +0.176 C 
ATOM     15  C   UNL     1     -38.433  24.291  -0.548  0.00  0.00    +0.244 C 
ATOM     16  C   UNL     1     -37.288  26.367   2.570  0.00  0.00    +0.050 C 
ATOM     17  H   UNL     1     -35.644  22.779  -0.090  0.00  0.00    +0.150 HD
ATOM     18  H   UNL     1     -36.520  24.787  -1.109  0.00  0.00    +0.150 HD
ENDROOT
BRANCH  11  20
ATOM     19  O   UNL     1     -40.173  27.684   0.621  0.00  0.00    -0.270 OA
ATOM     20  N   UNL     1     -39.676  25.472   1.111  0.00  0.00    -0.292 N 
ATOM     21  C   UNL     1     -40.470  26.610   1.135  0.00  0.00    +0.246 C 
ATOM     22  H   UNL     1     -40.004  24.656   1.554  0.00  0.00    +0.150 HD
BRANCH  21  23
ATOM     23  C   UNL     1     -41.756  26.487   1.868  0.00  0.00    +0.054 C 
ATOM     24  C   UNL     1     -41.872  26.994   3.163  0.00  0.00    +0.008 C 
ATOM     25  C   UNL     1     -42.848  25.864   1.264  0.00  0.00    +0.008 C 
ATOM     26  C   UNL     1     -43.079  26.878   3.852  0.00  0.00    +0.037 C 
ATOM     27  C   UNL     1     -44.055  25.748   1.952  0.00  0.00    +0.037 C 
ATOM     28  C   UNL     1     -44.170  26.255   3.247  0.00  0.00    +0.139 C 
BRANCH  28  29
ATOM     29  O   UNL     1     -45.349  26.142   3.919  0.00  0.00    -0.471 OA
ATOM     30  C   UNL     1     -45.352  26.528   5.293  0.00  0.00    +0.252 C 
ENDBRANCH  28  29
ENDBRANCH  21  23
ENDBRANCH  11  20
BRANCH   8  31
ATOM     31  O   UNL     1     -36.914  19.794   2.620  0.00  0.00    -0.382 OA
ATOM     32  H   UNL     1     -37.850  19.541   2.633  0.00  0.00    +0.210 HD
ENDBRANCH   8  31
BRANCH   7  33
ATOM     33  C   UNL     1     -34.371  20.690   1.045  0.00  0.00    +0.048 C 
BRANCH  33  34
ATOM     34  C   UNL     1     -33.888  19.287   0.810  0.00  0.00    -0.020 C 
ATOM     35  C   UNL     1     -34.711  18.366   0.161  0.00  0.00    -0.001 C 
ATOM     36  C   UNL     1     -32.618  18.906   1.241  0.00  0.00    -0.001 C 
ATOM     37  C   UNL     1     -34.263  17.064  -0.057  0.00  0.00    +0.036 C 
ATOM     38  C   UNL     1     -32.170  17.603   1.023  0.00  0.00    +0.036 C 
ATOM     39  C   UNL     1     -32.993  16.681   0.374  0.00  0.00    +0.134 C 
BRANCH  39  40
ATOM     40  O   UNL     1     -32.555  15.411   0.161  0.00  0.00    -0.506 OA
ATOM     41  H   UNL     1     -31.854  15.252  -0.441  0.00  0.00    +0.292 HD
ENDBRANCH  39  40
ENDBRANCH  33  34
ENDBRANCH   7  33
TORSDOF 7
ENDMDL
MODEL 7
REMARK VINA RESULT:      -6.6      4.493      9.795
REMARK  Name = 50901467
REMARK  7 active torsions:
REMARK  status: ('A' for Active; 'I' for Inactive)
REMARK    1  A    between atoms: C_7  and  C_33
REMARK    2  A    between atoms: C_8  and  O_31
REMARK    3  A    between atoms: C_11  and  N_20
REMARK    4  A    between atoms: C_21  and  C_23
REMARK    5  A    between atoms: C_28  and  O_29
REMARK    6  A    between atoms: C_33  and  C_34
REMARK    7  A    between atoms: C_39  and  O_40
REMARK                            x       y       z     vdW  Elec       q    Type
REMARK                         _______ _______ _______ _____ _____    ______ ____
ROOT
ATOM      1  O   UNL     1     -38.896  25.003   1.543  0.00  0.00    -0.450 OA
ATOM      2  O   UNL     1     -36.822  25.724   0.827  0.00  0.00    -0.250 OA
ATOM      3  O   UNL     1     -38.163  20.022   0.375  0.00  0.00    -0.273 OA
ATOM      4  O   UNL     1     -41.165  22.440   0.648  0.00  0.00    -0.273 OA
ATOM      5  N   UNL     1     -37.390  22.209   0.429  0.00  0.00    -0.302 N 
ATOM      6  N   UNL     1     -39.592  22.946  -0.973  0.00  0.00    -0.295 N 
ATOM      7  C   UNL     1     -36.554  22.110   1.622  0.00  0.00    +0.103 C 
ATOM      8  C   UNL     1     -37.203  22.876   2.800  0.00  0.00    +0.140 C 
ATOM      9  C   UNL     1     -37.007  24.395   2.824  0.00  0.00    +0.140 C 
ATOM     10  C   UNL     1     -39.542  25.578   0.383  0.00  0.00    +0.196 C 
ATOM     11  C   UNL     1     -40.820  24.774   0.070  0.00  0.00    +0.189 C 
ATOM     12  C   UNL     1     -37.540  25.120   1.616  0.00  0.00    +0.319 C 
ATOM     13  C   UNL     1     -38.213  21.187  -0.015  0.00  0.00    +0.243 C 
ATOM     14  C   UNL     1     -39.126  21.587  -1.160  0.00  0.00    +0.176 C 
ATOM     15  C   UNL     1     -40.565  23.270  -0.036  0.00  0.00    +0.244 C 
ATOM     16  C   UNL     1     -39.827  27.055   0.649  0.00  0.00    +0.050 C 
ATOM     17  H   UNL     1     -37.368  23.047  -0.087  0.00  0.00    +0.150 HD
ATOM     18  H   UNL     1     -39.207  23.664  -1.527  0.00  0.00    +0.150 HD
ENDROOT
BRANCH  11  20
ATOM     19  O   UNL     1     -43.486  25.756  -0.341  0.00  0.00    -0.270 OA
ATOM     20  N   UNL     1     -41.836  24.954   1.078  0.00  0.00    -0.292 N 
ATOM     21  C   UNL     1     -43.102  25.436   0.781  0.00  0.00    +0.246 C 
ATOM     22  H   UNL     1     -41.623  24.725   2.012  0.00  0.00    +0.150 HD
BRANCH  21  23
ATOM     23  C   UNL     1     -44.025  25.588   1.935  0.00  0.00    +0.054 C 
ATOM     24  C   UNL     1     -45.199  24.836   1.993  0.00  0.00    +0.008 C 
ATOM     25  C   UNL     1     -43.720  26.484   2.960  0.00  0.00    +0.008 C 
ATOM     26  C   UNL     1     -46.067  24.979   3.075  0.00  0.00    +0.037 C 
ATOM     27  C   UNL     1     -44.587  26.627   4.043  0.00  0.00    +0.037 C 
ATOM     28  C   UNL     1     -45.761  25.875   4.100  0.00  0.00    +0.139 C 
BRANCH  28  29
ATOM     29  O   UNL     1     -46.608  26.014   5.156  0.00  0.00    -0.471 OA
ATOM     30  C   UNL     1     -46.082  26.625   6.334  0.00  0.00    +0.252 C 
ENDBRANCH  28  29
ENDBRANCH  21  23
ENDBRANCH  11  20
BRANCH   8  31
ATOM     31  O   UNL     1     -36.657  22.376   4.026  0.00  0.00    -0.382 OA
ATOM     32  H   UNL     1     -37.118  22.783   4.775  0.00  0.00    +0.210 HD
ENDBRANCH   8  31
BRANCH   7  33
ATOM     33  C   UNL     1     -35.120  22.531   1.311  0.00  0.00    +0.048 C 
BRANCH  33  34
ATOM     34  C   UNL     1     -34.236  21.339   1.077  0.00  0.00    -0.020 C 
ATOM     35  C   UNL     1     -34.509  20.131   1.718  0.00  0.00    -0.001 C 
ATOM     36  C   UNL     1     -33.142  21.442   0.218  0.00  0.00    -0.001 C 
ATOM     37  C   UNL     1     -33.688  19.025   1.500  0.00  0.00    +0.036 C 
ATOM     38  C   UNL     1     -32.320  20.336   0.000  0.00  0.00    +0.036 C 
ATOM     39  C   UNL     1     -32.593  19.127   0.642  0.00  0.00    +0.134 C 
BRANCH  39  40
ATOM     40  O   UNL     1     -31.792  18.048   0.428  0.00  0.00    -0.506 OA
ATOM     41  H   UNL     1     -31.009  18.139  -0.079  0.00  0.00    +0.292 HD
ENDBRANCH  39  40
ENDBRANCH  33  34
ENDBRANCH   7  33
TORSDOF 7
ENDMDL
MODEL 8
REMARK VINA RESULT:      -6.5      9.708     13.872
REMARK  Name = 50901467
REMARK  7 active torsions:
REMARK  status: ('A' for Active; 'I' for Inactive)
REMARK    1  A    between atoms: C_7  and  C_33
REMARK    2  A    between atoms: C_8  and  O_31
REMARK    3  A    between atoms: C_11  and  N_20
REMARK    4  A    between atoms: C_21  and  C_23
REMARK    5  A    between atoms: C_28  and  O_29
REMARK    6  A    between atoms: C_33  and  C_34
REMARK    7  A    between atoms: C_39  and  O_40
REMARK                            x       y       z     vdW  Elec       q    Type
REMARK                         _______ _______ _______ _____ _____    ______ ____
ROOT
ATOM      1  O   UNL     1     -43.436  31.372   1.792  0.00  0.00    -0.450 OA
ATOM      2  O   UNL     1     -44.987  29.801   1.115  0.00  0.00    -0.250 OA
ATOM      3  O   UNL     1     -45.159  31.766   6.649  0.00  0.00    -0.273 OA
ATOM      4  O   UNL     1     -43.341  34.043   4.110  0.00  0.00    -0.273 OA
ATOM      5  N   UNL     1     -45.319  30.840   4.527  0.00  0.00    -0.302 N 
ATOM      6  N   UNL     1     -45.469  33.353   3.519  0.00  0.00    -0.295 N 
ATOM      7  C   UNL     1     -44.667  29.562   4.803  0.00  0.00    +0.103 C 
ATOM      8  C   UNL     1     -43.272  29.514   4.135  0.00  0.00    +0.140 C 
ATOM      9  C   UNL     1     -43.235  29.178   2.642  0.00  0.00    +0.140 C 
ATOM     10  C   UNL     1     -44.113  32.419   1.057  0.00  0.00    +0.196 C 
ATOM     11  C   UNL     1     -43.847  33.770   1.749  0.00  0.00    +0.189 C 
ATOM     12  C   UNL     1     -43.999  30.131   1.760  0.00  0.00    +0.319 C 
ATOM     13  C   UNL     1     -45.397  31.873   5.447  0.00  0.00    +0.243 C 
ATOM     14  C   UNL     1     -45.948  33.166   4.874  0.00  0.00    +0.176 C 
ATOM     15  C   UNL     1     -44.165  33.746   3.245  0.00  0.00    +0.244 C 
ATOM     16  C   UNL     1     -43.642  32.399  -0.395  0.00  0.00    +0.050 C 
ATOM     17  H   UNL     1     -45.725  30.974   3.640  0.00  0.00    +0.150 HD
ATOM     18  H   UNL     1     -46.087  33.197   2.768  0.00  0.00    +0.150 HD
ENDROOT
BRANCH  11  20
ATOM     19  O   UNL     1     -42.834  35.874   0.079  0.00  0.00    -0.270 OA
ATOM     20  N   UNL     1     -42.470  34.183   1.625  0.00  0.00    -0.292 N 
ATOM     21  C   UNL     1     -42.076  35.216   0.787  0.00  0.00    +0.246 C 
ATOM     22  H   UNL     1     -41.785  33.714   2.153  0.00  0.00    +0.150 HD
BRANCH  21  23
ATOM     23  C   UNL     1     -40.619  35.502   0.751  0.00  0.00    +0.054 C 
ATOM     24  C   UNL     1     -39.946  35.547  -0.471  0.00  0.00    +0.008 C 
ATOM     25  C   UNL     1     -39.922  35.724   1.938  0.00  0.00    +0.008 C 
ATOM     26  C   UNL     1     -38.578  35.813  -0.505  0.00  0.00    +0.037 C 
ATOM     27  C   UNL     1     -38.553  35.991   1.905  0.00  0.00    +0.037 C 
ATOM     28  C   UNL     1     -37.881  36.035   0.683  0.00  0.00    +0.139 C 
BRANCH  28  29
ATOM     29  O   UNL     1     -36.546  36.296   0.650  0.00  0.00    -0.471 OA
ATOM     30  C   UNL     1     -36.153  37.633   0.342  0.00  0.00    +0.252 C 
ENDBRANCH  28  29
ENDBRANCH  21  23
ENDBRANCH  11  20
BRANCH   8  31
ATOM     31  O   UNL     1     -42.484  28.518   4.796  0.00  0.00    -0.382 OA
ATOM     32  H   UNL     1     -42.177  28.862   5.649  0.00  0.00    +0.210 HD
ENDBRANCH   8  31
BRANCH   7  33
ATOM     33  C   UNL     1     -45.584  28.400   4.432  0.00  0.00    +0.048 C 
BRANCH  33  34
ATOM     34  C   UNL     1     -46.001  27.619   5.646  0.00  0.00    -0.020 C 
ATOM     35  C   UNL     1     -46.756  26.455   5.501  0.00  0.00    -0.001 C 
ATOM     36  C   UNL     1     -45.634  28.059   6.917  0.00  0.00    -0.001 C 
ATOM     37  C   UNL     1     -47.143  25.730   6.628  0.00  0.00    +0.036 C 
ATOM     38  C   UNL     1     -46.021  27.334   8.044  0.00  0.00    +0.036 C 
ATOM     39  C   UNL     1     -46.776  26.170   7.900  0.00  0.00    +0.134 C 
BRANCH  39  40
ATOM     40  O   UNL     1     -47.153  25.463   9.000  0.00  0.00    -0.506 OA
ATOM     41  H   UNL     1     -48.048  25.472   9.278  0.00  0.00    +0.292 HD
ENDBRANCH  39  40
ENDBRANCH  33  34
ENDBRANCH   7  33
TORSDOF 7
ENDMDL
MODEL 9
REMARK VINA RESULT:      -6.5      2.347     10.187
REMARK  Name = 50901467
REMARK  7 active torsions:
REMARK  status: ('A' for Active; 'I' for Inactive)
REMARK    1  A    between atoms: C_7  and  C_33
REMARK    2  A    between atoms: C_8  and  O_31
REMARK    3  A    between atoms: C_11  and  N_20
REMARK    4  A    between atoms: C_21  and  C_23
REMARK    5  A    between atoms: C_28  and  O_29
REMARK    6  A    between atoms: C_33  and  C_34
REMARK    7  A    between atoms: C_39  and  O_40
REMARK                            x       y       z     vdW  Elec       q    Type
REMARK                         _______ _______ _______ _____ _____    ______ ____
ROOT
ATOM      1  O   UNL     1     -33.991  27.366   4.412  0.00  0.00    -0.450 OA
ATOM      2  O   UNL     1     -34.074  25.526   5.804  0.00  0.00    -0.250 OA
ATOM      3  O   UNL     1     -35.143  24.808   0.072  0.00  0.00    -0.273 OA
ATOM      4  O   UNL     1     -33.160  27.983   1.029  0.00  0.00    -0.273 OA
ATOM      5  N   UNL     1     -34.751  24.813   2.359  0.00  0.00    -0.302 N 
ATOM      6  N   UNL     1     -32.353  25.985   1.873  0.00  0.00    -0.295 N 
ATOM      7  C   UNL     1     -36.138  24.779   2.813  0.00  0.00    +0.103 C 
ATOM      8  C   UNL     1     -36.539  26.145   3.420  0.00  0.00    +0.140 C 
ATOM      9  C   UNL     1     -36.104  26.412   4.864  0.00  0.00    +0.140 C 
ATOM     10  C   UNL     1     -32.545  27.396   4.469  0.00  0.00    +0.196 C 
ATOM     11  C   UNL     1     -32.006  28.020   3.167  0.00  0.00    +0.189 C 
ATOM     12  C   UNL     1     -34.615  26.364   5.093  0.00  0.00    +0.319 C 
ATOM     13  C   UNL     1     -34.384  24.946   1.030  0.00  0.00    +0.243 C 
ATOM     14  C   UNL     1     -32.894  25.148   0.820  0.00  0.00    +0.176 C 
ATOM     15  C   UNL     1     -32.570  27.356   1.910  0.00  0.00    +0.244 C 
ATOM     16  C   UNL     1     -32.108  28.164   5.715  0.00  0.00    +0.050 C 
ATOM     17  H   UNL     1     -34.038  24.737   3.034  0.00  0.00    +0.150 HD
ATOM     18  H   UNL     1     -31.814  25.568   2.584  0.00  0.00    +0.150 HD
ENDROOT
BRANCH  11  20
ATOM     19  O   UNL     1     -30.191  30.125   2.447  0.00  0.00    -0.270 OA
ATOM     20  N   UNL     1     -32.314  29.426   3.068  0.00  0.00    -0.292 N 
ATOM     21  C   UNL     1     -31.364  30.372   2.711  0.00  0.00    +0.246 C 
ATOM     22  H   UNL     1     -33.231  29.725   3.262  0.00  0.00    +0.150 HD
BRANCH  21  23
ATOM     23  C   UNL     1     -31.833  31.781   2.681  0.00  0.00    +0.054 C 
ATOM     24  C   UNL     1     -33.094  32.086   2.165  0.00  0.00    +0.008 C 
ATOM     25  C   UNL     1     -31.014  32.801   3.165  0.00  0.00    +0.008 C 
ATOM     26  C   UNL     1     -33.534  33.409   2.135  0.00  0.00    +0.037 C 
ATOM     27  C   UNL     1     -31.454  34.123   3.136  0.00  0.00    +0.037 C 
ATOM     28  C   UNL     1     -32.714  34.428   2.620  0.00  0.00    +0.139 C 
BRANCH  28  29
ATOM     29  O   UNL     1     -33.144  35.719   2.591  0.00  0.00    -0.471 OA
ATOM     30  C   UNL     1     -32.569  36.573   1.604  0.00  0.00    +0.252 C 
ENDBRANCH  28  29
ENDBRANCH  21  23
ENDBRANCH  11  20
BRANCH   8  31
ATOM     31  O   UNL     1     -37.968  26.251   3.400  0.00  0.00    -0.382 OA
ATOM     32  H   UNL     1     -38.307  26.215   4.308  0.00  0.00    +0.210 HD
ENDBRANCH   8  31
BRANCH   7  33
ATOM     33  C   UNL     1     -36.374  23.587   3.736  0.00  0.00    +0.048 C 
BRANCH  33  34
ATOM     34  C   UNL     1     -36.477  22.304   2.961  0.00  0.00    -0.020 C 
ATOM     35  C   UNL     1     -35.429  21.384   2.992  0.00  0.00    -0.001 C 
ATOM     36  C   UNL     1     -37.622  22.033   2.212  0.00  0.00    -0.001 C 
ATOM     37  C   UNL     1     -35.525  20.193   2.272  0.00  0.00    +0.036 C 
ATOM     38  C   UNL     1     -37.718  20.841   1.493  0.00  0.00    +0.036 C 
ATOM     39  C   UNL     1     -36.669  19.921   1.523  0.00  0.00    +0.134 C 
BRANCH  39  40
ATOM     40  O   UNL     1     -36.765  18.759   0.822  0.00  0.00    -0.506 OA
ATOM     41  H   UNL     1     -36.471  17.955   1.205  0.00  0.00    +0.292 HD
ENDBRANCH  39  40
ENDBRANCH  33  34
ENDBRANCH   7  33
TORSDOF 7
ENDMDL
