MODEL 1
REMARK VINA RESULT:      -6.4      0.000      0.000
REMARK  Name = 57506221
REMARK  9 active torsions:
REMARK  status: ('A' for Active; 'I' for Inactive)
REMARK    1  A    between atoms: N_1  and  C_33
REMARK    2  A    between atoms: C_6  and  O_21
REMARK    3  A    between atoms: C_8  and  O_23
REMARK    4  A    between atoms: C_9  and  O_25
REMARK    5  A    between atoms: C_10  and  C_35
REMARK    6  A    between atoms: C_11  and  O_27
REMARK    7  A    between atoms: C_14  and  O_29
REMARK    8  A    between atoms: C_18  and  O_31
REMARK    9  A    between atoms: C_35  and  O_36
REMARK                            x       y       z     vdW  Elec       q    Type
REMARK                         _______ _______ _______ _____ _____    ______ ____
ROOT
ATOM      1  N   UNL     1     -37.573  24.812   1.953  0.00  0.00    +0.390 N 
ATOM      2  C   UNL     1     -35.336  23.796   1.706  0.00  0.00    +0.013 C 
ATOM      3  C   UNL     1     -35.241  23.904   3.281  0.00  0.00    +0.030 C 
ATOM      4  C   UNL     1     -36.867  23.560   1.606  0.00  0.00    -0.026 C 
ATOM      5  C   UNL     1     -34.568  22.538   1.128  0.00  0.00    +0.005 C 
ATOM      6  C   UNL     1     -37.002  22.340   2.588  0.00  0.00    +0.119 C 
ATOM      7  C   UNL     1     -34.939  21.150   1.687  0.00  0.00    +0.054 C 
ATOM      8  C   UNL     1     -36.455  21.024   1.947  0.00  0.00    +0.115 C 
ATOM      9  C   UNL     1     -36.180  22.791   3.827  0.00  0.00    +0.140 C 
ATOM     10  C   UNL     1     -35.822  25.285   3.730  0.00  0.00    +0.011 C 
ATOM     11  C   UNL     1     -34.757  25.071   0.990  0.00  0.00    +0.113 C 
ATOM     12  C   UNL     1     -34.676  22.327  -0.407  0.00  0.00    +0.005 C 
ATOM     13  C   UNL     1     -35.051  20.854  -0.627  0.00  0.00    +0.055 C 
ATOM     14  C   UNL     1     -34.444  20.193   0.599  0.00  0.00    +0.120 C 
ATOM     15  C   UNL     1     -37.266  20.552   0.707  0.00  0.00    +0.059 C 
ATOM     16  C   UNL     1     -37.322  25.359   3.296  0.00  0.00    -0.075 C 
ATOM     17  C   UNL     1     -34.993  26.420   3.099  0.00  0.00    +0.003 C 
ATOM     18  C   UNL     1     -36.583  20.692  -0.664  0.00  0.00    +0.120 C 
ATOM     19  C   UNL     1     -35.071  26.432   1.593  0.00  0.00    +0.029 C 
ATOM     20  H   UNL     1     -37.123  25.480   1.327  0.00  0.00    -0.080 HD
ENDROOT
BRANCH   6  21
ATOM     21  O   UNL     1     -38.363  22.136   2.949  0.00  0.00    -0.384 OA
ATOM     22  H   UNL     1     -38.919  22.795   2.505  0.00  0.00    +0.210 HD
ENDBRANCH   6  21
BRANCH   8  23
ATOM     23  O   UNL     1     -36.606  19.965   2.919  0.00  0.00    -0.384 OA
ATOM     24  H   UNL     1     -36.321  19.125   2.528  0.00  0.00    +0.210 HD
ENDBRANCH   8  23
BRANCH   9  25
ATOM     25  O   UNL     1     -35.422  21.786   4.478  0.00  0.00    -0.351 OA
ATOM     26  C   UNL     1     -35.482  21.915   5.894  0.00  0.00    +0.174 C 
ENDBRANCH   9  25
BRANCH  11  27
ATOM     27  O   UNL     1     -35.141  25.152  -0.380  0.00  0.00    -0.354 OA
ATOM     28  C   UNL     1     -35.682  26.426  -0.690  0.00  0.00    +0.174 C 
ENDBRANCH  11  27
BRANCH  14  29
ATOM     29  O   UNL     1     -34.859  18.855   0.773  0.00  0.00    -0.353 OA
ATOM     30  C   UNL     1     -33.934  17.934   0.204  0.00  0.00    +0.174 C 
ENDBRANCH  14  29
BRANCH  18  31
ATOM     31  O   UNL     1     -36.904  19.535  -1.445  0.00  0.00    -0.353 OA
ATOM     32  C   UNL     1     -37.960  18.797  -0.855  0.00  0.00    +0.174 C 
ENDBRANCH  18  31
BRANCH   1  33
ATOM     33  C   UNL     1     -38.992  24.805   1.622  0.00  0.00    -0.077 C 
ATOM     34  C   UNL     1     -39.823  25.385   2.753  0.00  0.00    -0.025 C 
ENDBRANCH   1  33
BRANCH  10  35
ATOM     35  C   UNL     1     -35.713  25.473   5.260  0.00  0.00    +0.135 C 
BRANCH  35  36
ATOM     36  O   UNL     1     -36.546  26.553   5.620  0.00  0.00    -0.382 OA
ATOM     37  H   UNL     1     -37.363  26.212   6.016  0.00  0.00    +0.210 HD
ENDBRANCH  35  36
ENDBRANCH  10  35
TORSDOF 9
ENDMDL
MODEL 2
REMARK VINA RESULT:      -5.8      2.136      6.050
REMARK  Name = 57506221
REMARK  9 active torsions:
REMARK  status: ('A' for Active; 'I' for Inactive)
REMARK    1  A    between atoms: N_1  and  C_33
REMARK    2  A    between atoms: C_6  and  O_21
REMARK    3  A    between atoms: C_8  and  O_23
REMARK    4  A    between atoms: C_9  and  O_25
REMARK    5  A    between atoms: C_10  and  C_35
REMARK    6  A    between atoms: C_11  and  O_27
REMARK    7  A    between atoms: C_14  and  O_29
REMARK    8  A    between atoms: C_18  and  O_31
REMARK    9  A    between atoms: C_35  and  O_36
REMARK                            x       y       z     vdW  Elec       q    Type
REMARK                         _______ _______ _______ _____ _____    ______ ____
ROOT
ATOM      1  N   UNL     1     -36.271  21.942   2.121  0.00  0.00    +0.390 N 
ATOM      2  C   UNL     1     -36.548  24.165   1.081  0.00  0.00    +0.013 C 
ATOM      3  C   UNL     1     -38.060  24.057   1.531  0.00  0.00    +0.030 C 
ATOM      4  C   UNL     1     -35.925  23.373   2.262  0.00  0.00    -0.026 C 
ATOM      5  C   UNL     1     -36.006  25.652   1.097  0.00  0.00    +0.005 C 
ATOM      6  C   UNL     1     -36.551  24.169   3.464  0.00  0.00    +0.119 C 
ATOM      7  C   UNL     1     -36.133  26.449   2.411  0.00  0.00    +0.054 C 
ATOM      8  C   UNL     1     -35.869  25.564   3.646  0.00  0.00    +0.115 C 
ATOM      9  C   UNL     1     -38.050  24.282   3.070  0.00  0.00    +0.140 C 
ATOM     10  C   UNL     1     -38.567  22.602   1.261  0.00  0.00    +0.011 C 
ATOM     11  C   UNL     1     -36.320  23.596  -0.366  0.00  0.00    +0.113 C 
ATOM     12  C   UNL     1     -34.506  25.828   0.735  0.00  0.00    +0.005 C 
ATOM     13  C   UNL     1     -33.892  26.731   1.815  0.00  0.00    +0.055 C 
ATOM     14  C   UNL     1     -35.091  27.560   2.246  0.00  0.00    +0.120 C 
ATOM     15  C   UNL     1     -34.369  25.475   4.044  0.00  0.00    +0.059 C 
ATOM     16  C   UNL     1     -37.704  21.610   2.107  0.00  0.00    -0.075 C 
ATOM     17  C   UNL     1     -38.468  22.295  -0.246  0.00  0.00    +0.003 C 
ATOM     18  C   UNL     1     -33.341  25.879   2.974  0.00  0.00    +0.120 C 
ATOM     19  C   UNL     1     -37.049  22.318  -0.755  0.00  0.00    +0.029 C 
ATOM     20  H   UNL     1     -35.964  21.752   1.167  0.00  0.00    -0.080 HD
ENDROOT
BRANCH   6  21
ATOM     21  O   UNL     1     -36.415  23.437   4.675  0.00  0.00    -0.384 OA
ATOM     22  H   UNL     1     -37.121  23.693   5.290  0.00  0.00    +0.210 HD
ENDBRANCH   6  21
BRANCH   8  23
ATOM     23  O   UNL     1     -36.514  26.227   4.757  0.00  0.00    -0.384 OA
ATOM     24  H   UNL     1     -37.160  26.867   4.419  0.00  0.00    +0.210 HD
ENDBRANCH   8  23
BRANCH   9  25
ATOM     25  O   UNL     1     -38.695  25.502   3.391  0.00  0.00    -0.351 OA
ATOM     26  C   UNL     1     -39.676  25.850   2.421  0.00  0.00    +0.174 C 
ENDBRANCH   9  25
BRANCH  11  27
ATOM     27  O   UNL     1     -34.943  23.363  -0.653  0.00  0.00    -0.354 OA
ATOM     28  C   UNL     1     -34.733  22.049  -1.146  0.00  0.00    +0.174 C 
ENDBRANCH  11  27
BRANCH  14  29
ATOM     29  O   UNL     1     -34.856  28.311   3.417  0.00  0.00    -0.353 OA
ATOM     30  C   UNL     1     -34.276  29.580   3.127  0.00  0.00    +0.174 C 
ENDBRANCH  14  29
BRANCH  18  31
ATOM     31  O   UNL     1     -32.286  26.604   3.617  0.00  0.00    -0.353 OA
ATOM     32  C   UNL     1     -31.402  27.172   2.665  0.00  0.00    +0.174 C 
ENDBRANCH  18  31
BRANCH   1  33
ATOM     33  C   UNL     1     -35.512  21.059   2.998  0.00  0.00    -0.077 C 
ATOM     34  C   UNL     1     -34.682  20.071   2.196  0.00  0.00    -0.025 C 
ENDBRANCH   1  33
BRANCH  10  35
ATOM     35  C   UNL     1     -40.058  22.444   1.635  0.00  0.00    +0.135 C 
BRANCH  35  36
ATOM     36  O   UNL     1     -40.285  21.084   1.930  0.00  0.00    -0.382 OA
ATOM     37  H   UNL     1     -39.972  20.537   1.192  0.00  0.00    +0.210 HD
ENDBRANCH  35  36
ENDBRANCH  10  35
TORSDOF 9
ENDMDL
MODEL 3
REMARK VINA RESULT:      -5.8      2.210      6.016
REMARK  Name = 57506221
REMARK  9 active torsions:
REMARK  status: ('A' for Active; 'I' for Inactive)
REMARK    1  A    between atoms: N_1  and  C_33
REMARK    2  A    between atoms: C_6  and  O_21
REMARK    3  A    between atoms: C_8  and  O_23
REMARK    4  A    between atoms: C_9  and  O_25
REMARK    5  A    between atoms: C_10  and  C_35
REMARK    6  A    between atoms: C_11  and  O_27
REMARK    7  A    between atoms: C_14  and  O_29
REMARK    8  A    between atoms: C_18  and  O_31
REMARK    9  A    between atoms: C_35  and  O_36
REMARK                            x       y       z     vdW  Elec       q    Type
REMARK                         _______ _______ _______ _____ _____    ______ ____
ROOT
ATOM      1  N   UNL     1     -35.982  22.967   0.450  0.00  0.00    +0.390 N 
ATOM      2  C   UNL     1     -38.020  22.693   1.818  0.00  0.00    +0.013 C 
ATOM      3  C   UNL     1     -37.033  22.453   3.029  0.00  0.00    +0.030 C 
ATOM      4  C   UNL     1     -37.135  23.692   1.025  0.00  0.00    -0.026 C 
ATOM      5  C   UNL     1     -39.365  23.406   2.251  0.00  0.00    +0.005 C 
ATOM      6  C   UNL     1     -36.855  24.742   2.161  0.00  0.00    +0.119 C 
ATOM      7  C   UNL     1     -39.257  24.748   3.003  0.00  0.00    +0.054 C 
ATOM      8  C   UNL     1     -38.112  25.623   2.452  0.00  0.00    +0.115 C 
ATOM      9  C   UNL     1     -36.451  23.855   3.370  0.00  0.00    +0.140 C 
ATOM     10  C   UNL     1     -35.853  21.546   2.550  0.00  0.00    +0.011 C 
ATOM     11  C   UNL     1     -38.410  21.351   1.097  0.00  0.00    +0.113 C 
ATOM     12  C   UNL     1     -40.354  23.739   1.101  0.00  0.00    +0.005 C 
ATOM     13  C   UNL     1     -40.775  25.204   1.288  0.00  0.00    +0.055 C 
ATOM     14  C   UNL     1     -40.638  25.377   2.791  0.00  0.00    +0.120 C 
ATOM     15  C   UNL     1     -38.532  26.522   1.256  0.00  0.00    +0.059 C 
ATOM     16  C   UNL     1     -35.091  22.286   1.402  0.00  0.00    -0.075 C 
ATOM     17  C   UNL     1     -36.407  20.188   2.078  0.00  0.00    +0.003 C 
ATOM     18  C   UNL     1     -39.824  26.137   0.516  0.00  0.00    +0.120 C 
ATOM     19  C   UNL     1     -37.318  20.313   0.883  0.00  0.00    +0.029 C 
ATOM     20  H   UNL     1     -36.447  22.204  -0.042  0.00  0.00    -0.080 HD
ENDROOT
BRANCH   6  21
ATOM     21  O   UNL     1     -35.777  25.597   1.798  0.00  0.00    -0.384 OA
ATOM     22  H   UNL     1     -35.528  25.431   0.875  0.00  0.00    +0.210 HD
ENDBRANCH   6  21
BRANCH   8  23
ATOM     23  O   UNL     1     -37.769  26.543   3.512  0.00  0.00    -0.384 OA
ATOM     24  H   UNL     1     -38.289  27.356   3.415  0.00  0.00    +0.210 HD
ENDBRANCH   8  23
BRANCH   9  25
ATOM     25  O   UNL     1     -36.908  24.279   4.643  0.00  0.00    -0.351 OA
ATOM     26  C   UNL     1     -35.830  24.485   5.549  0.00  0.00    +0.174 C 
ENDBRANCH   9  25
BRANCH  11  27
ATOM     27  O   UNL     1     -39.001  21.566  -0.182  0.00  0.00    -0.354 OA
ATOM     28  C   UNL     1     -38.401  20.748  -1.173  0.00  0.00    +0.174 C 
ENDBRANCH  11  27
BRANCH  14  29
ATOM     29  O   UNL     1     -40.730  26.722   3.207  0.00  0.00    -0.353 OA
ATOM     30  C   UNL     1     -41.980  27.002   3.829  0.00  0.00    +0.174 C 
ENDBRANCH  14  29
BRANCH  18  31
ATOM     31  O   UNL     1     -40.527  27.340   0.184  0.00  0.00    -0.353 OA
ATOM     32  C   UNL     1     -41.823  27.053  -0.314  0.00  0.00    +0.174 C 
ENDBRANCH  18  31
BRANCH   1  33
ATOM     33  C   UNL     1     -35.240  23.728  -0.547  0.00  0.00    -0.077 C 
ATOM     34  C   UNL     1     -33.741  23.614  -0.321  0.00  0.00    -0.025 C 
ENDBRANCH   1  33
BRANCH  10  35
ATOM     35  C   UNL     1     -34.875  21.233   3.705  0.00  0.00    +0.135 C 
BRANCH  35  36
ATOM     36  O   UNL     1     -35.638  20.817   4.815  0.00  0.00    -0.382 OA
ATOM     37  H   UNL     1     -36.067  19.970   4.613  0.00  0.00    +0.210 HD
ENDBRANCH  35  36
ENDBRANCH  10  35
TORSDOF 9
ENDMDL
MODEL 4
REMARK VINA RESULT:      -5.8      2.941      4.960
REMARK  Name = 57506221
REMARK  9 active torsions:
REMARK  status: ('A' for Active; 'I' for Inactive)
REMARK    1  A    between atoms: N_1  and  C_33
REMARK    2  A    between atoms: C_6  and  O_21
REMARK    3  A    between atoms: C_8  and  O_23
REMARK    4  A    between atoms: C_9  and  O_25
REMARK    5  A    between atoms: C_10  and  C_35
REMARK    6  A    between atoms: C_11  and  O_27
REMARK    7  A    between atoms: C_14  and  O_29
REMARK    8  A    between atoms: C_18  and  O_31
REMARK    9  A    between atoms: C_35  and  O_36
REMARK                            x       y       z     vdW  Elec       q    Type
REMARK                         _______ _______ _______ _____ _____    ______ ____
ROOT
ATOM      1  N   UNL     1     -34.271  27.935   1.364  0.00  0.00    +0.390 N 
ATOM      2  C   UNL     1     -33.484  25.700   2.062  0.00  0.00    +0.013 C 
ATOM      3  C   UNL     1     -32.472  26.477   2.996  0.00  0.00    +0.030 C 
ATOM      4  C   UNL     1     -34.649  26.724   2.123  0.00  0.00    -0.026 C 
ATOM      5  C   UNL     1     -33.957  24.322   2.679  0.00  0.00    +0.005 C 
ATOM      6  C   UNL     1     -34.799  26.848   3.683  0.00  0.00    +0.119 C 
ATOM      7  C   UNL     1     -34.585  24.343   4.087  0.00  0.00    +0.054 C 
ATOM      8  C   UNL     1     -35.481  25.582   4.297  0.00  0.00    +0.115 C 
ATOM      9  C   UNL     1     -33.334  27.033   4.165  0.00  0.00    +0.140 C 
ATOM     10  C   UNL     1     -31.888  27.696   2.208  0.00  0.00    +0.011 C 
ATOM     11  C   UNL     1     -32.869  25.396   0.647  0.00  0.00    +0.113 C 
ATOM     12  C   UNL     1     -35.008  23.535   1.849  0.00  0.00    +0.005 C 
ATOM     13  C   UNL     1     -36.125  23.127   2.821  0.00  0.00    +0.055 C 
ATOM     14  C   UNL     1     -35.372  23.030   4.137  0.00  0.00    +0.120 C 
ATOM     15  C   UNL     1     -36.950  25.379   3.830  0.00  0.00    +0.059 C 
ATOM     16  C   UNL     1     -33.066  28.647   1.818  0.00  0.00    -0.075 C 
ATOM     17  C   UNL     1     -31.134  27.189   0.963  0.00  0.00    +0.003 C 
ATOM     18  C   UNL     1     -37.218  24.211   2.866  0.00  0.00    +0.120 C 
ATOM     19  C   UNL     1     -32.035  26.482  -0.018  0.00  0.00    +0.029 C 
ATOM     20  H   UNL     1     -33.996  27.534   0.466  0.00  0.00    -0.080 HD
ENDROOT
BRANCH   6  21
ATOM     21  O   UNL     1     -35.576  27.990   4.023  0.00  0.00    -0.384 OA
ATOM     22  H   UNL     1     -35.041  28.599   4.555  0.00  0.00    +0.210 HD
ENDBRANCH   6  21
BRANCH   8  23
ATOM     23  O   UNL     1     -35.563  25.777   5.727  0.00  0.00    -0.384 OA
ATOM     24  H   UNL     1     -36.094  26.567   5.914  0.00  0.00    +0.210 HD
ENDBRANCH   8  23
BRANCH   9  25
ATOM     25  O   UNL     1     -32.985  26.391   5.379  0.00  0.00    -0.351 OA
ATOM     26  C   UNL     1     -32.581  27.327   6.372  0.00  0.00    +0.174 C 
ENDBRANCH   9  25
BRANCH  11  27
ATOM     27  O   UNL     1     -33.855  25.019  -0.310  0.00  0.00    -0.354 OA
ATOM     28  C   UNL     1     -33.784  25.831  -1.472  0.00  0.00    +0.174 C 
ENDBRANCH  11  27
BRANCH  14  29
ATOM     29  O   UNL     1     -36.222  22.907   5.257  0.00  0.00    -0.353 OA
ATOM     30  C   UNL     1     -35.619  22.148   6.301  0.00  0.00    +0.174 C 
ENDBRANCH  14  29
BRANCH  18  31
ATOM     31  O   UNL     1     -38.459  23.599   3.237  0.00  0.00    -0.353 OA
ATOM     32  C   UNL     1     -38.943  22.759   2.204  0.00  0.00    +0.174 C 
ENDBRANCH  18  31
BRANCH   1  33
ATOM     33  C   UNL     1     -35.379  28.844   1.105  0.00  0.00    -0.077 C 
ATOM     34  C   UNL     1     -36.616  28.087   0.652  0.00  0.00    -0.025 C 
ENDBRANCH   1  33
BRANCH  10  35
ATOM     35  C   UNL     1     -30.851  28.471   3.052  0.00  0.00    +0.135 C 
BRANCH  35  36
ATOM     36  O   UNL     1     -30.045  27.525   3.718  0.00  0.00    -0.382 OA
ATOM     37  H   UNL     1     -29.408  27.146   3.092  0.00  0.00    +0.210 HD
ENDBRANCH  35  36
ENDBRANCH  10  35
TORSDOF 9
ENDMDL
MODEL 5
REMARK VINA RESULT:      -5.7      1.672      2.126
REMARK  Name = 57506221
REMARK  9 active torsions:
REMARK  status: ('A' for Active; 'I' for Inactive)
REMARK    1  A    between atoms: N_1  and  C_33
REMARK    2  A    between atoms: C_6  and  O_21
REMARK    3  A    between atoms: C_8  and  O_23
REMARK    4  A    between atoms: C_9  and  O_25
REMARK    5  A    between atoms: C_10  and  C_35
REMARK    6  A    between atoms: C_11  and  O_27
REMARK    7  A    between atoms: C_14  and  O_29
REMARK    8  A    between atoms: C_18  and  O_31
REMARK    9  A    between atoms: C_35  and  O_36
REMARK                            x       y       z     vdW  Elec       q    Type
REMARK                         _______ _______ _______ _____ _____    ______ ____
ROOT
ATOM      1  N   UNL     1     -38.850  23.441   0.380  0.00  0.00    +0.390 N 
ATOM      2  C   UNL     1     -36.410  23.423   0.767  0.00  0.00    +0.013 C 
ATOM      3  C   UNL     1     -36.754  23.961   2.214  0.00  0.00    +0.030 C 
ATOM      4  C   UNL     1     -37.680  22.554   0.563  0.00  0.00    -0.026 C 
ATOM      5  C   UNL     1     -35.127  22.497   0.744  0.00  0.00    +0.005 C 
ATOM      6  C   UNL     1     -37.610  21.686   1.871  0.00  0.00    +0.119 C 
ATOM      7  C   UNL     1     -35.104  21.276   1.684  0.00  0.00    +0.054 C 
ATOM      8  C   UNL     1     -36.488  20.601   1.781  0.00  0.00    +0.115 C 
ATOM      9  C   UNL     1     -37.337  22.740   2.980  0.00  0.00    +0.140 C 
ATOM     10  C   UNL     1     -37.880  25.040   2.099  0.00  0.00    +0.011 C 
ATOM     11  C   UNL     1     -36.167  24.591  -0.257  0.00  0.00    +0.113 C 
ATOM     12  C   UNL     1     -34.769  21.873  -0.633  0.00  0.00    +0.005 C 
ATOM     13  C   UNL     1     -34.526  20.376  -0.392  0.00  0.00    +0.055 C 
ATOM     14  C   UNL     1     -34.046  20.367   1.050  0.00  0.00    +0.120 C 
ATOM     15  C   UNL     1     -36.743  19.534   0.680  0.00  0.00    +0.059 C 
ATOM     16  C   UNL     1     -39.151  24.368   1.482  0.00  0.00    -0.075 C 
ATOM     17  C   UNL     1     -37.383  26.212   1.232  0.00  0.00    +0.003 C 
ATOM     18  C   UNL     1     -35.838  19.587  -0.563  0.00  0.00    +0.120 C 
ATOM     19  C   UNL     1     -37.085  25.803  -0.188  0.00  0.00    +0.029 C 
ATOM     20  H   UNL     1     -38.527  24.050  -0.373  0.00  0.00    -0.080 HD
ENDROOT
BRANCH   6  21
ATOM     21  O   UNL     1     -38.852  21.034   2.108  0.00  0.00    -0.384 OA
ATOM     22  H   UNL     1     -39.267  21.407   2.902  0.00  0.00    +0.210 HD
ENDBRANCH   6  21
BRANCH   8  23
ATOM     23  O   UNL     1     -36.487  19.865   3.025  0.00  0.00    -0.384 OA
ATOM     24  H   UNL     1     -37.216  20.176   3.584  0.00  0.00    +0.210 HD
ENDBRANCH   8  23
BRANCH   9  25
ATOM     25  O   UNL     1     -36.456  22.347   4.018  0.00  0.00    -0.351 OA
ATOM     26  C   UNL     1     -35.694  23.445   4.506  0.00  0.00    +0.174 C 
ENDBRANCH   9  25
BRANCH  11  27
ATOM     27  O   UNL     1     -36.202  24.150  -1.611  0.00  0.00    -0.354 OA
ATOM     28  C   UNL     1     -37.081  24.946  -2.391  0.00  0.00    +0.174 C 
ENDBRANCH  11  27
BRANCH  14  29
ATOM     29  O   UNL     1     -33.986  19.073   1.608  0.00  0.00    -0.353 OA
ATOM     30  C   UNL     1     -32.744  18.432   1.331  0.00  0.00    +0.174 C 
ENDBRANCH  14  29
BRANCH  18  31
ATOM     31  O   UNL     1     -35.521  18.244  -0.945  0.00  0.00    -0.353 OA
ATOM     32  C   UNL     1     -36.488  17.331  -0.454  0.00  0.00    +0.174 C 
ENDBRANCH  18  31
BRANCH   1  33
ATOM     33  C   UNL     1     -40.042  22.759  -0.104  0.00  0.00    -0.077 C 
ATOM     34  C   UNL     1     -39.728  21.893  -1.312  0.00  0.00    -0.025 C 
ENDBRANCH   1  33
BRANCH  10  35
ATOM     35  C   UNL     1     -38.229  25.642   3.478  0.00  0.00    +0.135 C 
BRANCH  35  36
ATOM     36  O   UNL     1     -39.333  26.502   3.305  0.00  0.00    -0.382 OA
ATOM     37  H   UNL     1     -40.085  25.997   2.959  0.00  0.00    +0.210 HD
ENDBRANCH  35  36
ENDBRANCH  10  35
TORSDOF 9
ENDMDL
MODEL 6
REMARK VINA RESULT:      -5.6      1.780      4.158
REMARK  Name = 57506221
REMARK  9 active torsions:
REMARK  status: ('A' for Active; 'I' for Inactive)
REMARK    1  A    between atoms: N_1  and  C_33
REMARK    2  A    between atoms: C_6  and  O_21
REMARK    3  A    between atoms: C_8  and  O_23
REMARK    4  A    between atoms: C_9  and  O_25
REMARK    5  A    between atoms: C_10  and  C_35
REMARK    6  A    between atoms: C_11  and  O_27
REMARK    7  A    between atoms: C_14  and  O_29
REMARK    8  A    between atoms: C_18  and  O_31
REMARK    9  A    between atoms: C_35  and  O_36
REMARK                            x       y       z     vdW  Elec       q    Type
REMARK                         _______ _______ _______ _____ _____    ______ ____
ROOT
ATOM      1  N   UNL     1     -34.491  24.963   2.525  0.00  0.00    +0.390 N 
ATOM      2  C   UNL     1     -36.020  23.032   2.706  0.00  0.00    +0.013 C 
ATOM      3  C   UNL     1     -37.113  23.988   2.080  0.00  0.00    +0.030 C 
ATOM      4  C   UNL     1     -34.786  23.623   1.974  0.00  0.00    -0.026 C 
ATOM      5  C   UNL     1     -36.212  21.519   2.283  0.00  0.00    +0.005 C 
ATOM      6  C   UNL     1     -35.299  23.532   0.491  0.00  0.00    +0.119 C 
ATOM      7  C   UNL     1     -36.270  21.195   0.776  0.00  0.00    +0.054 C 
ATOM      8  C   UNL     1     -35.281  22.060  -0.034  0.00  0.00    +0.115 C 
ATOM      9  C   UNL     1     -36.735  24.120   0.578  0.00  0.00    +0.140 C 
ATOM     10  C   UNL     1     -36.983  25.403   2.735  0.00  0.00    +0.011 C 
ATOM     11  C   UNL     1     -36.017  23.085   4.277  0.00  0.00    +0.113 C 
ATOM     12  C   UNL     1     -35.132  20.530   2.802  0.00  0.00    +0.005 C 
ATOM     13  C   UNL     1     -34.682  19.692   1.597  0.00  0.00    +0.055 C 
ATOM     14  C   UNL     1     -35.928  19.703   0.728  0.00  0.00    +0.120 C 
ATOM     15  C   UNL     1     -33.853  21.452  -0.132  0.00  0.00    +0.059 C 
ATOM     16  C   UNL     1     -35.560  25.969   2.418  0.00  0.00    -0.075 C 
ATOM     17  C   UNL     1     -37.223  25.291   4.252  0.00  0.00    +0.003 C 
ATOM     18  C   UNL     1     -33.488  20.365   0.893  0.00  0.00    +0.120 C 
ATOM     19  C   UNL     1     -36.189  24.441   4.946  0.00  0.00    +0.029 C 
ATOM     20  H   UNL     1     -34.439  24.764   3.525  0.00  0.00    -0.080 HD
ENDROOT
BRANCH   6  21
ATOM     21  O   UNL     1     -34.493  24.328  -0.369  0.00  0.00    -0.384 OA
ATOM     22  H   UNL     1     -34.450  23.917  -1.246  0.00  0.00    +0.210 HD
ENDBRANCH   6  21
BRANCH   8  23
ATOM     23  O   UNL     1     -35.780  22.070  -1.390  0.00  0.00    -0.384 OA
ATOM     24  H   UNL     1     -35.414  21.313  -1.874  0.00  0.00    +0.210 HD
ENDBRANCH   8  23
BRANCH   9  25
ATOM     25  O   UNL     1     -37.719  23.500  -0.231  0.00  0.00    -0.351 OA
ATOM     26  C   UNL     1     -38.416  24.447  -1.032  0.00  0.00    +0.174 C 
ENDBRANCH   9  25
BRANCH  11  27
ATOM     27  O   UNL     1     -34.838  22.517   4.843  0.00  0.00    -0.354 OA
ATOM     28  C   UNL     1     -35.076  22.035   6.156  0.00  0.00    +0.174 C 
ENDBRANCH  11  27
BRANCH  14  29
ATOM     29  O   UNL     1     -35.704  19.203  -0.573  0.00  0.00    -0.353 OA
ATOM     30  C   UNL     1     -35.835  17.786  -0.628  0.00  0.00    +0.174 C 
ENDBRANCH  14  29
BRANCH  18  31
ATOM     31  O   UNL     1     -32.720  19.358   0.224  0.00  0.00    -0.353 OA
ATOM     32  C   UNL     1     -32.452  18.264   1.085  0.00  0.00    +0.174 C 
ENDBRANCH  18  31
BRANCH   1  33
ATOM     33  C   UNL     1     -33.195  25.497   2.128  0.00  0.00    -0.077 C 
ATOM     34  C   UNL     1     -33.259  27.002   1.928  0.00  0.00    -0.025 C 
ENDBRANCH   1  33
BRANCH  10  35
ATOM     35  C   UNL     1     -38.059  26.375   2.200  0.00  0.00    +0.135 C 
BRANCH  35  36
ATOM     36  O   UNL     1     -39.053  26.504   3.191  0.00  0.00    -0.382 OA
ATOM     37  H   UNL     1     -39.911  26.668   2.769  0.00  0.00    +0.210 HD
ENDBRANCH  35  36
ENDBRANCH  10  35
TORSDOF 9
ENDMDL
MODEL 7
REMARK VINA RESULT:      -5.4      1.933      6.253
REMARK  Name = 57506221
REMARK  9 active torsions:
REMARK  status: ('A' for Active; 'I' for Inactive)
REMARK    1  A    between atoms: N_1  and  C_33
REMARK    2  A    between atoms: C_6  and  O_21
REMARK    3  A    between atoms: C_8  and  O_23
REMARK    4  A    between atoms: C_9  and  O_25
REMARK    5  A    between atoms: C_10  and  C_35
REMARK    6  A    between atoms: C_11  and  O_27
REMARK    7  A    between atoms: C_14  and  O_29
REMARK    8  A    between atoms: C_18  and  O_31
REMARK    9  A    between atoms: C_35  and  O_36
REMARK                            x       y       z     vdW  Elec       q    Type
REMARK                         _______ _______ _______ _____ _____    ______ ____
ROOT
ATOM      1  N   UNL     1     -34.219  19.859   0.655  0.00  0.00    +0.390 N 
ATOM      2  C   UNL     1     -35.071  22.090   0.026  0.00  0.00    +0.013 C 
ATOM      3  C   UNL     1     -36.249  21.311  -0.684  0.00  0.00    +0.030 C 
ATOM      4  C   UNL     1     -34.836  21.092   1.190  0.00  0.00    -0.026 C 
ATOM      5  C   UNL     1     -35.525  23.489   0.612  0.00  0.00    +0.005 C 
ATOM      6  C   UNL     1     -36.302  21.000   1.750  0.00  0.00    +0.119 C 
ATOM      7  C   UNL     1     -36.716  23.507   1.589  0.00  0.00    +0.054 C 
ATOM      8  C   UNL     1     -36.698  22.290   2.538  0.00  0.00    +0.115 C 
ATOM      9  C   UNL     1     -37.156  20.794   0.469  0.00  0.00    +0.140 C 
ATOM     10  C   UNL     1     -35.659  20.066  -1.426  0.00  0.00    +0.011 C 
ATOM     11  C   UNL     1     -33.866  22.356  -0.948  0.00  0.00    +0.113 C 
ATOM     12  C   UNL     1     -34.436  24.281   1.387  0.00  0.00    +0.005 C 
ATOM     13  C   UNL     1     -35.073  24.730   2.710  0.00  0.00    +0.055 C 
ATOM     14  C   UNL     1     -36.540  24.836   2.329  0.00  0.00    +0.120 C 
ATOM     15  C   UNL     1     -35.857  22.514   3.827  0.00  0.00    +0.059 C 
ATOM     16  C   UNL     1     -34.984  19.132  -0.370  0.00  0.00    -0.075 C 
ATOM     17  C   UNL     1     -34.652  20.534  -2.494  0.00  0.00    +0.003 C 
ATOM     18  C   UNL     1     -34.842  23.669   3.803  0.00  0.00    +0.120 C 
ATOM     19  C   UNL     1     -33.459  21.241  -1.901  0.00  0.00    +0.029 C 
ATOM     20  H   UNL     1     -33.421  20.238   0.144  0.00  0.00    -0.080 HD
ENDROOT
BRANCH   6  21
ATOM     21  O   UNL     1     -36.439  19.880   2.617  0.00  0.00    -0.384 OA
ATOM     22  H   UNL     1     -37.297  19.455   2.463  0.00  0.00    +0.210 HD
ENDBRANCH   6  21
BRANCH   8  23
ATOM     23  O   UNL     1     -38.057  22.124   3.000  0.00  0.00    -0.384 OA
ATOM     24  H   UNL     1     -38.388  22.970   3.338  0.00  0.00    +0.210 HD
ENDBRANCH   8  23
BRANCH   9  25
ATOM     25  O   UNL     1     -38.411  21.451   0.437  0.00  0.00    -0.351 OA
ATOM     26  C   UNL     1     -39.428  20.620  -0.110  0.00  0.00    +0.174 C 
ENDBRANCH   9  25
BRANCH  11  27
ATOM     27  O   UNL     1     -32.677  22.734  -0.259  0.00  0.00    -0.354 OA
ATOM     28  C   UNL     1     -31.548  22.029  -0.750  0.00  0.00    +0.174 C 
ENDBRANCH  11  27
BRANCH  14  29
ATOM     29  O   UNL     1     -37.394  24.997   3.441  0.00  0.00    -0.353 OA
ATOM     30  C   UNL     1     -38.598  25.674   3.093  0.00  0.00    +0.174 C 
ENDBRANCH  14  29
BRANCH  18  31
ATOM     31  O   UNL     1     -34.864  24.313   5.082  0.00  0.00    -0.353 OA
ATOM     32  C   UNL     1     -34.079  25.492   5.074  0.00  0.00    +0.174 C 
ENDBRANCH  18  31
BRANCH   1  33
ATOM     33  C   UNL     1     -33.688  18.968   1.678  0.00  0.00    -0.077 C 
ATOM     34  C   UNL     1     -32.540  18.132   1.136  0.00  0.00    -0.025 C 
ENDBRANCH   1  33
BRANCH  10  35
ATOM     35  C   UNL     1     -36.757  19.286  -2.184  0.00  0.00    +0.135 C 
BRANCH  35  36
ATOM     36  O   UNL     1     -36.794  17.978  -1.660  0.00  0.00    -0.382 OA
ATOM     37  H   UNL     1     -36.245  17.395  -2.206  0.00  0.00    +0.210 HD
ENDBRANCH  35  36
ENDBRANCH  10  35
TORSDOF 9
ENDMDL
MODEL 8
REMARK VINA RESULT:      -5.4      2.586      5.710
REMARK  Name = 57506221
REMARK  9 active torsions:
REMARK  status: ('A' for Active; 'I' for Inactive)
REMARK    1  A    between atoms: N_1  and  C_33
REMARK    2  A    between atoms: C_6  and  O_21
REMARK    3  A    between atoms: C_8  and  O_23
REMARK    4  A    between atoms: C_9  and  O_25
REMARK    5  A    between atoms: C_10  and  C_35
REMARK    6  A    between atoms: C_11  and  O_27
REMARK    7  A    between atoms: C_14  and  O_29
REMARK    8  A    between atoms: C_18  and  O_31
REMARK    9  A    between atoms: C_35  and  O_36
REMARK                            x       y       z     vdW  Elec       q    Type
REMARK                         _______ _______ _______ _____ _____    ______ ____
ROOT
ATOM      1  N   UNL     1     -34.602  24.354   2.230  0.00  0.00    +0.390 N 
ATOM      2  C   UNL     1     -36.550  25.271   3.441  0.00  0.00    +0.013 C 
ATOM      3  C   UNL     1     -35.774  26.649   3.406  0.00  0.00    +0.030 C 
ATOM      4  C   UNL     1     -36.031  24.708   2.091  0.00  0.00    -0.026 C 
ATOM      5  C   UNL     1     -38.121  25.448   3.372  0.00  0.00    +0.005 C 
ATOM      6  C   UNL     1     -36.404  25.911   1.151  0.00  0.00    +0.119 C 
ATOM      7  C   UNL     1     -38.703  26.250   2.192  0.00  0.00    +0.054 C 
ATOM      8  C   UNL     1     -37.942  25.972   0.878  0.00  0.00    +0.115 C 
ATOM      9  C   UNL     1     -35.886  27.148   1.937  0.00  0.00    +0.140 C 
ATOM     10  C   UNL     1     -34.263  26.389   3.712  0.00  0.00    +0.011 C 
ATOM     11  C   UNL     1     -36.225  24.443   4.737  0.00  0.00    +0.113 C 
ATOM     12  C   UNL     1     -38.947  24.133   3.331  0.00  0.00    +0.005 C 
ATOM     13  C   UNL     1     -39.956  24.279   2.183  0.00  0.00    +0.055 C 
ATOM     14  C   UNL     1     -40.162  25.784   2.140  0.00  0.00    +0.120 C 
ATOM     15  C   UNL     1     -38.482  24.746   0.090  0.00  0.00    +0.059 C 
ATOM     16  C   UNL     1     -33.687  25.443   2.607  0.00  0.00    -0.075 C 
ATOM     17  C   UNL     1     -34.122  25.769   5.116  0.00  0.00    +0.003 C 
ATOM     18  C   UNL     1     -39.354  23.747   0.869  0.00  0.00    +0.120 C 
ATOM     19  C   UNL     1     -34.784  24.419   5.227  0.00  0.00    +0.029 C 
ATOM     20  H   UNL     1     -34.622  23.753   3.055  0.00  0.00    -0.080 HD
ENDROOT
BRANCH   6  21
ATOM     21  O   UNL     1     -35.728  25.803  -0.096  0.00  0.00    -0.384 OA
ATOM     22  H   UNL     1     -36.367  25.588  -0.793  0.00  0.00    +0.210 HD
ENDBRANCH   6  21
BRANCH   8  23
ATOM     23  O   UNL     1     -38.193  27.110   0.024  0.00  0.00    -0.384 OA
ATOM     24  H   UNL     1     -39.141  27.161  -0.175  0.00  0.00    +0.210 HD
ENDBRANCH   8  23
BRANCH   9  25
ATOM     25  O   UNL     1     -36.687  28.314   1.875  0.00  0.00    -0.351 OA
ATOM     26  C   UNL     1     -35.927  29.457   1.500  0.00  0.00    +0.174 C 
ENDBRANCH   9  25
BRANCH  11  27
ATOM     27  O   UNL     1     -36.624  23.079   4.630  0.00  0.00    -0.354 OA
ATOM     28  C   UNL     1     -35.563  22.201   4.973  0.00  0.00    +0.174 C 
ENDBRANCH  11  27
BRANCH  14  29
ATOM     29  O   UNL     1     -40.867  26.218   0.997  0.00  0.00    -0.353 OA
ATOM     30  C   UNL     1     -42.277  26.122   1.175  0.00  0.00    +0.174 C 
ENDBRANCH  14  29
BRANCH  18  31
ATOM     31  O   UNL     1     -40.421  23.320   0.013  0.00  0.00    -0.353 OA
ATOM     32  C   UNL     1     -40.167  23.673  -1.335  0.00  0.00    +0.174 C 
ENDBRANCH  18  31
BRANCH   1  33
ATOM     33  C   UNL     1     -34.078  23.555   1.131  0.00  0.00    -0.077 C 
ATOM     34  C   UNL     1     -34.825  22.238   1.005  0.00  0.00    -0.025 C 
ENDBRANCH   1  33
BRANCH  10  35
ATOM     35  C   UNL     1     -33.456  27.706   3.741  0.00  0.00    +0.135 C 
BRANCH  35  36
ATOM     36  O   UNL     1     -33.013  27.910   5.063  0.00  0.00    -0.382 OA
ATOM     37  H   UNL     1     -32.161  28.373   5.051  0.00  0.00    +0.210 HD
ENDBRANCH  35  36
ENDBRANCH  10  35
TORSDOF 9
ENDMDL
MODEL 9
REMARK VINA RESULT:      -5.4      2.053      3.699
REMARK  Name = 57506221
REMARK  9 active torsions:
REMARK  status: ('A' for Active; 'I' for Inactive)
REMARK    1  A    between atoms: N_1  and  C_33
REMARK    2  A    between atoms: C_6  and  O_21
REMARK    3  A    between atoms: C_8  and  O_23
REMARK    4  A    between atoms: C_9  and  O_25
REMARK    5  A    between atoms: C_10  and  C_35
REMARK    6  A    between atoms: C_11  and  O_27
REMARK    7  A    between atoms: C_14  and  O_29
REMARK    8  A    between atoms: C_18  and  O_31
REMARK    9  A    between atoms: C_35  and  O_36
REMARK                            x       y       z     vdW  Elec       q    Type
REMARK                         _______ _______ _______ _____ _____    ______ ____
ROOT
ATOM      1  N   UNL     1     -36.462  27.472   0.874  0.00  0.00    +0.390 N 
ATOM      2  C   UNL     1     -34.685  25.948   1.661  0.00  0.00    +0.013 C 
ATOM      3  C   UNL     1     -34.386  27.050   2.755  0.00  0.00    +0.030 C 
ATOM      4  C   UNL     1     -36.216  26.179   1.548  0.00  0.00    -0.026 C 
ATOM      5  C   UNL     1     -34.409  24.478   2.179  0.00  0.00    +0.005 C 
ATOM      6  C   UNL     1     -36.607  26.052   3.065  0.00  0.00    +0.119 C 
ATOM      7  C   UNL     1     -35.122  24.024   3.468  0.00  0.00    +0.054 C 
ATOM      8  C   UNL     1     -36.564  24.566   3.547  0.00  0.00    +0.115 C 
ATOM      9  C   UNL     1     -35.553  26.944   3.778  0.00  0.00    +0.140 C 
ATOM     10  C   UNL     1     -34.462  28.462   2.086  0.00  0.00    +0.011 C 
ATOM     11  C   UNL     1     -33.829  26.158   0.360  0.00  0.00    +0.113 C 
ATOM     12  C   UNL     1     -34.748  23.336   1.182  0.00  0.00    +0.005 C 
ATOM     13  C   UNL     1     -35.578  22.302   1.957  0.00  0.00    +0.055 C 
ATOM     14  C   UNL     1     -35.068  22.496   3.375  0.00  0.00    +0.120 C 
ATOM     15  C   UNL     1     -37.614  23.656   2.849  0.00  0.00    +0.059 C 
ATOM     16  C   UNL     1     -35.907  28.670   1.524  0.00  0.00    -0.075 C 
ATOM     17  C   UNL     1     -33.402  28.560   0.971  0.00  0.00    +0.003 C 
ATOM     18  C   UNL     1     -37.080  22.625   1.840  0.00  0.00    +0.120 C 
ATOM     19  C   UNL     1     -33.641  27.580  -0.150  0.00  0.00    +0.029 C 
ATOM     20  H   UNL     1     -35.902  27.369   0.027  0.00  0.00    -0.080 HD
ENDROOT
BRANCH   6  21
ATOM     21  O   UNL     1     -37.915  26.563   3.291  0.00  0.00    -0.384 OA
ATOM     22  H   UNL     1     -37.871  27.304   3.916  0.00  0.00    +0.210 HD
ENDBRANCH   6  21
BRANCH   8  23
ATOM     23  O   UNL     1     -36.921  24.546   4.947  0.00  0.00    -0.384 OA
ATOM     24  H   UNL     1     -36.985  25.456   5.276  0.00  0.00    +0.210 HD
ENDBRANCH   8  23
BRANCH   9  25
ATOM     25  O   UNL     1     -35.070  26.473   5.024  0.00  0.00    -0.351 OA
ATOM     26  C   UNL     1     -33.668  26.678   5.157  0.00  0.00    +0.174 C 
ENDBRANCH   9  25
BRANCH  11  27
ATOM     27  O   UNL     1     -34.321  25.408  -0.748  0.00  0.00    -0.354 OA
ATOM     28  C   UNL     1     -34.514  26.233  -1.886  0.00  0.00    +0.174 C 
ENDBRANCH  11  27
BRANCH  14  29
ATOM     29  O   UNL     1     -35.851  21.830   4.343  0.00  0.00    -0.353 OA
ATOM     30  C   UNL     1     -35.129  21.614   5.552  0.00  0.00    +0.174 C 
ENDBRANCH  14  29
BRANCH  18  31
ATOM     31  O   UNL     1     -37.825  21.412   2.000  0.00  0.00    -0.353 OA
ATOM     32  C   UNL     1     -37.802  20.638   0.813  0.00  0.00    +0.174 C 
ENDBRANCH  18  31
BRANCH   1  33
ATOM     33  C   UNL     1     -37.843  27.669   0.452  0.00  0.00    -0.077 C 
ATOM     34  C   UNL     1     -38.382  26.436  -0.254  0.00  0.00    -0.025 C 
ENDBRANCH   1  33
BRANCH  10  35
ATOM     35  C   UNL     1     -34.130  29.585   3.094  0.00  0.00    +0.135 C 
BRANCH  35  36
ATOM     36  O   UNL     1     -35.328  30.268   3.387  0.00  0.00    -0.382 OA
ATOM     37  H   UNL     1     -36.009  30.016   2.743  0.00  0.00    +0.210 HD
ENDBRANCH  35  36
ENDBRANCH  10  35
TORSDOF 9
ENDMDL
