MODEL 1
REMARK VINA RESULT:      -5.9      0.000      0.000
REMARK  Name = 53671692
REMARK  8 active torsions:
REMARK  status: ('A' for Active; 'I' for Inactive)
REMARK    1  A    between atoms: N_2  and  C_5
REMARK    2  A    between atoms: C_3  and  C_18
REMARK    3  A    between atoms: C_5  and  C_8
REMARK    4  A    between atoms: C_5  and  C_11
REMARK    5  A    between atoms: C_11  and  C_12
REMARK    6  A    between atoms: C_18  and  N_20
REMARK    7  A    between atoms: C_21  and  C_23
REMARK    8  A    between atoms: C_23  and  N_24
REMARK                            x       y       z     vdW  Elec       q    Type
REMARK                         _______ _______ _______ _____ _____    ______ ____
ROOT
ATOM      1  O   UNL     1     -35.775  23.584   1.036  0.00  0.00    -0.273 OA
ATOM      2  N   UNL     1     -36.151  21.575   2.140  0.00  0.00    -0.297 N 
ATOM      3  C   UNL     1     -36.227  22.954   1.990  0.00  0.00    +0.243 C 
ATOM      4  H   UNL     1     -36.548  21.171   2.946  0.00  0.00    +0.150 HD
ENDROOT
BRANCH   2   5
ATOM      5  C   UNL     1     -35.524  20.705   1.178  0.00  0.00    +0.153 C 
BRANCH   5   8
ATOM      6  O   UNL     1     -37.201  20.563  -0.574  0.00  0.00    -0.274 OA
ATOM      7  N   UNL     1     -36.909  18.758   0.816  0.00  0.00    -0.327 N 
ATOM      8  C   UNL     1     -36.636  20.039   0.383  0.00  0.00    +0.238 C 
ATOM      9  H   UNL     1     -37.611  18.227   0.375  0.00  0.00    +0.145 HD
ATOM     10  H   UNL     1     -36.401  18.374   1.568  0.00  0.00    +0.145 HD
ENDBRANCH   5   8
BRANCH   5  11
ATOM     11  C   UNL     1     -34.638  19.647   1.846  0.00  0.00    +0.055 C 
BRANCH  11  12
ATOM     12  C   UNL     1     -33.296  19.497   1.170  0.00  0.00    -0.020 C 
ATOM     13  C   UNL     1     -32.538  18.343   1.372  0.00  0.00    -0.004 C 
ATOM     14  C   UNL     1     -32.814  20.512   0.346  0.00  0.00    -0.004 C 
ATOM     15  C   UNL     1     -31.299  18.205   0.747  0.00  0.00    -0.000 C 
ATOM     16  C   UNL     1     -31.575  20.375  -0.279  0.00  0.00    -0.000 C 
ATOM     17  C   UNL     1     -30.817  19.221  -0.078  0.00  0.00    -0.000 C 
ENDBRANCH  11  12
ENDBRANCH   5  11
ENDBRANCH   2   5
BRANCH   3  18
ATOM     18  C   UNL     1     -36.913  23.618   3.166  0.00  0.00    +0.176 C 
BRANCH  18  20
ATOM     19  O   UNL     1     -34.820  24.229   5.068  0.00  0.00    -0.277 OA
ATOM     20  N   UNL     1     -36.580  22.881   4.378  0.00  0.00    -0.298 N 
ATOM     21  C   UNL     1     -35.555  23.256   5.225  0.00  0.00    +0.201 C 
ATOM     22  H   UNL     1     -37.108  22.082   4.603  0.00  0.00    +0.150 HD
BRANCH  21  23
ATOM     23  C   UNL     1     -35.414  22.293   6.387  0.00  0.00    +0.001 C 
BRANCH  23  24
ATOM     24  N   UNL     1     -35.167  20.958   5.861  0.00  0.00    +0.386 N 
ATOM     25  H   UNL     1     -35.765  20.795   5.052  0.00  0.00    -0.089 HD
ATOM     26  H   UNL     1     -35.373  20.266   6.582  0.00  0.00    -0.089 HD
ATOM     27  H   UNL     1     -34.188  20.879   5.584  0.00  0.00    -0.089 HD
ENDBRANCH  23  24
ENDBRANCH  21  23
ENDBRANCH  18  20
ENDBRANCH   3  18
TORSDOF 8
ENDMDL
MODEL 2
REMARK VINA RESULT:      -5.7      4.709      6.823
REMARK  Name = 53671692
REMARK  8 active torsions:
REMARK  status: ('A' for Active; 'I' for Inactive)
REMARK    1  A    between atoms: N_2  and  C_5
REMARK    2  A    between atoms: C_3  and  C_18
REMARK    3  A    between atoms: C_5  and  C_8
REMARK    4  A    between atoms: C_5  and  C_11
REMARK    5  A    between atoms: C_11  and  C_12
REMARK    6  A    between atoms: C_18  and  N_20
REMARK    7  A    between atoms: C_21  and  C_23
REMARK    8  A    between atoms: C_23  and  N_24
REMARK                            x       y       z     vdW  Elec       q    Type
REMARK                         _______ _______ _______ _____ _____    ______ ____
ROOT
ATOM      1  O   UNL     1     -33.105  25.998   3.777  0.00  0.00    -0.273 OA
ATOM      2  N   UNL     1     -35.117  27.154   3.684  0.00  0.00    -0.297 N 
ATOM      3  C   UNL     1     -33.735  27.053   3.783  0.00  0.00    +0.243 C 
ATOM      4  H   UNL     1     -35.521  28.052   3.699  0.00  0.00    +0.150 HD
ENDROOT
BRANCH   2   5
ATOM      5  C   UNL     1     -35.990  26.014   3.560  0.00  0.00    +0.153 C 
BRANCH   5   8
ATOM      6  O   UNL     1     -37.337  27.188   1.914  0.00  0.00    -0.274 OA
ATOM      7  N   UNL     1     -38.405  26.063   3.608  0.00  0.00    -0.327 N 
ATOM      8  C   UNL     1     -37.286  26.507   2.935  0.00  0.00    +0.238 C 
ATOM      9  H   UNL     1     -39.303  26.318   3.293  0.00  0.00    +0.145 HD
ATOM     10  H   UNL     1     -38.307  25.490   4.403  0.00  0.00    +0.145 HD
ENDBRANCH   5   8
BRANCH   5  11
ATOM     11  C   UNL     1     -36.269  25.349   4.913  0.00  0.00    +0.055 C 
BRANCH  11  12
ATOM     12  C   UNL     1     -35.852  23.899   4.949  0.00  0.00    -0.020 C 
ATOM     13  C   UNL     1     -35.915  23.126   3.789  0.00  0.00    -0.004 C 
ATOM     14  C   UNL     1     -35.405  23.331   6.141  0.00  0.00    -0.004 C 
ATOM     15  C   UNL     1     -35.529  21.786   3.821  0.00  0.00    -0.000 C 
ATOM     16  C   UNL     1     -35.020  21.991   6.174  0.00  0.00    -0.000 C 
ATOM     17  C   UNL     1     -35.082  21.219   5.014  0.00  0.00    -0.000 C 
ENDBRANCH  11  12
ENDBRANCH   5  11
ENDBRANCH   2   5
BRANCH   3  18
ATOM     18  C   UNL     1     -33.075  28.408   3.933  0.00  0.00    +0.176 C 
BRANCH  18  20
ATOM     19  O   UNL     1     -32.193  29.227   6.564  0.00  0.00    -0.277 OA
ATOM     20  N   UNL     1     -31.754  28.223   4.517  0.00  0.00    -0.298 N 
ATOM     21  C   UNL     1     -31.430  28.653   5.790  0.00  0.00    +0.201 C 
ATOM     22  H   UNL     1     -31.062  27.772   3.983  0.00  0.00    +0.150 HD
BRANCH  21  23
ATOM     23  C   UNL     1     -29.982  28.358   6.125  0.00  0.00    +0.001 C 
BRANCH  23  24
ATOM     24  N   UNL     1     -29.623  29.087   7.333  0.00  0.00    +0.386 N 
ATOM     25  H   UNL     1     -28.774  28.686   7.733  0.00  0.00    -0.089 HD
ATOM     26  H   UNL     1     -30.382  29.020   8.010  0.00  0.00    -0.089 HD
ATOM     27  H   UNL     1     -29.460  30.067   7.101  0.00  0.00    -0.089 HD
ENDBRANCH  23  24
ENDBRANCH  21  23
ENDBRANCH  18  20
ENDBRANCH   3  18
TORSDOF 8
ENDMDL
MODEL 3
REMARK VINA RESULT:      -5.7      1.298      1.680
REMARK  Name = 53671692
REMARK  8 active torsions:
REMARK  status: ('A' for Active; 'I' for Inactive)
REMARK    1  A    between atoms: N_2  and  C_5
REMARK    2  A    between atoms: C_3  and  C_18
REMARK    3  A    between atoms: C_5  and  C_8
REMARK    4  A    between atoms: C_5  and  C_11
REMARK    5  A    between atoms: C_11  and  C_12
REMARK    6  A    between atoms: C_18  and  N_20
REMARK    7  A    between atoms: C_21  and  C_23
REMARK    8  A    between atoms: C_23  and  N_24
REMARK                            x       y       z     vdW  Elec       q    Type
REMARK                         _______ _______ _______ _____ _____    ______ ____
ROOT
ATOM      1  O   UNL     1     -34.919  23.123   1.884  0.00  0.00    -0.273 OA
ATOM      2  N   UNL     1     -36.288  21.249   1.779  0.00  0.00    -0.297 N 
ATOM      3  C   UNL     1     -35.953  22.533   2.190  0.00  0.00    +0.243 C 
ATOM      4  H   UNL     1     -37.144  20.870   2.083  0.00  0.00    +0.150 HD
ENDROOT
BRANCH   2   5
ATOM      5  C   UNL     1     -35.448  20.443   0.929  0.00  0.00    +0.153 C 
BRANCH   5   8
ATOM      6  O   UNL     1     -36.633  19.893  -1.119  0.00  0.00    -0.274 OA
ATOM      7  N   UNL     1     -36.831  18.478   0.679  0.00  0.00    -0.327 N 
ATOM      8  C   UNL     1     -36.367  19.612   0.047  0.00  0.00    +0.238 C 
ATOM      9  H   UNL     1     -37.435  17.861   0.205  0.00  0.00    +0.145 HD
ATOM     10  H   UNL     1     -36.558  18.283   1.605  0.00  0.00    +0.145 HD
ENDBRANCH   5   8
BRANCH   5  11
ATOM     11  C   UNL     1     -34.514  19.532   1.735  0.00  0.00    +0.055 C 
BRANCH  11  12
ATOM     12  C   UNL     1     -33.149  19.393   1.107  0.00  0.00    -0.020 C 
ATOM     13  C   UNL     1     -32.382  18.253   1.349  0.00  0.00    -0.004 C 
ATOM     14  C   UNL     1     -32.653  20.405   0.286  0.00  0.00    -0.004 C 
ATOM     15  C   UNL     1     -31.119  18.125   0.769  0.00  0.00    -0.000 C 
ATOM     16  C   UNL     1     -31.391  20.278  -0.294  0.00  0.00    -0.000 C 
ATOM     17  C   UNL     1     -30.625  19.137  -0.052  0.00  0.00    -0.000 C 
ENDBRANCH  11  12
ENDBRANCH   5  11
ENDBRANCH   2   5
BRANCH   3  18
ATOM     18  C   UNL     1     -37.005  23.131   3.100  0.00  0.00    +0.176 C 
BRANCH  18  20
ATOM     19  O   UNL     1     -35.973  23.255   5.801  0.00  0.00    -0.277 OA
ATOM     20  N   UNL     1     -36.437  24.290   3.774  0.00  0.00    -0.298 N 
ATOM     21  C   UNL     1     -35.969  24.247   5.074  0.00  0.00    +0.201 C 
ATOM     22  H   UNL     1     -36.384  25.141   3.283  0.00  0.00    +0.150 HD
BRANCH  21  23
ATOM     23  C   UNL     1     -35.464  25.601   5.528  0.00  0.00    +0.001 C 
BRANCH  23  24
ATOM     24  N   UNL     1     -36.469  26.606   5.214  0.00  0.00    +0.386 N 
ATOM     25  H   UNL     1     -37.125  26.229   4.531  0.00  0.00    -0.089 HD
ATOM     26  H   UNL     1     -36.014  27.433   4.828  0.00  0.00    -0.089 HD
ATOM     27  H   UNL     1     -36.971  26.860   6.065  0.00  0.00    -0.089 HD
ENDBRANCH  23  24
ENDBRANCH  21  23
ENDBRANCH  18  20
ENDBRANCH   3  18
TORSDOF 8
ENDMDL
MODEL 4
REMARK VINA RESULT:      -5.7      5.605      7.754
REMARK  Name = 53671692
REMARK  8 active torsions:
REMARK  status: ('A' for Active; 'I' for Inactive)
REMARK    1  A    between atoms: N_2  and  C_5
REMARK    2  A    between atoms: C_3  and  C_18
REMARK    3  A    between atoms: C_5  and  C_8
REMARK    4  A    between atoms: C_5  and  C_11
REMARK    5  A    between atoms: C_11  and  C_12
REMARK    6  A    between atoms: C_18  and  N_20
REMARK    7  A    between atoms: C_21  and  C_23
REMARK    8  A    between atoms: C_23  and  N_24
REMARK                            x       y       z     vdW  Elec       q    Type
REMARK                         _______ _______ _______ _____ _____    ______ ____
ROOT
ATOM      1  O   UNL     1     -31.461  27.659   4.395  0.00  0.00    -0.273 OA
ATOM      2  N   UNL     1     -33.383  27.276   5.643  0.00  0.00    -0.297 N 
ATOM      3  C   UNL     1     -32.175  27.903   5.366  0.00  0.00    +0.243 C 
ATOM      4  H   UNL     1     -33.876  27.549   6.450  0.00  0.00    +0.150 HD
ENDROOT
BRANCH   2   5
ATOM      5  C   UNL     1     -33.953  26.248   4.809  0.00  0.00    +0.153 C 
BRANCH   5   8
ATOM      6  O   UNL     1     -33.954  26.681   2.418  0.00  0.00    -0.274 OA
ATOM      7  N   UNL     1     -35.475  27.787   3.736  0.00  0.00    -0.327 N 
ATOM      8  C   UNL     1     -34.424  26.919   3.528  0.00  0.00    +0.238 C 
ATOM      9  H   UNL     1     -35.866  28.280   2.977  0.00  0.00    +0.145 HD
ATOM     10  H   UNL     1     -35.837  27.915   4.643  0.00  0.00    +0.145 HD
ENDBRANCH   5   8
BRANCH   5  11
ATOM     11  C   UNL     1     -35.120  25.528   5.495  0.00  0.00    +0.055 C 
BRANCH  11  12
ATOM     12  C   UNL     1     -35.201  24.066   5.128  0.00  0.00    -0.020 C 
ATOM     13  C   UNL     1     -35.417  23.691   3.801  0.00  0.00    -0.004 C 
ATOM     14  C   UNL     1     -35.062  23.091   6.114  0.00  0.00    -0.004 C 
ATOM     15  C   UNL     1     -35.492  22.340   3.462  0.00  0.00    -0.000 C 
ATOM     16  C   UNL     1     -35.137  21.740   5.775  0.00  0.00    -0.000 C 
ATOM     17  C   UNL     1     -35.352  21.365   4.449  0.00  0.00    -0.000 C 
ENDBRANCH  11  12
ENDBRANCH   5  11
ENDBRANCH   2   5
BRANCH   3  18
ATOM     18  C   UNL     1     -31.806  28.920   6.426  0.00  0.00    +0.176 C 
BRANCH  18  20
ATOM     19  O   UNL     1     -29.408  30.420   5.818  0.00  0.00    -0.277 OA
ATOM     20  N   UNL     1     -30.453  28.644   6.888  0.00  0.00    -0.298 N 
ATOM     21  C   UNL     1     -29.367  29.425   6.538  0.00  0.00    +0.201 C 
ATOM     22  H   UNL     1     -30.304  27.868   7.474  0.00  0.00    +0.150 HD
BRANCH  21  23
ATOM     23  C   UNL     1     -28.081  28.889   7.134  0.00  0.00    +0.001 C 
BRANCH  23  24
ATOM     24  N   UNL     1     -28.265  27.481   7.455  0.00  0.00    +0.386 N 
ATOM     25  H   UNL     1     -28.139  26.920   6.613  0.00  0.00    -0.089 HD
ATOM     26  H   UNL     1     -29.206  27.336   7.822  0.00  0.00    -0.089 HD
ATOM     27  H   UNL     1     -27.580  27.201   8.157  0.00  0.00    -0.089 HD
ENDBRANCH  23  24
ENDBRANCH  21  23
ENDBRANCH  18  20
ENDBRANCH   3  18
TORSDOF 8
ENDMDL
MODEL 5
REMARK VINA RESULT:      -5.7      2.091      2.677
REMARK  Name = 53671692
REMARK  8 active torsions:
REMARK  status: ('A' for Active; 'I' for Inactive)
REMARK    1  A    between atoms: N_2  and  C_5
REMARK    2  A    between atoms: C_3  and  C_18
REMARK    3  A    between atoms: C_5  and  C_8
REMARK    4  A    between atoms: C_5  and  C_11
REMARK    5  A    between atoms: C_11  and  C_12
REMARK    6  A    between atoms: C_18  and  N_20
REMARK    7  A    between atoms: C_21  and  C_23
REMARK    8  A    between atoms: C_23  and  N_24
REMARK                            x       y       z     vdW  Elec       q    Type
REMARK                         _______ _______ _______ _____ _____    ______ ____
ROOT
ATOM      1  O   UNL     1     -34.832  23.635   2.680  0.00  0.00    -0.273 OA
ATOM      2  N   UNL     1     -36.310  21.898   3.125  0.00  0.00    -0.297 N 
ATOM      3  C   UNL     1     -35.602  23.051   3.440  0.00  0.00    +0.243 C 
ATOM      4  H   UNL     1     -36.901  21.511   3.810  0.00  0.00    +0.150 HD
ENDROOT
BRANCH   2   5
ATOM      5  C   UNL     1     -36.225  21.240   1.846  0.00  0.00    +0.153 C 
BRANCH   5   8
ATOM      6  O   UNL     1     -37.931  20.583   0.247  0.00  0.00    -0.274 OA
ATOM      7  N   UNL     1     -38.592  21.294   2.328  0.00  0.00    -0.327 N 
ATOM      8  C   UNL     1     -37.649  21.013   1.361  0.00  0.00    +0.238 C 
ATOM      9  H   UNL     1     -39.550  21.183   2.129  0.00  0.00    +0.145 HD
ATOM     10  H   UNL     1     -38.308  21.605   3.218  0.00  0.00    +0.145 HD
ENDBRANCH   5   8
BRANCH   5  11
ATOM     11  C   UNL     1     -35.472  19.907   1.930  0.00  0.00    +0.055 C 
BRANCH  11  12
ATOM     12  C   UNL     1     -34.122  19.954   1.256  0.00  0.00    -0.020 C 
ATOM     13  C   UNL     1     -33.761  21.066   0.495  0.00  0.00    -0.004 C 
ATOM     14  C   UNL     1     -33.237  18.886   1.392  0.00  0.00    -0.004 C 
ATOM     15  C   UNL     1     -32.514  21.111  -0.129  0.00  0.00    -0.000 C 
ATOM     16  C   UNL     1     -31.989  18.929   0.769  0.00  0.00    -0.000 C 
ATOM     17  C   UNL     1     -31.628  20.042   0.009  0.00  0.00    -0.000 C 
ENDBRANCH  11  12
ENDBRANCH   5  11
ENDBRANCH   2   5
BRANCH   3  18
ATOM     18  C   UNL     1     -35.860  23.505   4.862  0.00  0.00    +0.176 C 
BRANCH  18  20
ATOM     19  O   UNL     1     -36.069  26.305   5.563  0.00  0.00    -0.277 OA
ATOM     20  N   UNL     1     -34.782  24.394   5.272  0.00  0.00    -0.298 N 
ATOM     21  C   UNL     1     -34.985  25.724   5.587  0.00  0.00    +0.201 C 
ATOM     22  H   UNL     1     -33.869  24.032   5.327  0.00  0.00    +0.150 HD
BRANCH  21  23
ATOM     23  C   UNL     1     -33.687  26.415   5.948  0.00  0.00    +0.001 C 
BRANCH  23  24
ATOM     24  N   UNL     1     -33.370  27.388   4.913  0.00  0.00    +0.386 N 
ATOM     25  H   UNL     1     -32.610  27.989   5.232  0.00  0.00    -0.089 HD
ATOM     26  H   UNL     1     -34.193  27.957   4.718  0.00  0.00    -0.089 HD
ATOM     27  H   UNL     1     -33.085  26.900   4.064  0.00  0.00    -0.089 HD
ENDBRANCH  23  24
ENDBRANCH  21  23
ENDBRANCH  18  20
ENDBRANCH   3  18
TORSDOF 8
ENDMDL
MODEL 6
REMARK VINA RESULT:      -5.6      3.933      6.267
REMARK  Name = 53671692
REMARK  8 active torsions:
REMARK  status: ('A' for Active; 'I' for Inactive)
REMARK    1  A    between atoms: N_2  and  C_5
REMARK    2  A    between atoms: C_3  and  C_18
REMARK    3  A    between atoms: C_5  and  C_8
REMARK    4  A    between atoms: C_5  and  C_11
REMARK    5  A    between atoms: C_11  and  C_12
REMARK    6  A    between atoms: C_18  and  N_20
REMARK    7  A    between atoms: C_21  and  C_23
REMARK    8  A    between atoms: C_23  and  N_24
REMARK                            x       y       z     vdW  Elec       q    Type
REMARK                         _______ _______ _______ _____ _____    ______ ____
ROOT
ATOM      1  O   UNL     1     -36.533  22.751   1.626  0.00  0.00    -0.273 OA
ATOM      2  N   UNL     1     -36.932  22.873   3.911  0.00  0.00    -0.297 N 
ATOM      3  C   UNL     1     -37.311  22.797   2.577  0.00  0.00    +0.243 C 
ATOM      4  H   UNL     1     -37.638  22.906   4.596  0.00  0.00    +0.150 HD
ENDROOT
BRANCH   2   5
ATOM      5  C   UNL     1     -35.558  22.905   4.346  0.00  0.00    +0.153 C 
BRANCH   5   8
ATOM      6  O   UNL     1     -35.104  20.532   4.087  0.00  0.00    -0.274 OA
ATOM      7  N   UNL     1     -34.965  21.455   6.186  0.00  0.00    -0.327 N 
ATOM      8  C   UNL     1     -35.207  21.506   4.829  0.00  0.00    +0.238 C 
ATOM      9  H   UNL     1     -34.727  20.599   6.612  0.00  0.00    +0.145 HD
ATOM     10  H   UNL     1     -35.029  22.274   6.729  0.00  0.00    +0.145 HD
ENDBRANCH   5   8
BRANCH   5  11
ATOM     11  C   UNL     1     -35.328  23.929   5.464  0.00  0.00    +0.055 C 
BRANCH  11  12
ATOM     12  C   UNL     1     -34.485  25.099   5.020  0.00  0.00    -0.020 C 
ATOM     13  C   UNL     1     -34.023  26.022   5.959  0.00  0.00    -0.004 C 
ATOM     14  C   UNL     1     -34.170  25.259   3.672  0.00  0.00    -0.004 C 
ATOM     15  C   UNL     1     -33.243  27.104   5.548  0.00  0.00    -0.000 C 
ATOM     16  C   UNL     1     -33.391  26.341   3.260  0.00  0.00    -0.000 C 
ATOM     17  C   UNL     1     -32.928  27.263   4.199  0.00  0.00    -0.000 C 
ENDBRANCH  11  12
ENDBRANCH   5  11
ENDBRANCH   2   5
BRANCH   3  18
ATOM     18  C   UNL     1     -38.816  22.811   2.412  0.00  0.00    +0.176 C 
BRANCH  18  20
ATOM     19  O   UNL     1     -41.206  24.024   1.322  0.00  0.00    -0.277 OA
ATOM     20  N   UNL     1     -39.300  24.165   2.640  0.00  0.00    -0.298 N 
ATOM     21  C   UNL     1     -40.460  24.653   2.069  0.00  0.00    +0.201 C 
ATOM     22  H   UNL     1     -38.778  24.759   3.226  0.00  0.00    +0.150 HD
BRANCH  21  23
ATOM     23  C   UNL     1     -40.703  26.099   2.453  0.00  0.00    +0.001 C 
BRANCH  23  24
ATOM     24  N   UNL     1     -40.933  26.170   3.889  0.00  0.00    +0.386 N 
ATOM     25  H   UNL     1     -40.947  27.147   4.183  0.00  0.00    -0.089 HD
ATOM     26  H   UNL     1     -40.185  25.679   4.377  0.00  0.00    -0.089 HD
ATOM     27  H   UNL     1     -41.828  25.735   4.111  0.00  0.00    -0.089 HD
ENDBRANCH  23  24
ENDBRANCH  21  23
ENDBRANCH  18  20
ENDBRANCH   3  18
TORSDOF 8
ENDMDL
MODEL 7
REMARK VINA RESULT:      -5.6      3.431      6.012
REMARK  Name = 53671692
REMARK  8 active torsions:
REMARK  status: ('A' for Active; 'I' for Inactive)
REMARK    1  A    between atoms: N_2  and  C_5
REMARK    2  A    between atoms: C_3  and  C_18
REMARK    3  A    between atoms: C_5  and  C_8
REMARK    4  A    between atoms: C_5  and  C_11
REMARK    5  A    between atoms: C_11  and  C_12
REMARK    6  A    between atoms: C_18  and  N_20
REMARK    7  A    between atoms: C_21  and  C_23
REMARK    8  A    between atoms: C_23  and  N_24
REMARK                            x       y       z     vdW  Elec       q    Type
REMARK                         _______ _______ _______ _____ _____    ______ ____
ROOT
ATOM      1  O   UNL     1     -37.648  24.643   2.025  0.00  0.00    -0.273 OA
ATOM      2  N   UNL     1     -37.725  22.537   3.003  0.00  0.00    -0.297 N 
ATOM      3  C   UNL     1     -38.286  23.695   2.479  0.00  0.00    +0.243 C 
ATOM      4  H   UNL     1     -38.330  21.838   3.342  0.00  0.00    +0.150 HD
ENDROOT
BRANCH   2   5
ATOM      5  C   UNL     1     -36.304  22.306   3.076  0.00  0.00    +0.153 C 
BRANCH   5   8
ATOM      6  O   UNL     1     -35.008  20.258   2.917  0.00  0.00    -0.274 OA
ATOM      7  N   UNL     1     -37.193  20.233   2.208  0.00  0.00    -0.327 N 
ATOM      8  C   UNL     1     -36.069  20.845   2.723  0.00  0.00    +0.238 C 
ATOM      9  H   UNL     1     -37.160  19.285   1.944  0.00  0.00    +0.145 HD
ATOM     10  H   UNL     1     -38.028  20.744   2.105  0.00  0.00    +0.145 HD
ENDBRANCH   5   8
BRANCH   5  11
ATOM     11  C   UNL     1     -35.738  22.616   4.467  0.00  0.00    +0.055 C 
BRANCH  11  12
ATOM     12  C   UNL     1     -35.051  23.958   4.532  0.00  0.00    -0.020 C 
ATOM     13  C   UNL     1     -35.060  24.691   5.719  0.00  0.00    -0.004 C 
ATOM     14  C   UNL     1     -34.407  24.467   3.405  0.00  0.00    -0.004 C 
ATOM     15  C   UNL     1     -34.425  25.932   5.779  0.00  0.00    -0.000 C 
ATOM     16  C   UNL     1     -33.772  25.707   3.464  0.00  0.00    -0.000 C 
ATOM     17  C   UNL     1     -33.781  26.439   4.651  0.00  0.00    -0.000 C 
ENDBRANCH  11  12
ENDBRANCH   5  11
ENDBRANCH   2   5
BRANCH   3  18
ATOM     18  C   UNL     1     -39.798  23.680   2.557  0.00  0.00    +0.176 C 
BRANCH  18  20
ATOM     19  O   UNL     1     -40.120  21.019   1.468  0.00  0.00    -0.277 OA
ATOM     20  N   UNL     1     -40.330  23.321   1.250  0.00  0.00    -0.298 N 
ATOM     21  C   UNL     1     -40.443  22.012   0.820  0.00  0.00    +0.201 C 
ATOM     22  H   UNL     1     -40.622  24.041   0.646  0.00  0.00    +0.150 HD
BRANCH  21  23
ATOM     23  C   UNL     1     -40.997  21.935  -0.588  0.00  0.00    +0.001 C 
BRANCH  23  24
ATOM     24  N   UNL     1     -42.437  22.144  -0.537  0.00  0.00    +0.386 N 
ATOM     25  H   UNL     1     -42.860  21.451   0.081  0.00  0.00    -0.089 HD
ATOM     26  H   UNL     1     -42.828  22.046  -1.474  0.00  0.00    -0.089 HD
ATOM     27  H   UNL     1     -42.632  23.080  -0.184  0.00  0.00    -0.089 HD
ENDBRANCH  23  24
ENDBRANCH  21  23
ENDBRANCH  18  20
ENDBRANCH   3  18
TORSDOF 8
ENDMDL
MODEL 8
REMARK VINA RESULT:      -5.5      1.715      2.318
REMARK  Name = 53671692
REMARK  8 active torsions:
REMARK  status: ('A' for Active; 'I' for Inactive)
REMARK    1  A    between atoms: N_2  and  C_5
REMARK    2  A    between atoms: C_3  and  C_18
REMARK    3  A    between atoms: C_5  and  C_8
REMARK    4  A    between atoms: C_5  and  C_11
REMARK    5  A    between atoms: C_11  and  C_12
REMARK    6  A    between atoms: C_18  and  N_20
REMARK    7  A    between atoms: C_21  and  C_23
REMARK    8  A    between atoms: C_23  and  N_24
REMARK                            x       y       z     vdW  Elec       q    Type
REMARK                         _______ _______ _______ _____ _____    ______ ____
ROOT
ATOM      1  O   UNL     1     -34.607  21.700   0.932  0.00  0.00    -0.273 OA
ATOM      2  N   UNL     1     -35.233  19.513   1.403  0.00  0.00    -0.297 N 
ATOM      3  C   UNL     1     -35.315  20.894   1.532  0.00  0.00    +0.243 C 
ATOM      4  H   UNL     1     -35.850  18.957   1.932  0.00  0.00    +0.150 HD
ENDROOT
BRANCH   2   5
ATOM      5  C   UNL     1     -34.294  18.851   0.533  0.00  0.00    +0.153 C 
BRANCH   5   8
ATOM      6  O   UNL     1     -35.874  17.920  -1.060  0.00  0.00    -0.274 OA
ATOM      7  N   UNL     1     -34.661  16.479   0.254  0.00  0.00    -0.327 N 
ATOM      8  C   UNL     1     -35.046  17.733  -0.172  0.00  0.00    +0.238 C 
ATOM      9  H   UNL     1     -35.080  15.676  -0.134  0.00  0.00    +0.145 HD
ATOM     10  H   UNL     1     -33.966  16.386   0.946  0.00  0.00    +0.145 HD
ENDBRANCH   5   8
BRANCH   5  11
ATOM     11  C   UNL     1     -33.094  18.285   1.302  0.00  0.00    +0.055 C 
BRANCH  11  12
ATOM     12  C   UNL     1     -31.770  18.704   0.709  0.00  0.00    -0.020 C 
ATOM     13  C   UNL     1     -31.666  19.913   0.021  0.00  0.00    -0.004 C 
ATOM     14  C   UNL     1     -30.653  17.882   0.849  0.00  0.00    -0.004 C 
ATOM     15  C   UNL     1     -30.442  20.300  -0.527  0.00  0.00    -0.000 C 
ATOM     16  C   UNL     1     -29.429  18.269   0.302  0.00  0.00    -0.000 C 
ATOM     17  C   UNL     1     -29.325  19.478  -0.386  0.00  0.00    -0.000 C 
ENDBRANCH  11  12
ENDBRANCH   5  11
ENDBRANCH   2   5
BRANCH   3  18
ATOM     18  C   UNL     1     -36.369  21.310   2.537  0.00  0.00    +0.176 C 
BRANCH  18  20
ATOM     19  O   UNL     1     -36.774  23.555   4.317  0.00  0.00    -0.277 OA
ATOM     20  N   UNL     1     -35.725  21.543   3.821  0.00  0.00    -0.298 N 
ATOM     21  C   UNL     1     -35.988  22.654   4.601  0.00  0.00    +0.201 C 
ATOM     22  H   UNL     1     -35.074  20.882   4.149  0.00  0.00    +0.150 HD
BRANCH  21  23
ATOM     23  C   UNL     1     -35.154  22.655   5.866  0.00  0.00    +0.001 C 
BRANCH  23  24
ATOM     24  N   UNL     1     -34.732  21.291   6.150  0.00  0.00    +0.386 N 
ATOM     25  H   UNL     1     -35.543  20.673   6.138  0.00  0.00    -0.089 HD
ATOM     26  H   UNL     1     -34.292  21.256   7.070  0.00  0.00    -0.089 HD
ATOM     27  H   UNL     1     -34.063  20.989   5.442  0.00  0.00    -0.089 HD
ENDBRANCH  23  24
ENDBRANCH  21  23
ENDBRANCH  18  20
ENDBRANCH   3  18
TORSDOF 8
ENDMDL
MODEL 9
REMARK VINA RESULT:      -5.5      2.413      3.313
REMARK  Name = 53671692
REMARK  8 active torsions:
REMARK  status: ('A' for Active; 'I' for Inactive)
REMARK    1  A    between atoms: N_2  and  C_5
REMARK    2  A    between atoms: C_3  and  C_18
REMARK    3  A    between atoms: C_5  and  C_8
REMARK    4  A    between atoms: C_5  and  C_11
REMARK    5  A    between atoms: C_11  and  C_12
REMARK    6  A    between atoms: C_18  and  N_20
REMARK    7  A    between atoms: C_21  and  C_23
REMARK    8  A    between atoms: C_23  and  N_24
REMARK                            x       y       z     vdW  Elec       q    Type
REMARK                         _______ _______ _______ _____ _____    ______ ____
ROOT
ATOM      1  O   UNL     1     -36.073  24.334   1.882  0.00  0.00    -0.273 OA
ATOM      2  N   UNL     1     -36.976  22.426   2.852  0.00  0.00    -0.297 N 
ATOM      3  C   UNL     1     -36.670  23.781   2.803  0.00  0.00    +0.243 C 
ATOM      4  H   UNL     1     -37.459  22.085   3.640  0.00  0.00    +0.150 HD
ENDROOT
BRANCH   2   5
ATOM      5  C   UNL     1     -36.625  21.495   1.810  0.00  0.00    +0.153 C 
BRANCH   5   8
ATOM      6  O   UNL     1     -38.020  20.335   0.195  0.00  0.00    -0.274 OA
ATOM      7  N   UNL     1     -38.972  21.041   2.162  0.00  0.00    -0.327 N 
ATOM      8  C   UNL     1     -37.923  20.908   1.276  0.00  0.00    +0.238 C 
ATOM      9  H   UNL     1     -39.865  20.697   1.924  0.00  0.00    +0.145 HD
ATOM     10  H   UNL     1     -38.831  21.480   3.032  0.00  0.00    +0.145 HD
ENDBRANCH   5   8
BRANCH   5  11
ATOM     11  C   UNL     1     -35.704  20.379   2.318  0.00  0.00    +0.055 C 
BRANCH  11  12
ATOM     12  C   UNL     1     -34.428  20.266   1.521  0.00  0.00    -0.020 C 
ATOM     13  C   UNL     1     -33.645  19.115   1.616  0.00  0.00    -0.004 C 
ATOM     14  C   UNL     1     -34.032  21.312   0.689  0.00  0.00    -0.004 C 
ATOM     15  C   UNL     1     -32.465  19.011   0.879  0.00  0.00    -0.000 C 
ATOM     16  C   UNL     1     -32.852  21.209  -0.048  0.00  0.00    -0.000 C 
ATOM     17  C   UNL     1     -32.069  20.058   0.047  0.00  0.00    -0.000 C 
ENDBRANCH  11  12
ENDBRANCH   5  11
ENDBRANCH   2   5
BRANCH   3  18
ATOM     18  C   UNL     1     -37.132  24.514   4.045  0.00  0.00    +0.176 C 
BRANCH  18  20
ATOM     19  O   UNL     1     -39.763  23.764   3.103  0.00  0.00    -0.277 OA
ATOM     20  N   UNL     1     -38.225  25.404   3.684  0.00  0.00    -0.298 N 
ATOM     21  C   UNL     1     -39.452  24.945   3.241  0.00  0.00    +0.201 C 
ATOM     22  H   UNL     1     -38.085  26.376   3.757  0.00  0.00    +0.150 HD
BRANCH  21  23
ATOM     23  C   UNL     1     -40.386  26.090   2.907  0.00  0.00    +0.001 C 
BRANCH  23  24
ATOM     24  N   UNL     1     -41.186  26.401   4.084  0.00  0.00    +0.386 N 
ATOM     25  H   UNL     1     -41.157  25.614   4.732  0.00  0.00    -0.089 HD
ATOM     26  H   UNL     1     -42.151  26.575   3.803  0.00  0.00    -0.089 HD
ATOM     27  H   UNL     1     -40.809  27.232   4.539  0.00  0.00    -0.089 HD
ENDBRANCH  23  24
ENDBRANCH  21  23
ENDBRANCH  18  20
ENDBRANCH   3  18
TORSDOF 8
ENDMDL
