MODEL 1
REMARK VINA RESULT:      -6.7      0.000      0.000
REMARK  Name = 21121405
REMARK  7 active torsions:
REMARK  status: ('A' for Active; 'I' for Inactive)
REMARK    1  A    between atoms: C_6  and  C_24
REMARK    2  A    between atoms: C_10  and  O_20
REMARK    3  A    between atoms: C_19  and  O_22
REMARK    4  A    between atoms: C_24  and  C_26
REMARK    5  A    between atoms: C_26  and  C_27
REMARK    6  A    between atoms: C_27  and  C_28
REMARK    7  A    between atoms: C_28  and  S_29
REMARK                            x       y       z     vdW  Elec       q    Type
REMARK                         _______ _______ _______ _____ _____    ______ ____
ROOT
ATOM      1  C   UNL     1     -37.207  22.315   1.918  0.00  0.00    +0.002 C 
ATOM      2  C   UNL     1     -35.878  22.297   2.709  0.00  0.00    +0.000 C 
ATOM      3  C   UNL     1     -37.046  21.831   0.462  0.00  0.00    +0.027 C 
ATOM      4  C   UNL     1     -36.494  20.365   0.492  0.00  0.00    +0.002 C 
ATOM      5  C   UNL     1     -36.338  19.752  -0.950  0.00  0.00    +0.000 C 
ATOM      6  C   UNL     1     -36.381  22.858   4.061  0.00  0.00    +0.000 C 
ATOM      7  C   UNL     1     -37.703  19.853  -1.707  0.00  0.00    +0.005 C 
ATOM      8  C   UNL     1     -35.381  20.847   2.772  0.00  0.00    +0.000 C 
ATOM      9  C   UNL     1     -35.219  20.242   1.369  0.00  0.00    +0.000 C 
ATOM     10  C   UNL     1     -38.365  21.913  -0.331  0.00  0.00    +0.110 C 
ATOM     11  C   UNL     1     -37.765  23.707   2.205  0.00  0.00    +0.000 C 
ATOM     12  C   UNL     1     -37.329  24.004   3.652  0.00  0.00    +0.000 C 
ATOM     13  C   UNL     1     -38.248  21.286  -1.721  0.00  0.00    +0.029 C 
ATOM     14  C   UNL     1     -35.906  18.257  -0.923  0.00  0.00    +0.002 C 
ATOM     15  C   UNL     1     -34.773  23.201   2.106  0.00  0.00    +0.000 C 
ATOM     16  C   UNL     1     -38.766  18.881  -1.156  0.00  0.00    +0.029 C 
ATOM     17  C   UNL     1     -35.246  20.502  -1.755  0.00  0.00    +0.000 C 
ATOM     18  C   UNL     1     -36.962  17.318  -0.351  0.00  0.00    +0.029 C 
ATOM     19  C   UNL     1     -38.271  17.438  -1.120  0.00  0.00    +0.111 C 
ENDROOT
BRANCH  10  20
ATOM     20  O   UNL     1     -38.736  23.279  -0.508  0.00  0.00    -0.384 OA
ATOM     21  H   UNL     1     -38.058  23.731  -1.035  0.00  0.00    +0.210 HD
ENDBRANCH  10  20
BRANCH  19  22
ATOM     22  O   UNL     1     -39.244  16.612  -0.491  0.00  0.00    -0.384 OA
ATOM     23  H   UNL     1     -38.948  15.688  -0.512  0.00  0.00    +0.210 HD
ENDBRANCH  19  22
BRANCH   6  24
ATOM     24  C   UNL     1     -35.316  23.297   5.056  0.00  0.00    +0.000 C 
ATOM     25  C   UNL     1     -35.235  22.297   6.214  0.00  0.00    +0.000 C 
BRANCH  24  26
ATOM     26  C   UNL     1     -35.607  24.732   5.546  0.00  0.00    +0.002 C 
BRANCH  26  27
ATOM     27  C   UNL     1     -34.369  25.632   5.590  0.00  0.00    +0.026 C 
BRANCH  27  28
ATOM     28  C   UNL     1     -34.106  26.271   4.234  0.00  0.00    +0.158 C 
BRANCH  28  29
ATOM     29  S   UNL     1     -32.961  27.607   4.365  0.00  0.00    +0.023 S 
ATOM     30  O   UNL     1     -32.804  27.772   5.810  0.00  0.00    -0.069 OA
ATOM     31  O   UNL     1     -31.777  27.103   3.670  0.00  0.00    -0.069 OA
ATOM     32  O   UNL     1     -33.650  28.705   3.691  0.00  0.00    -0.069 OA
ENDBRANCH  28  29
ENDBRANCH  27  28
ENDBRANCH  26  27
ENDBRANCH  24  26
ENDBRANCH   6  24
TORSDOF 7
ENDMDL
MODEL 2
REMARK VINA RESULT:      -6.4      3.374      5.372
REMARK  Name = 21121405
REMARK  7 active torsions:
REMARK  status: ('A' for Active; 'I' for Inactive)
REMARK    1  A    between atoms: C_6  and  C_24
REMARK    2  A    between atoms: C_10  and  O_20
REMARK    3  A    between atoms: C_19  and  O_22
REMARK    4  A    between atoms: C_24  and  C_26
REMARK    5  A    between atoms: C_26  and  C_27
REMARK    6  A    between atoms: C_27  and  C_28
REMARK    7  A    between atoms: C_28  and  S_29
REMARK                            x       y       z     vdW  Elec       q    Type
REMARK                         _______ _______ _______ _____ _____    ______ ____
ROOT
ATOM      1  C   UNL     1     -34.064  25.250   4.115  0.00  0.00    +0.002 C 
ATOM      2  C   UNL     1     -33.459  26.413   3.295  0.00  0.00    +0.000 C 
ATOM      3  C   UNL     1     -35.149  24.471   3.345  0.00  0.00    +0.027 C 
ATOM      4  C   UNL     1     -34.499  23.887   2.042  0.00  0.00    +0.002 C 
ATOM      5  C   UNL     1     -35.513  23.027   1.199  0.00  0.00    +0.000 C 
ATOM      6  C   UNL     1     -32.474  26.979   4.346  0.00  0.00    +0.000 C 
ATOM      7  C   UNL     1     -36.122  21.908   2.106  0.00  0.00    +0.005 C 
ATOM      8  C   UNL     1     -32.784  25.818   2.052  0.00  0.00    +0.000 C 
ATOM      9  C   UNL     1     -33.767  24.981   1.219  0.00  0.00    +0.000 C 
ATOM     10  C   UNL     1     -35.785  23.355   4.196  0.00  0.00    +0.110 C 
ATOM     11  C   UNL     1     -34.398  25.905   5.454  0.00  0.00    +0.000 C 
ATOM     12  C   UNL     1     -33.284  26.948   5.660  0.00  0.00    +0.000 C 
ATOM     13  C   UNL     1     -36.742  22.479   3.386  0.00  0.00    +0.029 C 
ATOM     14  C   UNL     1     -34.843  22.345  -0.030  0.00  0.00    +0.002 C 
ATOM     15  C   UNL     1     -34.492  27.484   2.863  0.00  0.00    +0.000 C 
ATOM     16  C   UNL     1     -35.107  20.799   2.452  0.00  0.00    +0.029 C 
ATOM     17  C   UNL     1     -36.654  23.910   0.634  0.00  0.00    +0.000 C 
ATOM     18  C   UNL     1     -33.826  21.271   0.335  0.00  0.00    +0.029 C 
ATOM     19  C   UNL     1     -34.459  20.196   1.209  0.00  0.00    +0.111 C 
ENDROOT
BRANCH  10  20
ATOM     20  O   UNL     1     -36.534  23.933   5.263  0.00  0.00    -0.384 OA
ATOM     21  H   UNL     1     -37.481  23.785   5.111  0.00  0.00    +0.210 HD
ENDBRANCH  10  20
BRANCH  19  22
ATOM     22  O   UNL     1     -33.448  19.271   1.595  0.00  0.00    -0.384 OA
ATOM     23  H   UNL     1     -33.832  18.596   2.176  0.00  0.00    +0.210 HD
ENDBRANCH  19  22
BRANCH   6  24
ATOM     24  C   UNL     1     -31.875  28.348   4.053  0.00  0.00    +0.000 C 
ATOM     25  C   UNL     1     -30.459  28.191   3.490  0.00  0.00    +0.000 C 
BRANCH  24  26
ATOM     26  C   UNL     1     -31.903  29.223   5.324  0.00  0.00    +0.002 C 
BRANCH  26  27
ATOM     27  C   UNL     1     -30.556  29.871   5.657  0.00  0.00    +0.026 C 
BRANCH  27  28
ATOM     28  C   UNL     1     -30.061  29.434   7.027  0.00  0.00    +0.158 C 
BRANCH  28  29
ATOM     29  S   UNL     1     -28.535  28.555   6.907  0.00  0.00    +0.023 S 
ATOM     30  O   UNL     1     -27.911  28.790   8.209  0.00  0.00    -0.069 OA
ATOM     31  O   UNL     1     -28.960  27.176   6.668  0.00  0.00    -0.069 OA
ATOM     32  O   UNL     1     -27.866  29.199   5.778  0.00  0.00    -0.069 OA
ENDBRANCH  28  29
ENDBRANCH  27  28
ENDBRANCH  26  27
ENDBRANCH  24  26
ENDBRANCH   6  24
TORSDOF 7
ENDMDL
MODEL 3
REMARK VINA RESULT:      -6.4      2.039      2.764
REMARK  Name = 21121405
REMARK  7 active torsions:
REMARK  status: ('A' for Active; 'I' for Inactive)
REMARK    1  A    between atoms: C_6  and  C_24
REMARK    2  A    between atoms: C_10  and  O_20
REMARK    3  A    between atoms: C_19  and  O_22
REMARK    4  A    between atoms: C_24  and  C_26
REMARK    5  A    between atoms: C_26  and  C_27
REMARK    6  A    between atoms: C_27  and  C_28
REMARK    7  A    between atoms: C_28  and  S_29
REMARK                            x       y       z     vdW  Elec       q    Type
REMARK                         _______ _______ _______ _____ _____    ______ ____
ROOT
ATOM      1  C   UNL     1     -36.318  20.126   0.906  0.00  0.00    +0.002 C 
ATOM      2  C   UNL     1     -35.203  20.808   1.735  0.00  0.00    +0.000 C 
ATOM      3  C   UNL     1     -35.821  19.608  -0.458  0.00  0.00    +0.027 C 
ATOM      4  C   UNL     1     -34.676  18.569  -0.199  0.00  0.00    +0.002 C 
ATOM      5  C   UNL     1     -34.126  17.936  -1.532  0.00  0.00    +0.000 C 
ATOM      6  C   UNL     1     -36.030  21.227   2.975  0.00  0.00    +0.000 C 
ATOM      7  C   UNL     1     -35.313  17.315  -2.339  0.00  0.00    +0.005 C 
ATOM      8  C   UNL     1     -34.117  19.764   2.022  0.00  0.00    +0.000 C 
ATOM      9  C   UNL     1     -33.570  19.144   0.727  0.00  0.00    +0.000 C 
ATOM     10  C   UNL     1     -36.955  18.986  -1.297  0.00  0.00    +0.110 C 
ATOM     11  C   UNL     1     -37.465  21.133   0.972  0.00  0.00    +0.000 C 
ATOM     12  C   UNL     1     -37.348  21.758   2.373  0.00  0.00    +0.000 C 
ATOM     13  C   UNL     1     -36.438  18.328  -2.577  0.00  0.00    +0.029 C 
ATOM     14  C   UNL     1     -33.074  16.817  -1.275  0.00  0.00    +0.002 C 
ATOM     15  C   UNL     1     -34.569  22.042   1.043  0.00  0.00    +0.000 C 
ATOM     16  C   UNL     1     -35.874  16.035  -1.688  0.00  0.00    +0.029 C 
ATOM     17  C   UNL     1     -33.415  19.005  -2.401  0.00  0.00    +0.000 C 
ATOM     18  C   UNL     1     -33.645  15.572  -0.608  0.00  0.00    +0.029 C 
ATOM     19  C   UNL     1     -34.790  14.992  -1.428  0.00  0.00    +0.111 C 
ENDROOT
BRANCH  10  20
ATOM     20  O   UNL     1     -37.880  20.002  -1.681  0.00  0.00    -0.384 OA
ATOM     21  H   UNL     1     -37.773  20.772  -1.101  0.00  0.00    +0.210 HD
ENDBRANCH  10  20
BRANCH  19  22
ATOM     22  O   UNL     1     -35.344  13.890  -0.718  0.00  0.00    -0.384 OA
ATOM     23  H   UNL     1     -35.416  13.125  -1.311  0.00  0.00    +0.210 HD
ENDBRANCH  19  22
BRANCH   6  24
ATOM     24  C   UNL     1     -35.374  22.215   3.930  0.00  0.00    +0.000 C 
ATOM     25  C   UNL     1     -35.157  21.558   5.297  0.00  0.00    +0.000 C 
BRANCH  24  26
ATOM     26  C   UNL     1     -36.223  23.500   4.030  0.00  0.00    +0.002 C 
BRANCH  26  27
ATOM     27  C   UNL     1     -35.890  24.367   5.247  0.00  0.00    +0.026 C 
BRANCH  27  28
ATOM     28  C   UNL     1     -35.730  25.828   4.852  0.00  0.00    +0.158 C 
BRANCH  28  29
ATOM     29  S   UNL     1     -34.048  26.347   4.981  0.00  0.00    +0.023 S 
ATOM     30  O   UNL     1     -33.857  26.504   6.422  0.00  0.00    -0.069 OA
ATOM     31  O   UNL     1     -33.308  25.238   4.379  0.00  0.00    -0.069 OA
ATOM     32  O   UNL     1     -34.022  27.593   4.217  0.00  0.00    -0.069 OA
ENDBRANCH  28  29
ENDBRANCH  27  28
ENDBRANCH  26  27
ENDBRANCH  24  26
ENDBRANCH   6  24
TORSDOF 7
ENDMDL
MODEL 4
REMARK VINA RESULT:      -6.2      3.060      8.505
REMARK  Name = 21121405
REMARK  7 active torsions:
REMARK  status: ('A' for Active; 'I' for Inactive)
REMARK    1  A    between atoms: C_6  and  C_24
REMARK    2  A    between atoms: C_10  and  O_20
REMARK    3  A    between atoms: C_19  and  O_22
REMARK    4  A    between atoms: C_24  and  C_26
REMARK    5  A    between atoms: C_26  and  C_27
REMARK    6  A    between atoms: C_27  and  C_28
REMARK    7  A    between atoms: C_28  and  S_29
REMARK                            x       y       z     vdW  Elec       q    Type
REMARK                         _______ _______ _______ _____ _____    ______ ____
ROOT
ATOM      1  C   UNL     1     -34.563  22.617   0.855  0.00  0.00    +0.002 C 
ATOM      2  C   UNL     1     -35.070  21.211   1.252  0.00  0.00    +0.000 C 
ATOM      3  C   UNL     1     -35.429  23.755   1.432  0.00  0.00    +0.027 C 
ATOM      4  C   UNL     1     -35.416  23.634   2.995  0.00  0.00    +0.002 C 
ATOM      5  C   UNL     1     -36.236  24.783   3.693  0.00  0.00    +0.000 C 
ATOM      6  C   UNL     1     -34.033  20.345   0.499  0.00  0.00    +0.000 C 
ATOM      7  C   UNL     1     -35.704  26.170   3.205  0.00  0.00    +0.005 C 
ATOM      8  C   UNL     1     -35.002  21.094   2.780  0.00  0.00    +0.000 C 
ATOM      9  C   UNL     1     -35.804  22.208   3.471  0.00  0.00    +0.000 C 
ATOM     10  C   UNL     1     -34.948  25.146   0.979  0.00  0.00    +0.110 C 
ATOM     11  C   UNL     1     -34.359  22.500  -0.654  0.00  0.00    +0.000 C 
ATOM     12  C   UNL     1     -33.891  21.050  -0.867  0.00  0.00    +0.000 C 
ATOM     13  C   UNL     1     -35.702  26.280   1.676  0.00  0.00    +0.029 C 
ATOM     14  C   UNL     1     -36.127  24.740   5.246  0.00  0.00    +0.002 C 
ATOM     15  C   UNL     1     -36.511  20.902   0.771  0.00  0.00    +0.000 C 
ATOM     16  C   UNL     1     -34.307  26.507   3.767  0.00  0.00    +0.029 C 
ATOM     17  C   UNL     1     -37.746  24.666   3.363  0.00  0.00    +0.000 C 
ATOM     18  C   UNL     1     -34.733  25.051   5.777  0.00  0.00    +0.029 C 
ATOM     19  C   UNL     1     -34.254  26.411   5.289  0.00  0.00    +0.111 C 
ENDROOT
BRANCH  10  20
ATOM     20  O   UNL     1     -35.158  25.293  -0.425  0.00  0.00    -0.384 OA
ATOM     21  H   UNL     1     -36.078  25.072  -0.639  0.00  0.00    +0.210 HD
ENDBRANCH  10  20
BRANCH  19  22
ATOM     22  O   UNL     1     -32.918  26.611   5.736  0.00  0.00    -0.384 OA
ATOM     23  H   UNL     1     -32.675  25.903   6.354  0.00  0.00    +0.210 HD
ENDBRANCH  19  22
BRANCH   6  24
ATOM     24  C   UNL     1     -34.347  18.861   0.370  0.00  0.00    +0.000 C 
ATOM     25  C   UNL     1     -33.271  18.033   1.079  0.00  0.00    +0.000 C 
BRANCH  24  26
ATOM     26  C   UNL     1     -34.491  18.477  -1.118  0.00  0.00    +0.002 C 
BRANCH  26  27
ATOM     27  C   UNL     1     -35.922  18.116  -1.528  0.00  0.00    +0.026 C 
BRANCH  27  28
ATOM     28  C   UNL     1     -36.680  17.480  -0.371  0.00  0.00    +0.158 C 
BRANCH  28  29
ATOM     29  S   UNL     1     -36.866  15.741  -0.606  0.00  0.00    +0.023 S 
ATOM     30  O   UNL     1     -36.862  15.598  -2.061  0.00  0.00    -0.069 OA
ATOM     31  O   UNL     1     -35.694  15.185   0.071  0.00  0.00    -0.069 OA
ATOM     32  O   UNL     1     -38.145  15.452   0.039  0.00  0.00    -0.069 OA
ENDBRANCH  28  29
ENDBRANCH  27  28
ENDBRANCH  26  27
ENDBRANCH  24  26
ENDBRANCH   6  24
TORSDOF 7
ENDMDL
MODEL 5
REMARK VINA RESULT:      -6.2      4.626      7.152
REMARK  Name = 21121405
REMARK  7 active torsions:
REMARK  status: ('A' for Active; 'I' for Inactive)
REMARK    1  A    between atoms: C_6  and  C_24
REMARK    2  A    between atoms: C_10  and  O_20
REMARK    3  A    between atoms: C_19  and  O_22
REMARK    4  A    between atoms: C_24  and  C_26
REMARK    5  A    between atoms: C_26  and  C_27
REMARK    6  A    between atoms: C_27  and  C_28
REMARK    7  A    between atoms: C_28  and  S_29
REMARK                            x       y       z     vdW  Elec       q    Type
REMARK                         _______ _______ _______ _____ _____    ______ ____
ROOT
ATOM      1  C   UNL     1     -39.184  23.904   1.686  0.00  0.00    +0.002 C 
ATOM      2  C   UNL     1     -39.585  25.347   2.074  0.00  0.00    +0.000 C 
ATOM      3  C   UNL     1     -37.657  23.700   1.625  0.00  0.00    +0.027 C 
ATOM      4  C   UNL     1     -37.062  24.029   3.037  0.00  0.00    +0.002 C 
ATOM      5  C   UNL     1     -35.505  23.804   3.100  0.00  0.00    +0.000 C 
ATOM      6  C   UNL     1     -41.125  25.210   2.004  0.00  0.00    +0.000 C 
ATOM      7  C   UNL     1     -35.173  22.345   2.646  0.00  0.00    +0.005 C 
ATOM      8  C   UNL     1     -39.038  25.632   3.478  0.00  0.00    +0.000 C 
ATOM      9  C   UNL     1     -37.518  25.422   3.548  0.00  0.00    +0.000 C 
ATOM     10  C   UNL     1     -37.274  22.275   1.179  0.00  0.00    +0.110 C 
ATOM     11  C   UNL     1     -40.045  23.622   0.456  0.00  0.00    +0.000 C 
ATOM     12  C   UNL     1     -41.360  24.375   0.727  0.00  0.00    +0.000 C 
ATOM     13  C   UNL     1     -35.769  22.021   1.272  0.00  0.00    +0.029 C 
ATOM     14  C   UNL     1     -34.927  24.012   4.531  0.00  0.00    +0.002 C 
ATOM     15  C   UNL     1     -39.075  26.429   1.087  0.00  0.00    +0.000 C 
ATOM     16  C   UNL     1     -35.602  21.284   3.680  0.00  0.00    +0.029 C 
ATOM     17  C   UNL     1     -34.762  24.810   2.184  0.00  0.00    +0.000 C 
ATOM     18  C   UNL     1     -35.384  22.967   5.541  0.00  0.00    +0.029 C 
ATOM     19  C   UNL     1     -35.034  21.562   5.069  0.00  0.00    +0.111 C 
ENDROOT
BRANCH  10  20
ATOM     20  O   UNL     1     -37.658  22.078  -0.181  0.00  0.00    -0.384 OA
ATOM     21  H   UNL     1     -37.138  21.353  -0.562  0.00  0.00    +0.210 HD
ENDBRANCH  10  20
BRANCH  19  22
ATOM     22  O   UNL     1     -35.562  20.625   6.000  0.00  0.00    -0.384 OA
ATOM     23  H   UNL     1     -34.859  20.021   6.286  0.00  0.00    +0.210 HD
ENDBRANCH  19  22
BRANCH   6  24
ATOM     24  C   UNL     1     -41.926  26.504   2.021  0.00  0.00    +0.000 C 
ATOM     25  C   UNL     1     -42.486  26.756   3.425  0.00  0.00    +0.000 C 
BRANCH  24  26
ATOM     26  C   UNL     1     -43.038  26.454   0.951  0.00  0.00    +0.002 C 
BRANCH  26  27
ATOM     27  C   UNL     1     -43.052  27.669   0.018  0.00  0.00    +0.026 C 
BRANCH  27  28
ATOM     28  C   UNL     1     -41.858  28.575   0.278  0.00  0.00    +0.158 C 
BRANCH  28  29
ATOM     29  S   UNL     1     -42.372  30.196   0.750  0.00  0.00    +0.023 S 
ATOM     30  O   UNL     1     -41.112  30.930   0.853  0.00  0.00    -0.069 OA
ATOM     31  O   UNL     1     -43.237  30.607  -0.356  0.00  0.00    -0.069 OA
ATOM     32  O   UNL     1     -43.061  29.972   2.019  0.00  0.00    -0.069 OA
ENDBRANCH  28  29
ENDBRANCH  27  28
ENDBRANCH  26  27
ENDBRANCH  24  26
ENDBRANCH   6  24
TORSDOF 7
ENDMDL
MODEL 6
REMARK VINA RESULT:      -6.1      3.193      5.215
REMARK  Name = 21121405
REMARK  7 active torsions:
REMARK  status: ('A' for Active; 'I' for Inactive)
REMARK    1  A    between atoms: C_6  and  C_24
REMARK    2  A    between atoms: C_10  and  O_20
REMARK    3  A    between atoms: C_19  and  O_22
REMARK    4  A    between atoms: C_24  and  C_26
REMARK    5  A    between atoms: C_26  and  C_27
REMARK    6  A    between atoms: C_27  and  C_28
REMARK    7  A    between atoms: C_28  and  S_29
REMARK                            x       y       z     vdW  Elec       q    Type
REMARK                         _______ _______ _______ _____ _____    ______ ____
ROOT
ATOM      1  C   UNL     1     -34.088  25.255   4.125  0.00  0.00    +0.002 C 
ATOM      2  C   UNL     1     -33.437  26.390   3.300  0.00  0.00    +0.000 C 
ATOM      3  C   UNL     1     -35.175  24.491   3.343  0.00  0.00    +0.027 C 
ATOM      4  C   UNL     1     -34.513  23.872   2.064  0.00  0.00    +0.002 C 
ATOM      5  C   UNL     1     -35.531  23.023   1.213  0.00  0.00    +0.000 C 
ATOM      6  C   UNL     1     -32.460  26.949   4.363  0.00  0.00    +0.000 C 
ATOM      7  C   UNL     1     -36.186  21.934   2.123  0.00  0.00    +0.005 C 
ATOM      8  C   UNL     1     -32.751  25.760   2.081  0.00  0.00    +0.000 C 
ATOM      9  C   UNL     1     -33.738  24.935   1.240  0.00  0.00    +0.000 C 
ATOM     10  C   UNL     1     -35.855  23.404   4.198  0.00  0.00    +0.110 C 
ATOM     11  C   UNL     1     -34.432  25.939   5.446  0.00  0.00    +0.000 C 
ATOM     12  C   UNL     1     -33.297  26.957   5.659  0.00  0.00    +0.000 C 
ATOM     13  C   UNL     1     -36.818  22.539   3.382  0.00  0.00    +0.029 C 
ATOM     14  C   UNL     1     -34.853  22.307   0.008  0.00  0.00    +0.002 C 
ATOM     15  C   UNL     1     -34.434  27.480   2.830  0.00  0.00    +0.000 C 
ATOM     16  C   UNL     1     -35.206  20.806   2.506  0.00  0.00    +0.029 C 
ATOM     17  C   UNL     1     -36.638  23.925   0.611  0.00  0.00    +0.000 C 
ATOM     18  C   UNL     1     -33.870  21.214   0.410  0.00  0.00    +0.029 C 
ATOM     19  C   UNL     1     -34.547  20.168   1.287  0.00  0.00    +0.111 C 
ENDROOT
BRANCH  10  20
ATOM     20  O   UNL     1     -36.612  24.017   5.241  0.00  0.00    -0.384 OA
ATOM     21  H   UNL     1     -36.817  24.933   4.995  0.00  0.00    +0.210 HD
ENDBRANCH  10  20
BRANCH  19  22
ATOM     22  O   UNL     1     -33.568  19.225   1.707  0.00  0.00    -0.384 OA
ATOM     23  H   UNL     1     -33.821  18.858   2.569  0.00  0.00    +0.210 HD
ENDBRANCH  19  22
BRANCH   6  24
ATOM     24  C   UNL     1     -31.822  28.298   4.061  0.00  0.00    +0.000 C 
ATOM     25  C   UNL     1     -30.402  28.097   3.521  0.00  0.00    +0.000 C 
BRANCH  24  26
ATOM     26  C   UNL     1     -31.845  29.189   5.321  0.00  0.00    +0.002 C 
BRANCH  26  27
ATOM     27  C   UNL     1     -32.479  30.564   5.093  0.00  0.00    +0.026 C 
BRANCH  27  28
ATOM     28  C   UNL     1     -32.178  31.082   3.694  0.00  0.00    +0.158 C 
BRANCH  28  29
ATOM     29  S   UNL     1     -33.662  31.397   2.793  0.00  0.00    +0.023 S 
ATOM     30  O   UNL     1     -33.615  32.840   2.564  0.00  0.00    -0.069 OA
ATOM     31  O   UNL     1     -33.504  30.577   1.591  0.00  0.00    -0.069 OA
ATOM     32  O   UNL     1     -34.711  30.952   3.709  0.00  0.00    -0.069 OA
ENDBRANCH  28  29
ENDBRANCH  27  28
ENDBRANCH  26  27
ENDBRANCH  24  26
ENDBRANCH   6  24
TORSDOF 7
ENDMDL
MODEL 7
REMARK VINA RESULT:      -5.9      8.013     11.938
REMARK  Name = 21121405
REMARK  7 active torsions:
REMARK  status: ('A' for Active; 'I' for Inactive)
REMARK    1  A    between atoms: C_6  and  C_24
REMARK    2  A    between atoms: C_10  and  O_20
REMARK    3  A    between atoms: C_19  and  O_22
REMARK    4  A    between atoms: C_24  and  C_26
REMARK    5  A    between atoms: C_26  and  C_27
REMARK    6  A    between atoms: C_27  and  C_28
REMARK    7  A    between atoms: C_28  and  S_29
REMARK                            x       y       z     vdW  Elec       q    Type
REMARK                         _______ _______ _______ _____ _____    ______ ____
ROOT
ATOM      1  C   UNL     1     -35.138  33.091   1.769  0.00  0.00    +0.002 C 
ATOM      2  C   UNL     1     -35.212  31.618   1.302  0.00  0.00    +0.000 C 
ATOM      3  C   UNL     1     -36.007  34.037   0.917  0.00  0.00    +0.027 C 
ATOM      4  C   UNL     1     -37.494  33.550   1.009  0.00  0.00    +0.002 C 
ATOM      5  C   UNL     1     -38.481  34.481   0.209  0.00  0.00    +0.000 C 
ATOM      6  C   UNL     1     -34.228  30.981   2.313  0.00  0.00    +0.000 C 
ATOM      7  C   UNL     1     -38.313  35.957   0.698  0.00  0.00    +0.005 C 
ATOM      8  C   UNL     1     -36.664  31.144   1.448  0.00  0.00    +0.000 C 
ATOM      9  C   UNL     1     -37.634  32.043   0.666  0.00  0.00    +0.000 C 
ATOM     10  C   UNL     1     -35.876  35.508   1.356  0.00  0.00    +0.110 C 
ATOM     11  C   UNL     1     -33.636  33.339   1.899  0.00  0.00    +0.000 C 
ATOM     12  C   UNL     1     -33.064  31.992   2.376  0.00  0.00    +0.000 C 
ATOM     13  C   UNL     1     -36.855  36.425   0.621  0.00  0.00    +0.029 C 
ATOM     14  C   UNL     1     -39.973  34.074   0.396  0.00  0.00    +0.002 C 
ATOM     15  C   UNL     1     -34.736  31.395  -0.157  0.00  0.00    +0.000 C 
ATOM     16  C   UNL     1     -38.875  36.186   2.115  0.00  0.00    +0.029 C 
ATOM     17  C   UNL     1     -38.202  34.407  -1.313  0.00  0.00    +0.000 C 
ATOM     18  C   UNL     1     -40.499  34.285   1.810  0.00  0.00    +0.029 C 
ATOM     19  C   UNL     1     -40.327  35.735   2.245  0.00  0.00    +0.111 C 
ENDROOT
BRANCH  10  20
ATOM     20  O   UNL     1     -34.558  35.977   1.074  0.00  0.00    -0.384 OA
ATOM     21  H   UNL     1     -34.501  36.923   1.283  0.00  0.00    +0.210 HD
ENDBRANCH  10  20
BRANCH  19  22
ATOM     22  O   UNL     1     -40.749  35.856   3.599  0.00  0.00    -0.384 OA
ATOM     23  H   UNL     1     -40.563  35.029   4.071  0.00  0.00    +0.210 HD
ENDBRANCH  19  22
BRANCH   6  24
ATOM     24  C   UNL     1     -33.765  29.563   2.013  0.00  0.00    +0.000 C 
ATOM     25  C   UNL     1     -34.564  28.561   2.852  0.00  0.00    +0.000 C 
BRANCH  24  26
ATOM     26  C   UNL     1     -32.245  29.439   2.251  0.00  0.00    +0.002 C 
BRANCH  26  27
ATOM     27  C   UNL     1     -31.876  28.535   3.430  0.00  0.00    +0.026 C 
BRANCH  27  28
ATOM     28  C   UNL     1     -31.300  29.345   4.583  0.00  0.00    +0.158 C 
BRANCH  28  29
ATOM     29  S   UNL     1     -31.559  28.534   6.129  0.00  0.00    +0.023 S 
ATOM     30  O   UNL     1     -31.702  29.645   7.069  0.00  0.00    -0.069 OA
ATOM     31  O   UNL     1     -32.780  27.760   5.900  0.00  0.00    -0.069 OA
ATOM     32  O   UNL     1     -30.346  27.736   6.296  0.00  0.00    -0.069 OA
ENDBRANCH  28  29
ENDBRANCH  27  28
ENDBRANCH  26  27
ENDBRANCH  24  26
ENDBRANCH   6  24
TORSDOF 7
ENDMDL
MODEL 8
REMARK VINA RESULT:      -5.9      4.746      8.430
REMARK  Name = 21121405
REMARK  7 active torsions:
REMARK  status: ('A' for Active; 'I' for Inactive)
REMARK    1  A    between atoms: C_6  and  C_24
REMARK    2  A    between atoms: C_10  and  O_20
REMARK    3  A    between atoms: C_19  and  O_22
REMARK    4  A    between atoms: C_24  and  C_26
REMARK    5  A    between atoms: C_26  and  C_27
REMARK    6  A    between atoms: C_27  and  C_28
REMARK    7  A    between atoms: C_28  and  S_29
REMARK                            x       y       z     vdW  Elec       q    Type
REMARK                         _______ _______ _______ _____ _____    ______ ____
ROOT
ATOM      1  C   UNL     1     -37.999  25.614   2.972  0.00  0.00    +0.002 C 
ATOM      2  C   UNL     1     -38.549  25.998   1.578  0.00  0.00    +0.000 C 
ATOM      3  C   UNL     1     -36.537  25.126   2.928  0.00  0.00    +0.027 C 
ATOM      4  C   UNL     1     -35.655  26.278   2.335  0.00  0.00    +0.002 C 
ATOM      5  C   UNL     1     -34.127  25.902   2.291  0.00  0.00    +0.000 C 
ATOM      6  C   UNL     1     -39.994  26.388   1.974  0.00  0.00    +0.000 C 
ATOM      7  C   UNL     1     -33.656  25.475   3.719  0.00  0.00    +0.005 C 
ATOM      8  C   UNL     1     -37.707  27.160   1.037  0.00  0.00    +0.000 C 
ATOM      9  C   UNL     1     -36.214  26.800   0.984  0.00  0.00    +0.000 C 
ATOM     10  C   UNL     1     -36.023  24.690   4.313  0.00  0.00    +0.110 C 
ATOM     11  C   UNL     1     -39.092  24.709   3.540  0.00  0.00    +0.000 C 
ATOM     12  C   UNL     1     -40.402  25.296   2.986  0.00  0.00    +0.000 C 
ATOM     13  C   UNL     1     -34.530  24.359   4.303  0.00  0.00    +0.029 C 
ATOM     14  C   UNL     1     -33.232  27.085   1.817  0.00  0.00    +0.002 C 
ATOM     15  C   UNL     1     -38.546  24.833   0.556  0.00  0.00    +0.000 C 
ATOM     16  C   UNL     1     -33.575  26.661   4.702  0.00  0.00    +0.029 C 
ATOM     17  C   UNL     1     -33.870  24.742   1.295  0.00  0.00    +0.000 C 
ATOM     18  C   UNL     1     -33.187  28.256   2.792  0.00  0.00    +0.029 C 
ATOM     19  C   UNL     1     -32.714  27.802   4.167  0.00  0.00    +0.111 C 
ENDROOT
BRANCH  10  20
ATOM     20  O   UNL     1     -36.718  23.517   4.736  0.00  0.00    -0.384 OA
ATOM     21  H   UNL     1     -36.346  22.742   4.286  0.00  0.00    +0.210 HD
ENDBRANCH  10  20
BRANCH  19  22
ATOM     22  O   UNL     1     -32.778  28.910   5.057  0.00  0.00    -0.384 OA
ATOM     23  H   UNL     1     -32.028  29.503   4.891  0.00  0.00    +0.210 HD
ENDBRANCH  19  22
BRANCH   6  24
ATOM     24  C   UNL     1     -40.994  26.545   0.837  0.00  0.00    +0.000 C 
ATOM     25  C   UNL     1     -41.048  28.008   0.385  0.00  0.00    +0.000 C 
BRANCH  24  26
ATOM     26  C   UNL     1     -42.379  26.019   1.272  0.00  0.00    +0.002 C 
BRANCH  26  27
ATOM     27  C   UNL     1     -43.351  27.121   1.703  0.00  0.00    +0.026 C 
BRANCH  27  28
ATOM     28  C   UNL     1     -43.578  27.094   3.208  0.00  0.00    +0.158 C 
BRANCH  28  29
ATOM     29  S   UNL     1     -43.161  28.642   3.947  0.00  0.00    +0.023 S 
ATOM     30  O   UNL     1     -44.159  28.786   5.005  0.00  0.00    -0.069 OA
ATOM     31  O   UNL     1     -41.791  28.430   4.416  0.00  0.00    -0.069 OA
ATOM     32  O   UNL     1     -43.293  29.588   2.841  0.00  0.00    -0.069 OA
ENDBRANCH  28  29
ENDBRANCH  27  28
ENDBRANCH  26  27
ENDBRANCH  24  26
ENDBRANCH   6  24
TORSDOF 7
ENDMDL
MODEL 9
REMARK VINA RESULT:      -5.9      4.295      9.546
REMARK  Name = 21121405
REMARK  7 active torsions:
REMARK  status: ('A' for Active; 'I' for Inactive)
REMARK    1  A    between atoms: C_6  and  C_24
REMARK    2  A    between atoms: C_10  and  O_20
REMARK    3  A    between atoms: C_19  and  O_22
REMARK    4  A    between atoms: C_24  and  C_26
REMARK    5  A    between atoms: C_26  and  C_27
REMARK    6  A    between atoms: C_27  and  C_28
REMARK    7  A    between atoms: C_28  and  S_29
REMARK                            x       y       z     vdW  Elec       q    Type
REMARK                         _______ _______ _______ _____ _____    ______ ____
ROOT
ATOM      1  C   UNL     1     -32.899  26.334   3.261  0.00  0.00    +0.002 C 
ATOM      2  C   UNL     1     -34.060  26.051   4.243  0.00  0.00    +0.000 C 
ATOM      3  C   UNL     1     -32.350  27.770   3.375  0.00  0.00    +0.027 C 
ATOM      4  C   UNL     1     -31.836  27.981   4.841  0.00  0.00    +0.002 C 
ATOM      5  C   UNL     1     -31.205  29.408   5.057  0.00  0.00    +0.000 C 
ATOM      6  C   UNL     1     -34.381  24.591   3.843  0.00  0.00    +0.000 C 
ATOM      7  C   UNL     1     -30.079  29.643   3.997  0.00  0.00    +0.005 C 
ATOM      8  C   UNL     1     -33.524  26.212   5.672  0.00  0.00    +0.000 C 
ATOM      9  C   UNL     1     -32.912  27.604   5.894  0.00  0.00    +0.000 C 
ATOM     10  C   UNL     1     -31.237  28.055   2.349  0.00  0.00    +0.110 C 
ATOM     11  C   UNL     1     -33.442  25.826   1.926  0.00  0.00    +0.000 C 
ATOM     12  C   UNL     1     -34.308  24.610   2.301  0.00  0.00    +0.000 C 
ATOM     13  C   UNL     1     -30.581  29.420   2.566  0.00  0.00    +0.029 C 
ATOM     14  C   UNL     1     -30.584  29.581   6.473  0.00  0.00    +0.002 C 
ATOM     15  C   UNL     1     -35.293  26.969   4.044  0.00  0.00    +0.000 C 
ATOM     16  C   UNL     1     -28.821  28.791   4.262  0.00  0.00    +0.029 C 
ATOM     17  C   UNL     1     -32.281  30.516   4.919  0.00  0.00    +0.000 C 
ATOM     18  C   UNL     1     -29.357  28.711   6.722  0.00  0.00    +0.029 C 
ATOM     19  C   UNL     1     -28.281  28.976   5.677  0.00  0.00    +0.111 C 
ENDROOT
BRANCH  10  20
ATOM     20  O   UNL     1     -31.785  28.049   1.032  0.00  0.00    -0.384 OA
ATOM     21  H   UNL     1     -31.661  27.172   0.635  0.00  0.00    +0.210 HD
ENDBRANCH  10  20
BRANCH  19  22
ATOM     22  O   UNL     1     -27.201  28.077   5.900  0.00  0.00    -0.384 OA
ATOM     23  H   UNL     1     -26.653  28.024   5.101  0.00  0.00    +0.210 HD
ENDBRANCH  19  22
BRANCH   6  24
ATOM     24  C   UNL     1     -35.688  24.011   4.367  0.00  0.00    +0.000 C 
ATOM     25  C   UNL     1     -35.424  23.171   5.621  0.00  0.00    +0.000 C 
BRANCH  24  26
ATOM     26  C   UNL     1     -36.389  23.198   3.258  0.00  0.00    +0.002 C 
BRANCH  26  27
ATOM     27  C   UNL     1     -37.852  23.593   3.036  0.00  0.00    +0.026 C 
BRANCH  27  28
ATOM     28  C   UNL     1     -38.116  25.013   3.512  0.00  0.00    +0.158 C 
BRANCH  28  29
ATOM     29  S   UNL     1     -38.996  25.944   2.298  0.00  0.00    +0.023 S 
ATOM     30  O   UNL     1     -40.137  26.473   3.045  0.00  0.00    -0.069 OA
ATOM     31  O   UNL     1     -38.020  26.947   1.873  0.00  0.00    -0.069 OA
ATOM     32  O   UNL     1     -39.332  24.943   1.288  0.00  0.00    -0.069 OA
ENDBRANCH  28  29
ENDBRANCH  27  28
ENDBRANCH  26  27
ENDBRANCH  24  26
ENDBRANCH   6  24
TORSDOF 7
ENDMDL
