MODEL 1
REMARK VINA RESULT:      -5.2      0.000      0.000
REMARK  Name = 5288063
REMARK  5 active torsions:
REMARK  status: ('A' for Active; 'I' for Inactive)
REMARK    1  A    between atoms: C2*_2  and  O2*_14
REMARK    2  A    between atoms: C3*_3  and  O3*_16
REMARK    3  A    between atoms: C1*_4  and  N_7
REMARK    4  A    between atoms: C4*_5  and  C5*_18
REMARK    5  A    between atoms: C5*_18  and  O5*_19
REMARK                            x       y       z     vdW  Elec       q    Type
REMARK                         _______ _______ _______ _____ _____    ______ ____
ROOT
ATOM      1  O4* UNL     1     -35.361  23.419   3.784  0.00  0.00    -0.333 OA
ATOM      2  C2* UNL     1     -36.223  25.215   5.067  0.00  0.00    +0.187 C 
ATOM      3  C3* UNL     1     -34.955  24.714   5.725  0.00  0.00    +0.171 C 
ATOM      4  C1* UNL     1     -36.095  24.649   3.663  0.00  0.00    +0.229 C 
ATOM      5  C4* UNL     1     -34.804  23.328   5.113  0.00  0.00    +0.175 C 
ENDROOT
BRANCH   4   7
ATOM      6  O   UNL     1     -37.800  26.624   2.625  0.00  0.00    -0.252 OA
ATOM      7  N   UNL     1     -37.369  24.375   3.064  0.00  0.00    -0.217 N 
ATOM      8  N   UNL     1     -39.378  25.101   2.003  0.00  0.00    -0.284 N 
ATOM      9  C   UNL     1     -38.157  25.443   2.569  0.00  0.00    +0.310 C 
ATOM     10  C   UNL     1     -37.821  23.063   2.974  0.00  0.00    +0.068 C 
ATOM     11  C   UNL     1     -39.918  23.757   1.874  0.00  0.00    +0.119 C 
ATOM     12  C   UNL     1     -38.996  22.735   2.431  0.00  0.00    +0.011 C 
ATOM     13  H   UNL     1     -39.930  25.838   1.656  0.00  0.00    +0.151 HD
ENDBRANCH   4   7
BRANCH   2  14
ATOM     14  O2* UNL     1     -36.313  26.625   5.078  0.00  0.00    -0.378 OA
ATOM     15  H2* UNL     1     -37.115  26.895   5.552  0.00  0.00    +0.211 HD
ENDBRANCH   2  14
BRANCH   3  16
ATOM     16  O3* UNL     1     -33.839  25.502   5.311  0.00  0.00    -0.379 OA
ATOM     17  H3* UNL     1     -33.034  25.172   5.741  0.00  0.00    +0.211 HD
ENDBRANCH   3  16
BRANCH   5  18
ATOM     18  C5* UNL     1     -35.563  22.249   5.873  0.00  0.00    +0.169 C 
BRANCH  18  19
ATOM     19  O5* UNL     1     -34.944  20.999   5.625  0.00  0.00    -0.379 OA
ATOM     20  H5* UNL     1     -34.029  21.021   5.947  0.00  0.00    +0.211 HD
ENDBRANCH  18  19
ENDBRANCH   5  18
TORSDOF 5
ENDMDL
MODEL 2
REMARK VINA RESULT:      -5.2      2.613      4.419
REMARK  Name = 5288063
REMARK  5 active torsions:
REMARK  status: ('A' for Active; 'I' for Inactive)
REMARK    1  A    between atoms: C2*_2  and  O2*_14
REMARK    2  A    between atoms: C3*_3  and  O3*_16
REMARK    3  A    between atoms: C1*_4  and  N_7
REMARK    4  A    between atoms: C4*_5  and  C5*_18
REMARK    5  A    between atoms: C5*_18  and  O5*_19
REMARK                            x       y       z     vdW  Elec       q    Type
REMARK                         _______ _______ _______ _____ _____    ______ ____
ROOT
ATOM      1  O4* UNL     1     -36.187  24.226   5.556  0.00  0.00    -0.333 OA
ATOM      2  C2* UNL     1     -35.391  23.874   3.353  0.00  0.00    +0.187 C 
ATOM      3  C3* UNL     1     -36.178  22.655   3.784  0.00  0.00    +0.171 C 
ATOM      4  C1* UNL     1     -35.868  24.924   4.341  0.00  0.00    +0.229 C 
ATOM      5  C4* UNL     1     -36.194  22.805   5.299  0.00  0.00    +0.175 C 
ENDROOT
BRANCH   4   7
ATOM      6  O   UNL     1     -35.274  27.082   2.646  0.00  0.00    -0.252 OA
ATOM      7  N   UNL     1     -34.865  25.911   4.620  0.00  0.00    -0.217 N 
ATOM      8  N   UNL     1     -33.654  27.881   4.037  0.00  0.00    -0.284 N 
ATOM      9  C   UNL     1     -34.641  26.963   3.699  0.00  0.00    +0.310 C 
ATOM     10  C   UNL     1     -34.122  25.827   5.792  0.00  0.00    +0.068 C 
ATOM     11  C   UNL     1     -32.838  27.860   5.239  0.00  0.00    +0.119 C 
ATOM     12  C   UNL     1     -33.173  26.709   6.115  0.00  0.00    +0.011 C 
ATOM     13  H   UNL     1     -33.494  28.615   3.401  0.00  0.00    +0.151 HD
ENDBRANCH   4   7
BRANCH   2  14
ATOM     14  O2* UNL     1     -35.649  24.233   2.012  0.00  0.00    -0.378 OA
ATOM     15  H2* UNL     1     -36.567  24.013   1.789  0.00  0.00    +0.211 HD
ENDBRANCH   2  14
BRANCH   3  16
ATOM     16  O3* UNL     1     -37.524  22.746   3.319  0.00  0.00    -0.379 OA
ATOM     17  H3* UNL     1     -37.526  22.969   2.375  0.00  0.00    +0.211 HD
ENDBRANCH   3  16
BRANCH   5  18
ATOM     18  C5* UNL     1     -34.976  22.194   5.978  0.00  0.00    +0.169 C 
BRANCH  18  19
ATOM     19  O5* UNL     1     -35.059  20.783   5.873  0.00  0.00    -0.379 OA
ATOM     20  H5* UNL     1     -35.546  20.546   5.069  0.00  0.00    +0.211 HD
ENDBRANCH  18  19
ENDBRANCH   5  18
TORSDOF 5
ENDMDL
MODEL 3
REMARK VINA RESULT:      -5.1      2.117      3.599
REMARK  Name = 5288063
REMARK  5 active torsions:
REMARK  status: ('A' for Active; 'I' for Inactive)
REMARK    1  A    between atoms: C2*_2  and  O2*_14
REMARK    2  A    between atoms: C3*_3  and  O3*_16
REMARK    3  A    between atoms: C1*_4  and  N_7
REMARK    4  A    between atoms: C4*_5  and  C5*_18
REMARK    5  A    between atoms: C5*_18  and  O5*_19
REMARK                            x       y       z     vdW  Elec       q    Type
REMARK                         _______ _______ _______ _____ _____    ______ ____
ROOT
ATOM      1  O4* UNL     1     -36.756  24.155   4.512  0.00  0.00    -0.333 OA
ATOM      2  C2* UNL     1     -35.455  22.217   4.105  0.00  0.00    +0.187 C 
ATOM      3  C3* UNL     1     -35.243  22.650   5.540  0.00  0.00    +0.171 C 
ATOM      4  C1* UNL     1     -36.740  22.941   3.743  0.00  0.00    +0.229 C 
ATOM      5  C4* UNL     1     -35.714  24.098   5.510  0.00  0.00    +0.175 C 
ENDROOT
BRANCH   4   7
ATOM      6  O   UNL     1     -37.770  21.226   1.772  0.00  0.00    -0.252 OA
ATOM      7  N   UNL     1     -36.810  23.271   2.349  0.00  0.00    -0.217 N 
ATOM      8  N   UNL     1     -37.382  22.725   0.099  0.00  0.00    -0.284 N 
ATOM      9  C   UNL     1     -37.348  22.336   1.432  0.00  0.00    +0.310 C 
ATOM     10  C   UNL     1     -36.349  24.507   1.909  0.00  0.00    +0.068 C 
ATOM     11  C   UNL     1     -36.921  23.995  -0.436  0.00  0.00    +0.119 C 
ATOM     12  C   UNL     1     -36.382  24.881   0.627  0.00  0.00    +0.011 C 
ATOM     13  H   UNL     1     -37.756  22.080  -0.543  0.00  0.00    +0.151 HD
ENDBRANCH   4   7
BRANCH   2  14
ATOM     14  O2* UNL     1     -35.566  20.815   3.979  0.00  0.00    -0.378 OA
ATOM     15  H2* UNL     1     -35.927  20.596   3.105  0.00  0.00    +0.211 HD
ENDBRANCH   2  14
BRANCH   3  16
ATOM     16  O3* UNL     1     -36.113  21.924   6.409  0.00  0.00    -0.379 OA
ATOM     17  H3* UNL     1     -35.585  21.372   7.006  0.00  0.00    +0.211 HD
ENDBRANCH   3  16
BRANCH   5  18
ATOM     18  C5* UNL     1     -34.619  25.078   5.108  0.00  0.00    +0.169 C 
BRANCH  18  19
ATOM     19  O5* UNL     1     -35.029  26.387   5.463  0.00  0.00    -0.379 OA
ATOM     20  H5* UNL     1     -35.079  26.938   4.666  0.00  0.00    +0.211 HD
ENDBRANCH  18  19
ENDBRANCH   5  18
TORSDOF 5
ENDMDL
MODEL 4
REMARK VINA RESULT:      -5.1      2.346      4.659
REMARK  Name = 5288063
REMARK  5 active torsions:
REMARK  status: ('A' for Active; 'I' for Inactive)
REMARK    1  A    between atoms: C2*_2  and  O2*_14
REMARK    2  A    between atoms: C3*_3  and  O3*_16
REMARK    3  A    between atoms: C1*_4  and  N_7
REMARK    4  A    between atoms: C4*_5  and  C5*_18
REMARK    5  A    between atoms: C5*_18  and  O5*_19
REMARK                            x       y       z     vdW  Elec       q    Type
REMARK                         _______ _______ _______ _____ _____    ______ ____
ROOT
ATOM      1  O4* UNL     1     -35.707  24.827   2.247  0.00  0.00    -0.333 OA
ATOM      2  C2* UNL     1     -37.541  25.279   3.677  0.00  0.00    +0.187 C 
ATOM      3  C3* UNL     1     -37.383  26.434   2.711  0.00  0.00    +0.171 C 
ATOM      4  C1* UNL     1     -36.757  24.179   2.983  0.00  0.00    +0.229 C 
ATOM      5  C4* UNL     1     -35.953  26.250   2.224  0.00  0.00    +0.175 C 
ENDROOT
BRANCH   4   7
ATOM      6  O   UNL     1     -36.216  21.488   2.388  0.00  0.00    -0.252 OA
ATOM      7  N   UNL     1     -36.173  23.252   3.911  0.00  0.00    -0.217 N 
ATOM      8  N   UNL     1     -35.372  21.076   4.465  0.00  0.00    -0.284 N 
ATOM      9  C   UNL     1     -35.940  21.914   3.513  0.00  0.00    +0.310 C 
ATOM     10  C   UNL     1     -35.842  23.677   5.192  0.00  0.00    +0.068 C 
ATOM     11  C   UNL     1     -34.999  21.445   5.820  0.00  0.00    +0.119 C 
ATOM     12  C   UNL     1     -35.297  22.871   6.107  0.00  0.00    +0.011 C 
ATOM     13  H   UNL     1     -35.207  20.144   4.194  0.00  0.00    +0.151 HD
ENDBRANCH   4   7
BRANCH   2  14
ATOM     14  O2* UNL     1     -38.895  24.934   3.884  0.00  0.00    -0.378 OA
ATOM     15  H2* UNL     1     -39.376  25.703   4.228  0.00  0.00    +0.211 HD
ENDBRANCH   2  14
BRANCH   3  16
ATOM     16  O3* UNL     1     -38.254  26.266   1.593  0.00  0.00    -0.379 OA
ATOM     17  H3* UNL     1     -38.668  25.390   1.635  0.00  0.00    +0.211 HD
ENDBRANCH   3  16
BRANCH   5  18
ATOM     18  C5* UNL     1     -34.921  26.924   3.117  0.00  0.00    +0.169 C 
BRANCH  18  19
ATOM     19  O5* UNL     1     -35.401  28.208   3.476  0.00  0.00    -0.379 OA
ATOM     20  H5* UNL     1     -35.039  28.870   2.867  0.00  0.00    +0.211 HD
ENDBRANCH  18  19
ENDBRANCH   5  18
TORSDOF 5
ENDMDL
MODEL 5
REMARK VINA RESULT:      -5.1      1.398      2.199
REMARK  Name = 5288063
REMARK  5 active torsions:
REMARK  status: ('A' for Active; 'I' for Inactive)
REMARK    1  A    between atoms: C2*_2  and  O2*_14
REMARK    2  A    between atoms: C3*_3  and  O3*_16
REMARK    3  A    between atoms: C1*_4  and  N_7
REMARK    4  A    between atoms: C4*_5  and  C5*_18
REMARK    5  A    between atoms: C5*_18  and  O5*_19
REMARK                            x       y       z     vdW  Elec       q    Type
REMARK                         _______ _______ _______ _____ _____    ______ ____
ROOT
ATOM      1  O4* UNL     1     -35.239  22.887   3.989  0.00  0.00    -0.333 OA
ATOM      2  C2* UNL     1     -36.631  24.668   4.698  0.00  0.00    +0.187 C 
ATOM      3  C3* UNL     1     -35.361  24.688   5.522  0.00  0.00    +0.171 C 
ATOM      4  C1* UNL     1     -36.221  23.819   3.507  0.00  0.00    +0.229 C 
ATOM      5  C4* UNL     1     -34.824  23.278   5.316  0.00  0.00    +0.175 C 
ENDROOT
BRANCH   4   7
ATOM      6  O   UNL     1     -36.089  21.122   2.735  0.00  0.00    -0.252 OA
ATOM      7  N   UNL     1     -37.323  23.089   2.949  0.00  0.00    -0.217 N 
ATOM      8  N   UNL     1     -38.264  21.088   2.057  0.00  0.00    -0.284 N 
ATOM      9  C   UNL     1     -37.154  21.729   2.591  0.00  0.00    +0.310 C 
ATOM     10  C   UNL     1     -38.547  23.722   2.765  0.00  0.00    +0.068 C 
ATOM     11  C   UNL     1     -39.573  21.680   1.834  0.00  0.00    +0.119 C 
ATOM     12  C   UNL     1     -39.614  23.105   2.250  0.00  0.00    +0.011 C 
ATOM     13  H   UNL     1     -38.154  20.143   1.806  0.00  0.00    +0.151 HD
ENDBRANCH   4   7
BRANCH   2  14
ATOM     14  O2* UNL     1     -37.047  25.965   4.323  0.00  0.00    -0.378 OA
ATOM     15  H2* UNL     1     -37.015  26.551   5.096  0.00  0.00    +0.211 HD
ENDBRANCH   2  14
BRANCH   3  16
ATOM     16  O3* UNL     1     -34.421  25.603   4.960  0.00  0.00    -0.379 OA
ATOM     17  H3* UNL     1     -34.305  26.356   5.559  0.00  0.00    +0.211 HD
ENDBRANCH   3  16
BRANCH   5  18
ATOM     18  C5* UNL     1     -35.389  22.268   6.306  0.00  0.00    +0.169 C 
BRANCH  18  19
ATOM     19  O5* UNL     1     -35.345  20.981   5.716  0.00  0.00    -0.379 OA
ATOM     20  H5* UNL     1     -34.643  20.458   6.134  0.00  0.00    +0.211 HD
ENDBRANCH  18  19
ENDBRANCH   5  18
TORSDOF 5
ENDMDL
MODEL 6
REMARK VINA RESULT:      -5.1      2.371      5.332
REMARK  Name = 5288063
REMARK  5 active torsions:
REMARK  status: ('A' for Active; 'I' for Inactive)
REMARK    1  A    between atoms: C2*_2  and  O2*_14
REMARK    2  A    between atoms: C3*_3  and  O3*_16
REMARK    3  A    between atoms: C1*_4  and  N_7
REMARK    4  A    between atoms: C4*_5  and  C5*_18
REMARK    5  A    between atoms: C5*_18  and  O5*_19
REMARK                            x       y       z     vdW  Elec       q    Type
REMARK                         _______ _______ _______ _____ _____    ______ ____
ROOT
ATOM      1  O4* UNL     1     -36.828  24.285   2.258  0.00  0.00    -0.333 OA
ATOM      2  C2* UNL     1     -38.268  22.411   2.429  0.00  0.00    +0.187 C 
ATOM      3  C3* UNL     1     -38.888  23.414   1.479  0.00  0.00    +0.171 C 
ATOM      4  C1* UNL     1     -36.818  22.862   2.461  0.00  0.00    +0.229 C 
ATOM      5  C4* UNL     1     -38.147  24.695   1.839  0.00  0.00    +0.175 C 
ENDROOT
BRANCH   4   7
ATOM      6  O   UNL     1     -35.656  20.388   3.103  0.00  0.00    -0.252 OA
ATOM      7  N   UNL     1     -36.182  22.575   3.715  0.00  0.00    -0.217 N 
ATOM      8  N   UNL     1     -35.027  21.089   5.179  0.00  0.00    -0.284 N 
ATOM      9  C   UNL     1     -35.625  21.293   3.942  0.00  0.00    +0.310 C 
ATOM     10  C   UNL     1     -36.118  23.557   4.697  0.00  0.00    +0.068 C 
ATOM     11  C   UNL     1     -34.921  22.062   6.253  0.00  0.00    +0.119 C 
ATOM     12  C   UNL     1     -35.543  23.360   5.886  0.00  0.00    +0.011 C 
ATOM     13  H   UNL     1     -34.637  20.200   5.343  0.00  0.00    +0.151 HD
ENDBRANCH   4   7
BRANCH   2  14
ATOM     14  O2* UNL     1     -38.414  21.082   1.975  0.00  0.00    -0.378 OA
ATOM     15  H2* UNL     1     -39.219  20.696   2.356  0.00  0.00    +0.211 HD
ENDBRANCH   2  14
BRANCH   3  16
ATOM     16  O3* UNL     1     -38.563  23.083   0.129  0.00  0.00    -0.379 OA
ATOM     17  H3* UNL     1     -39.174  23.537  -0.471  0.00  0.00    +0.211 HD
ENDBRANCH   3  16
BRANCH   5  18
ATOM     18  C5* UNL     1     -38.793  25.461   2.986  0.00  0.00    +0.169 C 
BRANCH  18  19
ATOM     19  O5* UNL     1     -37.822  26.319   3.561  0.00  0.00    -0.379 OA
ATOM     20  H5* UNL     1     -38.249  27.139   3.854  0.00  0.00    +0.211 HD
ENDBRANCH  18  19
ENDBRANCH   5  18
TORSDOF 5
ENDMDL
MODEL 7
REMARK VINA RESULT:      -5.0      1.628      3.096
REMARK  Name = 5288063
REMARK  5 active torsions:
REMARK  status: ('A' for Active; 'I' for Inactive)
REMARK    1  A    between atoms: C2*_2  and  O2*_14
REMARK    2  A    between atoms: C3*_3  and  O3*_16
REMARK    3  A    between atoms: C1*_4  and  N_7
REMARK    4  A    between atoms: C4*_5  and  C5*_18
REMARK    5  A    between atoms: C5*_18  and  O5*_19
REMARK                            x       y       z     vdW  Elec       q    Type
REMARK                         _______ _______ _______ _____ _____    ______ ____
ROOT
ATOM      1  O4* UNL     1     -36.251  25.167   5.153  0.00  0.00    -0.333 OA
ATOM      2  C2* UNL     1     -36.330  23.219   3.808  0.00  0.00    +0.187 C 
ATOM      3  C3* UNL     1     -35.376  22.976   4.957  0.00  0.00    +0.171 C 
ATOM      4  C1* UNL     1     -37.132  24.407   4.309  0.00  0.00    +0.229 C 
ATOM      5  C4* UNL     1     -35.061  24.393   5.416  0.00  0.00    +0.175 C 
ENDROOT
BRANCH   4   7
ATOM      6  O   UNL     1     -39.830  24.675   3.578  0.00  0.00    -0.252 OA
ATOM      7  N   UNL     1     -37.595  25.246   3.241  0.00  0.00    -0.217 N 
ATOM      8  N   UNL     1     -39.351  26.146   1.903  0.00  0.00    -0.284 N 
ATOM      9  C   UNL     1     -38.979  25.313   2.950  0.00  0.00    +0.310 C 
ATOM     10  C   UNL     1     -36.680  25.987   2.501  0.00  0.00    +0.068 C 
ATOM     11  C   UNL     1     -38.458  26.949   1.085  0.00  0.00    +0.119 C 
ATOM     12  C   UNL     1     -37.039  26.787   1.494  0.00  0.00    +0.011 C 
ATOM     13  H   UNL     1     -40.312  26.197   1.696  0.00  0.00    +0.151 HD
ENDBRANCH   4   7
BRANCH   2  14
ATOM     14  O2* UNL     1     -37.139  22.093   3.535  0.00  0.00    -0.378 OA
ATOM     15  H2* UNL     1     -37.557  21.788   4.356  0.00  0.00    +0.211 HD
ENDBRANCH   2  14
BRANCH   3  16
ATOM     16  O3* UNL     1     -36.047  22.307   6.025  0.00  0.00    -0.379 OA
ATOM     17  H3* UNL     1     -36.173  21.374   5.793  0.00  0.00    +0.211 HD
ENDBRANCH   3  16
BRANCH   5  18
ATOM     18  C5* UNL     1     -33.904  25.028   4.658  0.00  0.00    +0.169 C 
BRANCH  18  19
ATOM     19  O5* UNL     1     -33.393  26.104   5.427  0.00  0.00    -0.379 OA
ATOM     20  H5* UNL     1     -34.055  26.375   6.082  0.00  0.00    +0.211 HD
ENDBRANCH  18  19
ENDBRANCH   5  18
TORSDOF 5
ENDMDL
MODEL 8
REMARK VINA RESULT:      -4.9      3.378      5.539
REMARK  Name = 5288063
REMARK  5 active torsions:
REMARK  status: ('A' for Active; 'I' for Inactive)
REMARK    1  A    between atoms: C2*_2  and  O2*_14
REMARK    2  A    between atoms: C3*_3  and  O3*_16
REMARK    3  A    between atoms: C1*_4  and  N_7
REMARK    4  A    between atoms: C4*_5  and  C5*_18
REMARK    5  A    between atoms: C5*_18  and  O5*_19
REMARK                            x       y       z     vdW  Elec       q    Type
REMARK                         _______ _______ _______ _____ _____    ______ ____
ROOT
ATOM      1  O4* UNL     1     -34.683  20.475   2.303  0.00  0.00    -0.333 OA
ATOM      2  C2* UNL     1     -36.911  21.117   1.815  0.00  0.00    +0.187 C 
ATOM      3  C3* UNL     1     -36.457  20.115   0.776  0.00  0.00    +0.171 C 
ATOM      4  C1* UNL     1     -35.907  20.890   2.932  0.00  0.00    +0.229 C 
ATOM      5  C4* UNL     1     -34.942  20.174   0.915  0.00  0.00    +0.175 C 
ENDROOT
BRANCH   4   7
ATOM      6  O   UNL     1     -35.175  20.891   5.643  0.00  0.00    -0.252 OA
ATOM      7  N   UNL     1     -35.658  22.079   3.696  0.00  0.00    -0.217 N 
ATOM      8  N   UNL     1     -35.070  23.166   5.735  0.00  0.00    -0.284 N 
ATOM      9  C   UNL     1     -35.294  21.973   5.060  0.00  0.00    +0.310 C 
ATOM     10  C   UNL     1     -35.777  23.325   3.091  0.00  0.00    +0.068 C 
ATOM     11  C   UNL     1     -35.174  24.503   5.173  0.00  0.00    +0.119 C 
ATOM     12  C   UNL     1     -35.562  24.472   3.740  0.00  0.00    +0.011 C 
ATOM     13  H   UNL     1     -34.815  23.100   6.683  0.00  0.00    +0.151 HD
ENDBRANCH   4   7
BRANCH   2  14
ATOM     14  O2* UNL     1     -38.243  20.895   2.228  0.00  0.00    -0.378 OA
ATOM     15  H2* UNL     1     -38.534  20.020   1.928  0.00  0.00    +0.211 HD
ENDBRANCH   2  14
BRANCH   3  16
ATOM     16  O3* UNL     1     -36.880  18.800   1.138  0.00  0.00    -0.379 OA
ATOM     17  H3* UNL     1     -37.849  18.762   1.140  0.00  0.00    +0.211 HD
ENDBRANCH   3  16
BRANCH   5  18
ATOM     18  C5* UNL     1     -34.302  21.265   0.066  0.00  0.00    +0.169 C 
BRANCH  18  19
ATOM     19  O5* UNL     1     -32.893  21.141   0.154  0.00  0.00    -0.379 OA
ATOM     20  H5* UNL     1     -32.474  21.869  -0.331  0.00  0.00    +0.211 HD
ENDBRANCH  18  19
ENDBRANCH   5  18
TORSDOF 5
ENDMDL
MODEL 9
REMARK VINA RESULT:      -4.9      3.513      5.606
REMARK  Name = 5288063
REMARK  5 active torsions:
REMARK  status: ('A' for Active; 'I' for Inactive)
REMARK    1  A    between atoms: C2*_2  and  O2*_14
REMARK    2  A    between atoms: C3*_3  and  O3*_16
REMARK    3  A    between atoms: C1*_4  and  N_7
REMARK    4  A    between atoms: C4*_5  and  C5*_18
REMARK    5  A    between atoms: C5*_18  and  O5*_19
REMARK                            x       y       z     vdW  Elec       q    Type
REMARK                         _______ _______ _______ _____ _____    ______ ____
ROOT
ATOM      1  O4* UNL     1     -33.641  24.763   4.409  0.00  0.00    -0.333 OA
ATOM      2  C2* UNL     1     -35.650  26.001   4.618  0.00  0.00    +0.187 C 
ATOM      3  C3* UNL     1     -35.991  24.595   4.169  0.00  0.00    +0.171 C 
ATOM      4  C1* UNL     1     -34.245  25.825   5.166  0.00  0.00    +0.229 C 
ATOM      5  C4* UNL     1     -34.658  24.101   3.625  0.00  0.00    +0.175 C 
ENDROOT
BRANCH   4   7
ATOM      6  O   UNL     1     -32.796  27.005   7.262  0.00  0.00    -0.252 OA
ATOM      7  N   UNL     1     -33.448  27.010   5.024  0.00  0.00    -0.217 N 
ATOM      8  N   UNL     1     -32.005  28.677   5.930  0.00  0.00    -0.284 N 
ATOM      9  C   UNL     1     -32.754  27.527   6.144  0.00  0.00    +0.310 C 
ATOM     10  C   UNL     1     -33.365  27.640   3.788  0.00  0.00    +0.068 C 
ATOM     11  C   UNL     1     -31.868  29.391   4.672  0.00  0.00    +0.119 C 
ATOM     12  C   UNL     1     -32.645  28.746   3.583  0.00  0.00    +0.011 C 
ATOM     13  H   UNL     1     -31.519  29.041   6.705  0.00  0.00    +0.151 HD
ENDBRANCH   4   7
BRANCH   2  14
ATOM     14  O2* UNL     1     -36.555  26.489   5.586  0.00  0.00    -0.378 OA
ATOM     15  H2* UNL     1     -36.249  26.236   6.472  0.00  0.00    +0.211 HD
ENDBRANCH   2  14
BRANCH   3  16
ATOM     16  O3* UNL     1     -36.333  23.787   5.295  0.00  0.00    -0.379 OA
ATOM     17  H3* UNL     1     -36.579  24.357   6.039  0.00  0.00    +0.211 HD
ENDBRANCH   3  16
BRANCH   5  18
ATOM     18  C5* UNL     1     -34.435  24.458   2.162  0.00  0.00    +0.169 C 
BRANCH  18  19
ATOM     19  O5* UNL     1     -35.644  24.242   1.454  0.00  0.00    -0.379 OA
ATOM     20  H5* UNL     1     -36.379  24.653   1.936  0.00  0.00    +0.211 HD
ENDBRANCH  18  19
ENDBRANCH   5  18
TORSDOF 5
ENDMDL
