MODEL 1
REMARK VINA RESULT:      -6.3      0.000      0.000
REMARK  Name = 54121176
REMARK  6 active torsions:
REMARK  status: ('A' for Active; 'I' for Inactive)
REMARK    1  A    between atoms: N_2  and  CA_9
REMARK    2  A    between atoms: C_3  and  C_19
REMARK    3  A    between atoms: CA_11  and  C_15
REMARK    4  A    between atoms: C_15  and  O_16
REMARK    5  A    between atoms: N_18  and  O_28
REMARK    6  A    between atoms: C_19  and  C_23
REMARK                            x       y       z     vdW  Elec       q    Type
REMARK                         _______ _______ _______ _____ _____    ______ ____
ROOT
ATOM      1  O   UNK A   0     -35.847  26.279   5.910  0.00  0.00    -0.268 OA
ATOM      2  N   MET A   1     -35.035  24.767   4.308  0.00  0.00    -0.291 N 
ATOM      3  C   UNK A   0     -34.986  25.866   5.150  0.00  0.00    +0.269 C 
ATOM      4  H   MET A   1     -34.250  24.565   3.750  0.00  0.00    +0.150 HD
ENDROOT
BRANCH   2   9
ATOM      5  SD  MET A   1     -38.742  24.320   2.962  0.00  0.00    -0.114 S 
ATOM      6  O   MET A   1     -35.196  21.528   4.195  0.00  0.00    -0.273 OA
ATOM      7  N   MET A   1     -36.745  22.561   2.755  0.00  0.00    -0.242 N 
ATOM      8  CE  MET A   1     -36.962  23.994   2.870  0.00  0.00    +0.155 C 
ATOM      9  CA  MET A   1     -36.204  23.897   4.214  0.00  0.00    +0.179 C 
ATOM     10  C   MET A   1     -35.874  22.436   3.776  0.00  0.00    +0.251 C 
ATOM     11  CA  MET A   1     -37.347  21.797   1.815  0.00  0.00    +0.127 C 
ATOM     12  CG  MET A   1     -39.098  23.568   1.332  0.00  0.00    +0.087 C 
ATOM     13  CB  MET A   1     -38.410  22.240   1.120  0.00  0.00    +0.007 C 
BRANCH  11  15
ATOM     14  OXT MET A   1     -36.476  20.010   0.513  0.00  0.00    -0.244 OA
ATOM     15  C   MET A   1     -36.887  20.428   1.581  0.00  0.00    +0.352 C 
BRANCH  15  16
ATOM     16  O   MET A   1     -36.991  19.713   2.722  0.00  0.00    -0.476 OA
ATOM     17  H   MET A   1     -36.943  18.777   2.693  0.00  0.00    +0.295 HD
ENDBRANCH  15  16
ENDBRANCH  11  15
ENDBRANCH   2   9
BRANCH   3  19
ATOM     18  N   UNK A   0     -33.076  26.981   6.167  0.00  0.00    -0.076 NA
ATOM     19  C   UNK A   0     -33.677  26.608   5.077  0.00  0.00    +0.198 C 
BRANCH  19  23
ATOM     20  S   UNK A   0     -32.475  28.045   1.562  0.00  0.00    -0.060 S 
ATOM     21  N   UNK A   0     -32.280  25.987   3.114  0.00  0.00    -0.383 NA
ATOM     22  N   UNK A   0     -31.085  25.829   1.079  0.00  0.00    -0.328 N 
ATOM     23  C   UNK A   0     -33.094  26.909   3.742  0.00  0.00    +0.148 C 
ATOM     24  C   UNK A   0     -33.315  28.084   3.057  0.00  0.00    +0.127 C 
ATOM     25  C   UNK A   0     -31.896  26.479   1.957  0.00  0.00    +0.204 C 
ATOM     26  H   UNK A   0     -30.836  26.258   0.230  0.00  0.00    +0.145 HD
ATOM     27  H   UNK A   0     -30.746  24.929   1.295  0.00  0.00    +0.145 HD
ENDBRANCH  19  23
BRANCH  18  28
ATOM     28  O   UNK A   0     -31.880  27.660   5.894  0.00  0.00    -0.373 OA
ATOM     29  C   UNK A   0     -31.832  28.818   6.712  0.00  0.00    +0.288 C 
ENDBRANCH  18  28
ENDBRANCH   3  19
TORSDOF 6
ENDMDL
MODEL 2
REMARK VINA RESULT:      -5.9      1.545      1.767
REMARK  Name = 54121176
REMARK  6 active torsions:
REMARK  status: ('A' for Active; 'I' for Inactive)
REMARK    1  A    between atoms: N_2  and  CA_9
REMARK    2  A    between atoms: C_3  and  C_19
REMARK    3  A    between atoms: CA_11  and  C_15
REMARK    4  A    between atoms: C_15  and  O_16
REMARK    5  A    between atoms: N_18  and  O_28
REMARK    6  A    between atoms: C_19  and  C_23
REMARK                            x       y       z     vdW  Elec       q    Type
REMARK                         _______ _______ _______ _____ _____    ______ ____
ROOT
ATOM      1  O   UNK A   0     -34.762  24.631   5.907  0.00  0.00    -0.268 OA
ATOM      2  N   MET A   1     -35.907  25.218   3.943  0.00  0.00    -0.291 N 
ATOM      3  C   UNK A   0     -34.955  25.351   4.941  0.00  0.00    +0.269 C 
ATOM      4  H   MET A   1     -35.934  25.890   3.225  0.00  0.00    +0.150 HD
ENDROOT
BRANCH   2   9
ATOM      5  SD  MET A   1     -39.436  23.932   2.663  0.00  0.00    -0.114 S 
ATOM      6  O   MET A   1     -35.395  22.014   4.031  0.00  0.00    -0.273 OA
ATOM      7  N   MET A   1     -37.118  22.614   2.545  0.00  0.00    -0.242 N 
ATOM      8  CE  MET A   1     -37.627  23.976   2.574  0.00  0.00    +0.155 C 
ATOM      9  CA  MET A   1     -36.870  24.120   3.914  0.00  0.00    +0.179 C 
ATOM     10  C   MET A   1     -36.244  22.735   3.564  0.00  0.00    +0.251 C 
ATOM     11  CA  MET A   1     -37.546  21.685   1.660  0.00  0.00    +0.127 C 
ATOM     12  CG  MET A   1     -39.623  23.022   1.086  0.00  0.00    +0.087 C 
ATOM     13  CB  MET A   1     -38.675  21.854   0.948  0.00  0.00    +0.007 C 
BRANCH  11  15
ATOM     14  OXT MET A   1     -36.221  20.093   0.495  0.00  0.00    -0.244 OA
ATOM     15  C   MET A   1     -36.812  20.429   1.506  0.00  0.00    +0.352 C 
BRANCH  15  16
ATOM     16  O   MET A   1     -36.894  19.712   2.648  0.00  0.00    -0.476 OA
ATOM     17  H   MET A   1     -37.659  19.200   2.825  0.00  0.00    +0.295 HD
ENDBRANCH  15  16
ENDBRANCH  11  15
ENDBRANCH   2   9
BRANCH   3  19
ATOM     18  N   UNK A   0     -33.297  26.953   5.721  0.00  0.00    -0.076 NA
ATOM     19  C   UNK A   0     -34.071  26.557   4.757  0.00  0.00    +0.198 C 
BRANCH  19  23
ATOM     20  S   UNK A   0     -33.600  28.080   1.106  0.00  0.00    -0.060 S 
ATOM     21  N   UNK A   0     -35.052  28.265   3.237  0.00  0.00    -0.383 NA
ATOM     22  N   UNK A   0     -35.642  29.743   1.487  0.00  0.00    -0.328 N 
ATOM     23  C   UNK A   0     -34.108  27.283   3.459  0.00  0.00    +0.148 C 
ATOM     24  C   UNK A   0     -33.234  27.040   2.420  0.00  0.00    +0.127 C 
ATOM     25  C   UNK A   0     -34.880  28.755   2.029  0.00  0.00    +0.204 C 
ATOM     26  H   UNK A   0     -35.456  30.062   0.574  0.00  0.00    +0.145 HD
ATOM     27  H   UNK A   0     -36.378  30.138   2.007  0.00  0.00    +0.145 HD
ENDBRANCH  19  23
BRANCH  18  28
ATOM     28  O   UNK A   0     -32.560  28.090   5.361  0.00  0.00    -0.373 OA
ATOM     29  C   UNK A   0     -31.774  28.479   6.477  0.00  0.00    +0.288 C 
ENDBRANCH  18  28
ENDBRANCH   3  19
TORSDOF 6
ENDMDL
MODEL 3
REMARK VINA RESULT:      -5.9      4.017      6.530
REMARK  Name = 54121176
REMARK  6 active torsions:
REMARK  status: ('A' for Active; 'I' for Inactive)
REMARK    1  A    between atoms: N_2  and  CA_9
REMARK    2  A    between atoms: C_3  and  C_19
REMARK    3  A    between atoms: CA_11  and  C_15
REMARK    4  A    between atoms: C_15  and  O_16
REMARK    5  A    between atoms: N_18  and  O_28
REMARK    6  A    between atoms: C_19  and  C_23
REMARK                            x       y       z     vdW  Elec       q    Type
REMARK                         _______ _______ _______ _____ _____    ______ ____
ROOT
ATOM      1  O   UNK A   0     -36.373  21.987   0.733  0.00  0.00    -0.268 OA
ATOM      2  N   MET A   1     -34.716  20.697   1.782  0.00  0.00    -0.291 N 
ATOM      3  C   UNK A   0     -35.726  21.642   1.709  0.00  0.00    +0.269 C 
ATOM      4  H   MET A   1     -34.288  20.532   2.652  0.00  0.00    +0.150 HD
ENDROOT
BRANCH   2   9
ATOM      5  SD  MET A   1     -31.705  18.794   0.032  0.00  0.00    -0.114 S 
ATOM      6  O   MET A   1     -36.378  18.699  -0.161  0.00  0.00    -0.273 OA
ATOM      7  N   MET A   1     -34.210  17.911   0.303  0.00  0.00    -0.242 N 
ATOM      8  CE  MET A   1     -33.264  18.804   0.955  0.00  0.00    +0.155 C 
ATOM      9  CA  MET A   1     -34.261  19.937   0.621  0.00  0.00    +0.179 C 
ATOM     10  C   MET A   1     -35.228  18.789   0.196  0.00  0.00    +0.251 C 
ATOM     11  CA  MET A   1     -33.923  16.624   0.003  0.00  0.00    +0.127 C 
ATOM     12  CG  MET A   1     -31.428  16.999   0.261  0.00  0.00    +0.087 C 
ATOM     13  CB  MET A   1     -32.660  16.163   0.006  0.00  0.00    +0.007 C 
BRANCH  11  15
ATOM     14  OXT MET A   1     -35.200  15.354  -1.546  0.00  0.00    -0.244 OA
ATOM     15  C   MET A   1     -34.993  15.712  -0.400  0.00  0.00    +0.352 C 
BRANCH  15  16
ATOM     16  O   MET A   1     -35.704  15.338   0.684  0.00  0.00    -0.476 OA
ATOM     17  H   MET A   1     -35.625  15.819   1.485  0.00  0.00    +0.295 HD
ENDBRANCH  15  16
ENDBRANCH  11  15
ENDBRANCH   2   9
BRANCH   3  19
ATOM     18  N   UNK A   0     -35.635  21.732   4.140  0.00  0.00    -0.076 NA
ATOM     19  C   UNK A   0     -36.024  22.293   3.035  0.00  0.00    +0.198 C 
BRANCH  19  23
ATOM     20  S   UNK A   0     -37.391  26.032   2.912  0.00  0.00    -0.060 S 
ATOM     21  N   UNK A   0     -38.125  23.591   3.343  0.00  0.00    -0.383 NA
ATOM     22  N   UNK A   0     -39.842  25.205   3.536  0.00  0.00    -0.328 N 
ATOM     23  C   UNK A   0     -36.775  23.577   3.052  0.00  0.00    +0.148 C 
ATOM     24  C   UNK A   0     -36.201  24.803   2.791  0.00  0.00    +0.127 C 
ATOM     25  C   UNK A   0     -38.556  24.832   3.298  0.00  0.00    +0.204 C 
ATOM     26  H   UNK A   0     -40.096  26.154   3.485  0.00  0.00    +0.145 HD
ATOM     27  H   UNK A   0     -40.519  24.525   3.759  0.00  0.00    +0.145 HD
ENDBRANCH  19  23
BRANCH  18  28
ATOM     28  O   UNK A   0     -36.010  22.483   5.263  0.00  0.00    -0.373 OA
ATOM     29  C   UNK A   0     -35.228  22.051   6.365  0.00  0.00    +0.288 C 
ENDBRANCH  18  28
ENDBRANCH   3  19
TORSDOF 6
ENDMDL
MODEL 4
REMARK VINA RESULT:      -5.8      1.922      3.049
REMARK  Name = 54121176
REMARK  6 active torsions:
REMARK  status: ('A' for Active; 'I' for Inactive)
REMARK    1  A    between atoms: N_2  and  CA_9
REMARK    2  A    between atoms: C_3  and  C_19
REMARK    3  A    between atoms: CA_11  and  C_15
REMARK    4  A    between atoms: C_15  and  O_16
REMARK    5  A    between atoms: N_18  and  O_28
REMARK    6  A    between atoms: C_19  and  C_23
REMARK                            x       y       z     vdW  Elec       q    Type
REMARK                         _______ _______ _______ _____ _____    ______ ____
ROOT
ATOM      1  O   UNK A   0     -35.426  26.685   5.220  0.00  0.00    -0.268 OA
ATOM      2  N   MET A   1     -35.628  25.825   3.045  0.00  0.00    -0.291 N 
ATOM      3  C   UNK A   0     -34.971  26.386   4.128  0.00  0.00    +0.269 C 
ATOM      4  H   MET A   1     -35.115  25.641   2.226  0.00  0.00    +0.150 HD
ENDROOT
BRANCH   2   9
ATOM      5  SD  MET A   1     -39.151  26.181   1.253  0.00  0.00    -0.114 S 
ATOM      6  O   MET A   1     -37.119  23.196   4.226  0.00  0.00    -0.273 OA
ATOM      7  N   MET A   1     -38.062  23.936   2.201  0.00  0.00    -0.242 N 
ATOM      8  CE  MET A   1     -37.666  25.233   1.677  0.00  0.00    +0.155 C 
ATOM      9  CA  MET A   1     -37.051  25.494   3.070  0.00  0.00    +0.179 C 
ATOM     10  C   MET A   1     -37.347  23.987   3.343  0.00  0.00    +0.251 C 
ATOM     11  CA  MET A   1     -38.905  23.103   1.550  0.00  0.00    +0.127 C 
ATOM     12  CG  MET A   1     -39.749  24.953   0.035  0.00  0.00    +0.087 C 
ATOM     13  CB  MET A   1     -39.670  23.528   0.529  0.00  0.00    +0.007 C 
BRANCH  11  15
ATOM     14  OXT MET A   1     -40.116  21.165   2.202  0.00  0.00    -0.244 OA
ATOM     15  C   MET A   1     -39.050  21.716   1.994  0.00  0.00    +0.352 C 
BRANCH  15  16
ATOM     16  O   MET A   1     -37.830  21.155   2.137  0.00  0.00    -0.476 OA
ATOM     17  H   MET A   1     -37.320  20.945   1.379  0.00  0.00    +0.295 HD
ENDBRANCH  15  16
ENDBRANCH  11  15
ENDBRANCH   2   9
BRANCH   3  19
ATOM     18  N   UNK A   0     -32.835  25.829   3.101  0.00  0.00    -0.076 NA
ATOM     19  C   UNK A   0     -33.508  26.633   3.868  0.00  0.00    +0.198 C 
BRANCH  19  23
ATOM     20  S   UNK A   0     -31.877  30.105   4.944  0.00  0.00    -0.060 S 
ATOM     21  N   UNK A   0     -32.386  27.720   5.804  0.00  0.00    -0.383 NA
ATOM     22  N   UNK A   0     -31.294  29.136   7.352  0.00  0.00    -0.328 N 
ATOM     23  C   UNK A   0     -32.853  27.805   4.507  0.00  0.00    +0.148 C 
ATOM     24  C   UNK A   0     -32.668  29.018   3.878  0.00  0.00    +0.127 C 
ATOM     25  C   UNK A   0     -31.852  28.874   6.140  0.00  0.00    +0.204 C 
ATOM     26  H   UNK A   0     -30.912  30.024   7.536  0.00  0.00    +0.145 HD
ATOM     27  H   UNK A   0     -31.274  28.437   8.046  0.00  0.00    +0.145 HD
ENDBRANCH  19  23
BRANCH  18  28
ATOM     28  O   UNK A   0     -31.494  26.221   2.987  0.00  0.00    -0.373 OA
ATOM     29  C   UNK A   0     -31.194  26.377   1.609  0.00  0.00    +0.288 C 
ENDBRANCH  18  28
ENDBRANCH   3  19
TORSDOF 6
ENDMDL
MODEL 5
REMARK VINA RESULT:      -5.8      4.251      7.021
REMARK  Name = 54121176
REMARK  6 active torsions:
REMARK  status: ('A' for Active; 'I' for Inactive)
REMARK    1  A    between atoms: N_2  and  CA_9
REMARK    2  A    between atoms: C_3  and  C_19
REMARK    3  A    between atoms: CA_11  and  C_15
REMARK    4  A    between atoms: C_15  and  O_16
REMARK    5  A    between atoms: N_18  and  O_28
REMARK    6  A    between atoms: C_19  and  C_23
REMARK                            x       y       z     vdW  Elec       q    Type
REMARK                         _______ _______ _______ _____ _____    ______ ____
ROOT
ATOM      1  O   UNK A   0     -38.606  26.772   1.621  0.00  0.00    -0.268 OA
ATOM      2  N   MET A   1     -38.708  25.124   3.290  0.00  0.00    -0.291 N 
ATOM      3  C   UNK A   0     -39.203  26.115   2.459  0.00  0.00    +0.269 C 
ATOM      4  H   MET A   1     -39.324  24.684   3.918  0.00  0.00    +0.150 HD
ENDROOT
BRANCH   2   9
ATOM      5  SD  MET A   1     -35.469  24.274   5.421  0.00  0.00    -0.114 S 
ATOM      6  O   MET A   1     -37.153  23.199   1.191  0.00  0.00    -0.273 OA
ATOM      7  N   MET A   1     -36.486  22.832   3.418  0.00  0.00    -0.242 N 
ATOM      8  CE  MET A   1     -36.909  23.775   4.440  0.00  0.00    +0.155 C 
ATOM      9  CA  MET A   1     -37.309  24.705   3.272  0.00  0.00    +0.179 C 
ATOM     10  C   MET A   1     -37.027  23.471   2.361  0.00  0.00    +0.251 C 
ATOM     11  CA  MET A   1     -35.775  21.715   3.693  0.00  0.00    +0.127 C 
ATOM     12  CG  MET A   1     -35.096  22.572   5.981  0.00  0.00    +0.087 C 
ATOM     13  CB  MET A   1     -35.151  21.548   4.873  0.00  0.00    +0.007 C 
BRANCH  11  15
ATOM     14  OXT MET A   1     -34.655  20.587   1.927  0.00  0.00    -0.244 OA
ATOM     15  C   MET A   1     -35.615  20.681   2.671  0.00  0.00    +0.352 C 
BRANCH  15  16
ATOM     16  O   MET A   1     -36.686  19.859   2.684  0.00  0.00    -0.476 OA
ATOM     17  H   MET A   1     -37.517  20.169   2.379  0.00  0.00    +0.295 HD
ENDBRANCH  15  16
ENDBRANCH  11  15
ENDBRANCH   2   9
BRANCH   3  19
ATOM     18  N   UNK A   0     -41.107  26.880   3.769  0.00  0.00    -0.076 NA
ATOM     19  C   UNK A   0     -40.675  26.370   2.655  0.00  0.00    +0.198 C 
BRANCH  19  23
ATOM     20  S   UNK A   0     -43.101  26.130  -0.495  0.00  0.00    -0.060 S 
ATOM     21  N   UNK A   0     -42.151  24.751   1.475  0.00  0.00    -0.383 NA
ATOM     22  N   UNK A   0     -43.641  23.584   0.057  0.00  0.00    -0.328 N 
ATOM     23  C   UNK A   0     -41.617  26.022   1.558  0.00  0.00    +0.148 C 
ATOM     24  C   UNK A   0     -42.013  26.908   0.578  0.00  0.00    +0.127 C 
ATOM     25  C   UNK A   0     -42.948  24.693   0.431  0.00  0.00    +0.204 C 
ATOM     26  H   UNK A   0     -44.220  23.611  -0.738  0.00  0.00    +0.145 HD
ATOM     27  H   UNK A   0     -43.561  22.754   0.581  0.00  0.00    +0.145 HD
ENDBRANCH  19  23
BRANCH  18  28
ATOM     28  O   UNK A   0     -42.500  27.035   3.762  0.00  0.00    -0.373 OA
ATOM     29  C   UNK A   0     -42.799  28.366   4.155  0.00  0.00    +0.288 C 
ENDBRANCH  18  28
ENDBRANCH   3  19
TORSDOF 6
ENDMDL
MODEL 6
REMARK VINA RESULT:      -5.7      4.105      6.341
REMARK  Name = 54121176
REMARK  6 active torsions:
REMARK  status: ('A' for Active; 'I' for Inactive)
REMARK    1  A    between atoms: N_2  and  CA_9
REMARK    2  A    between atoms: C_3  and  C_19
REMARK    3  A    between atoms: CA_11  and  C_15
REMARK    4  A    between atoms: C_15  and  O_16
REMARK    5  A    between atoms: N_18  and  O_28
REMARK    6  A    between atoms: C_19  and  C_23
REMARK                            x       y       z     vdW  Elec       q    Type
REMARK                         _______ _______ _______ _____ _____    ______ ____
ROOT
ATOM      1  O   UNK A   0     -40.213  21.145   1.734  0.00  0.00    -0.268 OA
ATOM      2  N   MET A   1     -37.937  21.714   1.836  0.00  0.00    -0.291 N 
ATOM      3  C   UNK A   0     -39.302  21.952   1.824  0.00  0.00    +0.269 C 
ATOM      4  H   MET A   1     -37.326  22.480   1.915  0.00  0.00    +0.150 HD
ENDROOT
BRANCH   2   9
ATOM      5  SD  MET A   1     -37.464  18.470  -0.401  0.00  0.00    -0.114 S 
ATOM      6  O   MET A   1     -35.246  20.500   3.182  0.00  0.00    -0.273 OA
ATOM      7  N   MET A   1     -35.569  19.751   0.975  0.00  0.00    -0.242 N 
ATOM      8  CE  MET A   1     -36.845  20.009   0.327  0.00  0.00    +0.155 C 
ATOM      9  CA  MET A   1     -37.370  20.372   1.734  0.00  0.00    +0.179 C 
ATOM     10  C   MET A   1     -35.877  20.279   2.177  0.00  0.00    +0.251 C 
ATOM     11  CA  MET A   1     -34.532  19.150   0.349  0.00  0.00    +0.127 C 
ATOM     12  CG  MET A   1     -36.017  18.252  -1.500  0.00  0.00    +0.087 C 
ATOM     13  CB  MET A   1     -34.695  18.481  -0.806  0.00  0.00    +0.007 C 
BRANCH  11  15
ATOM     14  OXT MET A   1     -32.777  18.296   1.705  0.00  0.00    -0.244 OA
ATOM     15  C   MET A   1     -33.203  19.162   0.961  0.00  0.00    +0.352 C 
BRANCH  15  16
ATOM     16  O   MET A   1     -32.536  20.271   0.577  0.00  0.00    -0.476 OA
ATOM     17  H   MET A   1     -33.005  21.064   0.405  0.00  0.00    +0.295 HD
ENDBRANCH  15  16
ENDBRANCH  11  15
ENDBRANCH   2   9
BRANCH   3  19
ATOM     18  N   UNK A   0     -40.854  23.823   1.693  0.00  0.00    -0.076 NA
ATOM     19  C   UNK A   0     -39.647  23.414   1.945  0.00  0.00    +0.198 C 
BRANCH  19  23
ATOM     20  S   UNK A   0     -36.722  26.092   2.313  0.00  0.00    -0.060 S 
ATOM     21  N   UNK A   0     -38.289  24.562   3.686  0.00  0.00    -0.383 NA
ATOM     22  N   UNK A   0     -36.787  25.867   4.963  0.00  0.00    -0.328 N 
ATOM     23  C   UNK A   0     -38.584  24.372   2.350  0.00  0.00    +0.148 C 
ATOM     24  C   UNK A   0     -37.841  25.114   1.457  0.00  0.00    +0.127 C 
ATOM     25  C   UNK A   0     -37.322  25.447   3.785  0.00  0.00    +0.204 C 
ATOM     26  H   UNK A   0     -36.064  26.534   4.964  0.00  0.00    +0.145 HD
ATOM     27  H   UNK A   0     -37.123  25.504   5.814  0.00  0.00    +0.145 HD
ENDBRANCH  19  23
BRANCH  18  28
ATOM     28  O   UNK A   0     -40.976  25.210   1.855  0.00  0.00    -0.373 OA
ATOM     29  C   UNK A   0     -41.942  25.681   0.928  0.00  0.00    +0.288 C 
ENDBRANCH  18  28
ENDBRANCH   3  19
TORSDOF 6
ENDMDL
MODEL 7
REMARK VINA RESULT:      -5.7      2.420      7.571
REMARK  Name = 54121176
REMARK  6 active torsions:
REMARK  status: ('A' for Active; 'I' for Inactive)
REMARK    1  A    between atoms: N_2  and  CA_9
REMARK    2  A    between atoms: C_3  and  C_19
REMARK    3  A    between atoms: CA_11  and  C_15
REMARK    4  A    between atoms: C_15  and  O_16
REMARK    5  A    between atoms: N_18  and  O_28
REMARK    6  A    between atoms: C_19  and  C_23
REMARK                            x       y       z     vdW  Elec       q    Type
REMARK                         _______ _______ _______ _____ _____    ______ ____
ROOT
ATOM      1  O   UNK A   0     -34.805  24.760   1.664  0.00  0.00    -0.268 OA
ATOM      2  N   MET A   1     -34.312  25.977   3.610  0.00  0.00    -0.291 N 
ATOM      3  C   UNK A   0     -34.853  24.938   2.870  0.00  0.00    +0.269 C 
ATOM      4  H   MET A   1     -34.440  25.977   4.586  0.00  0.00    +0.150 HD
ENDROOT
BRANCH   2   9
ATOM      5  SD  MET A   1     -34.437  29.228   1.338  0.00  0.00    -0.114 S 
ATOM      6  O   MET A   1     -31.647  27.496   4.670  0.00  0.00    -0.273 OA
ATOM      7  N   MET A   1     -33.198  28.969   3.688  0.00  0.00    -0.242 N 
ATOM      8  CE  MET A   1     -34.323  28.415   2.953  0.00  0.00    +0.155 C 
ATOM      9  CA  MET A   1     -33.561  27.072   3.001  0.00  0.00    +0.179 C 
ATOM     10  C   MET A   1     -32.594  27.801   3.984  0.00  0.00    +0.251 C 
ATOM     11  CA  MET A   1     -33.028  30.296   3.888  0.00  0.00    +0.127 C 
ATOM     12  CG  MET A   1     -34.666  30.900   2.048  0.00  0.00    +0.087 C 
ATOM     13  CB  MET A   1     -33.710  31.211   3.176  0.00  0.00    +0.007 C 
BRANCH  11  15
ATOM     14  OXT MET A   1     -31.123  31.532   4.589  0.00  0.00    -0.244 OA
ATOM     15  C   MET A   1     -32.036  30.769   4.853  0.00  0.00    +0.352 C 
BRANCH  15  16
ATOM     16  O   MET A   1     -32.288  30.230   6.065  0.00  0.00    -0.476 OA
ATOM     17  H   MET A   1     -31.578  29.986   6.626  0.00  0.00    +0.295 HD
ENDBRANCH  15  16
ENDBRANCH  11  15
ENDBRANCH   2   9
BRANCH   3  19
ATOM     18  N   UNK A   0     -35.469  23.955   5.011  0.00  0.00    -0.076 NA
ATOM     19  C   UNK A   0     -35.579  23.926   3.717  0.00  0.00    +0.198 C 
BRANCH  19  23
ATOM     20  S   UNK A   0     -38.337  21.677   1.925  0.00  0.00    -0.060 S 
ATOM     21  N   UNK A   0     -35.894  21.645   2.773  0.00  0.00    -0.383 NA
ATOM     22  N   UNK A   0     -36.640  19.633   1.779  0.00  0.00    -0.328 N 
ATOM     23  C   UNK A   0     -36.415  22.895   3.045  0.00  0.00    +0.148 C 
ATOM     24  C   UNK A   0     -37.723  23.100   2.659  0.00  0.00    +0.127 C 
ATOM     25  C   UNK A   0     -36.818  20.919   2.183  0.00  0.00    +0.204 C 
ATOM     26  H   UNK A   0     -37.376  19.148   1.342  0.00  0.00    +0.145 HD
ATOM     27  H   UNK A   0     -35.773  19.188   1.922  0.00  0.00    +0.145 HD
ENDBRANCH  19  23
BRANCH  18  28
ATOM     28  O   UNK A   0     -36.211  22.933   5.619  0.00  0.00    -0.373 OA
ATOM     29  C   UNK A   0     -35.319  22.128   6.374  0.00  0.00    +0.288 C 
ENDBRANCH  18  28
ENDBRANCH   3  19
TORSDOF 6
ENDMDL
MODEL 8
REMARK VINA RESULT:      -5.6      2.460      7.798
REMARK  Name = 54121176
REMARK  6 active torsions:
REMARK  status: ('A' for Active; 'I' for Inactive)
REMARK    1  A    between atoms: N_2  and  CA_9
REMARK    2  A    between atoms: C_3  and  C_19
REMARK    3  A    between atoms: CA_11  and  C_15
REMARK    4  A    between atoms: C_15  and  O_16
REMARK    5  A    between atoms: N_18  and  O_28
REMARK    6  A    between atoms: C_19  and  C_23
REMARK                            x       y       z     vdW  Elec       q    Type
REMARK                         _______ _______ _______ _____ _____    ______ ____
ROOT
ATOM      1  O   UNK A   0     -34.226  24.804   2.058  0.00  0.00    -0.268 OA
ATOM      2  N   MET A   1     -34.025  26.204   3.932  0.00  0.00    -0.291 N 
ATOM      3  C   UNK A   0     -34.490  25.119   3.207  0.00  0.00    +0.269 C 
ATOM      4  H   MET A   1     -34.336  26.321   4.858  0.00  0.00    +0.150 HD
ENDROOT
BRANCH   2   9
ATOM      5  SD  MET A   1     -33.462  29.163   1.347  0.00  0.00    -0.114 S 
ATOM      6  O   MET A   1     -31.526  27.712   5.350  0.00  0.00    -0.273 OA
ATOM      7  N   MET A   1     -32.740  29.129   3.916  0.00  0.00    -0.242 N 
ATOM      8  CE  MET A   1     -33.732  28.544   3.028  0.00  0.00    +0.155 C 
ATOM      9  CA  MET A   1     -33.092  27.181   3.377  0.00  0.00    +0.179 C 
ATOM     10  C   MET A   1     -32.292  27.977   4.455  0.00  0.00    +0.251 C 
ATOM     11  CA  MET A   1     -32.521  30.460   4.003  0.00  0.00    +0.127 C 
ATOM     12  CG  MET A   1     -33.711  30.916   1.810  0.00  0.00    +0.087 C 
ATOM     13  CB  MET A   1     -32.981  31.314   3.071  0.00  0.00    +0.007 C 
BRANCH  11  15
ATOM     14  OXT MET A   1     -30.697  31.656   4.946  0.00  0.00    -0.244 OA
ATOM     15  C   MET A   1     -31.711  30.998   5.097  0.00  0.00    +0.352 C 
BRANCH  15  16
ATOM     16  O   MET A   1     -32.260  30.653   6.281  0.00  0.00    -0.476 OA
ATOM     17  H   MET A   1     -32.952  30.021   6.309  0.00  0.00    +0.295 HD
ENDBRANCH  15  16
ENDBRANCH  11  15
ENDBRANCH   2   9
BRANCH   3  19
ATOM     18  N   UNK A   0     -35.032  23.640   5.063  0.00  0.00    -0.076 NA
ATOM     19  C   UNK A   0     -35.438  24.249   3.990  0.00  0.00    +0.198 C 
BRANCH  19  23
ATOM     20  S   UNK A   0     -38.922  23.277   2.319  0.00  0.00    -0.060 S 
ATOM     21  N   UNK A   0     -37.821  24.966   3.938  0.00  0.00    -0.383 NA
ATOM     22  N   UNK A   0     -40.137  25.280   3.580  0.00  0.00    -0.328 N 
ATOM     23  C   UNK A   0     -36.837  24.096   3.508  0.00  0.00    +0.148 C 
ATOM     24  C   UNK A   0     -37.242  23.115   2.629  0.00  0.00    +0.127 C 
ATOM     25  C   UNK A   0     -38.960  24.629   3.375  0.00  0.00    +0.204 C 
ATOM     26  H   UNK A   0     -40.954  24.972   3.126  0.00  0.00    +0.145 HD
ATOM     27  H   UNK A   0     -40.171  26.057   4.184  0.00  0.00    +0.145 HD
ENDBRANCH  19  23
BRANCH  18  28
ATOM     28  O   UNK A   0     -36.054  22.877   5.645  0.00  0.00    -0.373 OA
ATOM     29  C   UNK A   0     -35.458  21.772   6.307  0.00  0.00    +0.288 C 
ENDBRANCH  18  28
ENDBRANCH   3  19
TORSDOF 6
ENDMDL
MODEL 9
REMARK VINA RESULT:      -5.6      2.241      2.956
REMARK  Name = 54121176
REMARK  6 active torsions:
REMARK  status: ('A' for Active; 'I' for Inactive)
REMARK    1  A    between atoms: N_2  and  CA_9
REMARK    2  A    between atoms: C_3  and  C_19
REMARK    3  A    between atoms: CA_11  and  C_15
REMARK    4  A    between atoms: C_15  and  O_16
REMARK    5  A    between atoms: N_18  and  O_28
REMARK    6  A    between atoms: C_19  and  C_23
REMARK                            x       y       z     vdW  Elec       q    Type
REMARK                         _______ _______ _______ _____ _____    ______ ____
ROOT
ATOM      1  O   UNK A   0     -34.257  25.950   2.948  0.00  0.00    -0.268 OA
ATOM      2  N   MET A   1     -35.794  26.687   4.562  0.00  0.00    -0.291 N 
ATOM      3  C   UNK A   0     -34.715  26.795   3.701  0.00  0.00    +0.269 C 
ATOM      4  H   MET A   1     -36.041  27.467   5.109  0.00  0.00    +0.150 HD
ENDROOT
BRANCH   2   9
ATOM      5  SD  MET A   1     -38.880  24.569   3.242  0.00  0.00    -0.114 S 
ATOM      6  O   MET A   1     -34.863  23.719   5.483  0.00  0.00    -0.273 OA
ATOM      7  N   MET A   1     -36.410  23.671   3.711  0.00  0.00    -0.242 N 
ATOM      8  CE  MET A   1     -37.101  24.898   3.351  0.00  0.00    +0.155 C 
ATOM      9  CA  MET A   1     -36.581  25.464   4.692  0.00  0.00    +0.179 C 
ATOM     10  C   MET A   1     -35.724  24.162   4.762  0.00  0.00    +0.251 C 
ATOM     11  CA  MET A   1     -36.568  22.510   3.036  0.00  0.00    +0.127 C 
ATOM     12  CG  MET A   1     -38.701  23.313   1.923  0.00  0.00    +0.087 C 
ATOM     13  CB  MET A   1     -37.590  22.322   2.182  0.00  0.00    +0.007 C 
BRANCH  11  15
ATOM     14  OXT MET A   1     -34.962  20.870   2.420  0.00  0.00    -0.244 OA
ATOM     15  C   MET A   1     -35.653  21.394   3.276  0.00  0.00    +0.352 C 
BRANCH  15  16
ATOM     16  O   MET A   1     -35.696  21.043   4.579  0.00  0.00    -0.476 OA
ATOM     17  H   MET A   1     -35.789  21.703   5.239  0.00  0.00    +0.295 HD
ENDBRANCH  15  16
ENDBRANCH  11  15
ENDBRANCH   2   9
BRANCH   3  19
ATOM     18  N   UNK A   0     -34.724  29.205   3.362  0.00  0.00    -0.076 NA
ATOM     19  C   UNK A   0     -34.063  28.153   3.737  0.00  0.00    +0.198 C 
BRANCH  19  23
ATOM     20  S   UNK A   0     -30.122  28.379   4.276  0.00  0.00    -0.060 S 
ATOM     21  N   UNK A   0     -32.373  28.402   5.547  0.00  0.00    -0.383 NA
ATOM     22  N   UNK A   0     -30.449  28.615   6.906  0.00  0.00    -0.328 N 
ATOM     23  C   UNK A   0     -32.654  28.261   4.202  0.00  0.00    +0.148 C 
ATOM     24  C   UNK A   0     -31.564  28.229   3.359  0.00  0.00    +0.127 C 
ATOM     25  C   UNK A   0     -31.070  28.474   5.703  0.00  0.00    +0.204 C 
ATOM     26  H   UNK A   0     -29.468  28.662   6.949  0.00  0.00    +0.145 HD
ATOM     27  H   UNK A   0     -30.983  28.670   7.731  0.00  0.00    +0.145 HD
ENDBRANCH  19  23
BRANCH  18  28
ATOM     28  O   UNK A   0     -33.948  30.369   3.461  0.00  0.00    -0.373 OA
ATOM     29  C   UNK A   0     -34.445  31.313   2.526  0.00  0.00    +0.288 C 
ENDBRANCH  18  28
ENDBRANCH   3  19
TORSDOF 6
ENDMDL
