MODEL 1
REMARK VINA RESULT:      -6.3      0.000      0.000
REMARK  Name = 198407
REMARK  8 active torsions:
REMARK  status: ('A' for Active; 'I' for Inactive)
REMARK    1  A    between atoms: C_5  and  C_32
REMARK    2  A    between atoms: C_6  and  O_30
REMARK    3  A    between atoms: C_10  and  N_15
REMARK    4  A    between atoms: C_16  and  C_18
REMARK    5  A    between atoms: C_19  and  O_28
REMARK    6  A    between atoms: C_21  and  N_25
REMARK    7  A    between atoms: C_32  and  C_33
REMARK    8  A    between atoms: C_33  and  C_34
REMARK                            x       y       z     vdW  Elec       q    Type
REMARK                         _______ _______ _______ _____ _____    ______ ____
ROOT
ATOM      1  O   UNL     1     -38.157  22.391   0.701  0.00  0.00    -0.449 OA
ATOM      2  O   UNL     1     -37.836  24.415   2.416  0.00  0.00    -0.450 OA
ATOM      3  O   UNL     1     -35.596  24.289   1.877  0.00  0.00    -0.250 OA
ATOM      4  O   UNL     1     -40.432  22.122   0.880  0.00  0.00    -0.248 OA
ATOM      5  C   UNL     1     -36.638  22.546   3.215  0.00  0.00    +0.129 C 
ATOM      6  C   UNL     1     -36.567  21.353   2.220  0.00  0.00    +0.161 C 
ATOM      7  C   UNL     1     -37.856  21.156   1.380  0.00  0.00    +0.196 C 
ATOM      8  C   UNL     1     -36.587  23.862   2.455  0.00  0.00    +0.319 C 
ATOM      9  C   UNL     1     -38.205  25.053   1.172  0.00  0.00    +0.198 C 
ATOM     10  C   UNL     1     -39.487  24.363   0.650  0.00  0.00    +0.212 C 
ATOM     11  C   UNL     1     -37.709  20.067   0.323  0.00  0.00    +0.050 C 
ATOM     12  C   UNL     1     -39.446  22.838   0.754  0.00  0.00    +0.339 C 
ATOM     13  C   UNL     1     -38.353  26.550   1.412  0.00  0.00    +0.050 C 
ENDROOT
BRANCH  10  15
ATOM     14  O   UNL     1     -41.855  25.648  -0.354  0.00  0.00    -0.270 OA
ATOM     15  N   UNL     1     -40.648  24.751   1.413  0.00  0.00    -0.290 N 
ATOM     16  C   UNL     1     -41.752  25.371   0.837  0.00  0.00    +0.249 C 
ATOM     17  H   UNL     1     -40.660  24.570   2.381  0.00  0.00    +0.150 HD
BRANCH  16  18
ATOM     18  C   UNL     1     -42.857  25.732   1.764  0.00  0.00    +0.088 C 
ATOM     19  C   UNL     1     -42.635  26.633   2.784  0.00  0.00    +0.151 C 
ATOM     20  C   UNL     1     -44.088  25.140   1.563  0.00  0.00    +0.008 C 
ATOM     21  C   UNL     1     -43.687  26.957   3.641  0.00  0.00    +0.085 C 
ATOM     22  C   UNL     1     -45.141  25.464   2.419  0.00  0.00    +0.002 C 
ATOM     23  C   UNL     1     -44.940  26.372   3.458  0.00  0.00    +0.018 C 
BRANCH  21  25
ATOM     24  O   UNL     1     -43.837  29.987   3.694  0.00  0.00    -0.265 OA
ATOM     25  N   UNL     1     -43.502  27.865   4.686  0.00  0.00    -0.274 N 
ATOM     26  C   UNL     1     -43.586  29.253   4.638  0.00  0.00    +0.304 C 
ATOM     27  H   UNL     1     -43.285  27.476   5.564  0.00  0.00    +0.155 HD
ENDBRANCH  21  25
BRANCH  19  28
ATOM     28  O   UNL     1     -41.408  27.205   2.962  0.00  0.00    -0.504 OA
ATOM     29  H   UNL     1     -41.333  28.021   3.417  0.00  0.00    +0.292 HD
ENDBRANCH  19  28
ENDBRANCH  16  18
ENDBRANCH  10  15
BRANCH   6  30
ATOM     30  O   UNL     1     -36.313  20.158   2.959  0.00  0.00    -0.380 OA
ATOM     31  H   UNL     1     -35.468  20.242   3.428  0.00  0.00    +0.211 HD
ENDBRANCH   6  30
BRANCH   5  32
ATOM     32  C   UNL     1     -35.492  22.536   4.229  0.00  0.00    +0.014 C 
BRANCH  32  33
ATOM     33  C   UNL     1     -35.854  23.336   5.475  0.00  0.00    +0.001 C 
BRANCH  33  34
ATOM     34  C   UNL     1     -35.015  24.611   5.569  0.00  0.00    +0.000 C 
ATOM     35  C   UNL     1     -35.887  25.856   5.521  0.00  0.00    +0.000 C 
ENDBRANCH  33  34
ENDBRANCH  32  33
ENDBRANCH   5  32
TORSDOF 8
ENDMDL
MODEL 2
REMARK VINA RESULT:      -6.3      4.852      7.893
REMARK  Name = 198407
REMARK  8 active torsions:
REMARK  status: ('A' for Active; 'I' for Inactive)
REMARK    1  A    between atoms: C_5  and  C_32
REMARK    2  A    between atoms: C_6  and  O_30
REMARK    3  A    between atoms: C_10  and  N_15
REMARK    4  A    between atoms: C_16  and  C_18
REMARK    5  A    between atoms: C_19  and  O_28
REMARK    6  A    between atoms: C_21  and  N_25
REMARK    7  A    between atoms: C_32  and  C_33
REMARK    8  A    between atoms: C_33  and  C_34
REMARK                            x       y       z     vdW  Elec       q    Type
REMARK                         _______ _______ _______ _____ _____    ______ ____
ROOT
ATOM      1  O   UNL     1     -37.070  22.935   1.495  0.00  0.00    -0.449 OA
ATOM      2  O   UNL     1     -34.431  22.999   1.074  0.00  0.00    -0.450 OA
ATOM      3  O   UNL     1     -34.905  21.997  -0.949  0.00  0.00    -0.250 OA
ATOM      4  O   UNL     1     -37.130  23.924   3.568  0.00  0.00    -0.248 OA
ATOM      5  C   UNL     1     -35.138  20.748   1.124  0.00  0.00    +0.129 C 
ATOM      6  C   UNL     1     -36.681  20.557   1.162  0.00  0.00    +0.161 C 
ATOM      7  C   UNL     1     -37.427  21.631   1.995  0.00  0.00    +0.196 C 
ATOM      8  C   UNL     1     -34.781  21.953   0.268  0.00  0.00    +0.319 C 
ATOM      9  C   UNL     1     -34.895  24.303   0.653  0.00  0.00    +0.198 C 
ATOM     10  C   UNL     1     -35.751  24.891   1.798  0.00  0.00    +0.212 C 
ATOM     11  C   UNL     1     -38.944  21.497   1.904  0.00  0.00    +0.050 C 
ATOM     12  C   UNL     1     -36.726  23.885   2.412  0.00  0.00    +0.339 C 
ATOM     13  C   UNL     1     -33.690  25.153   0.271  0.00  0.00    +0.050 C 
ENDROOT
BRANCH  10  15
ATOM     14  O   UNL     1     -35.466  27.584   2.768  0.00  0.00    -0.270 OA
ATOM     15  N   UNL     1     -34.934  25.329   2.903  0.00  0.00    -0.290 N 
ATOM     16  C   UNL     1     -34.858  26.660   3.301  0.00  0.00    +0.249 C 
ATOM     17  H   UNL     1     -34.406  24.659   3.396  0.00  0.00    +0.150 HD
BRANCH  16  18
ATOM     18  C   UNL     1     -33.950  26.952   4.441  0.00  0.00    +0.088 C 
ATOM     19  C   UNL     1     -32.901  27.833   4.278  0.00  0.00    +0.151 C 
ATOM     20  C   UNL     1     -34.196  26.319   5.643  0.00  0.00    +0.008 C 
ATOM     21  C   UNL     1     -32.061  28.093   5.361  0.00  0.00    +0.085 C 
ATOM     22  C   UNL     1     -33.356  26.578   6.727  0.00  0.00    +0.002 C 
ATOM     23  C   UNL     1     -32.289  27.465   6.586  0.00  0.00    +0.018 C 
BRANCH  21  25
ATOM     24  O   UNL     1     -29.109  27.585   4.882  0.00  0.00    -0.265 OA
ATOM     25  N   UNL     1     -30.988  28.978   5.237  0.00  0.00    -0.274 N 
ATOM     26  C   UNL     1     -29.649  28.673   5.016  0.00  0.00    +0.304 C 
ATOM     27  H   UNL     1     -31.205  29.935   5.316  0.00  0.00    +0.155 HD
ENDBRANCH  21  25
BRANCH  19  28
ATOM     28  O   UNL     1     -32.678  28.447   3.078  0.00  0.00    -0.504 OA
ATOM     29  H   UNL     1     -32.956  28.036   2.283  0.00  0.00    +0.292 HD
ENDBRANCH  19  28
ENDBRANCH  16  18
ENDBRANCH  10  15
BRANCH   6  30
ATOM     30  O   UNL     1     -36.967  19.270   1.708  0.00  0.00    -0.380 OA
ATOM     31  H   UNL     1     -36.342  18.620   1.349  0.00  0.00    +0.211 HD
ENDBRANCH   6  30
BRANCH   5  32
ATOM     32  C   UNL     1     -34.407  19.528   0.559  0.00  0.00    +0.014 C 
BRANCH  32  33
ATOM     33  C   UNL     1     -33.250  19.113   1.461  0.00  0.00    +0.001 C 
BRANCH  33  34
ATOM     34  C   UNL     1     -31.962  18.944   0.655  0.00  0.00    +0.000 C 
ATOM     35  C   UNL     1     -31.576  20.231  -0.057  0.00  0.00    +0.000 C 
ENDBRANCH  33  34
ENDBRANCH  32  33
ENDBRANCH   5  32
TORSDOF 8
ENDMDL
MODEL 3
REMARK VINA RESULT:      -6.2      5.473      9.250
REMARK  Name = 198407
REMARK  8 active torsions:
REMARK  status: ('A' for Active; 'I' for Inactive)
REMARK    1  A    between atoms: C_5  and  C_32
REMARK    2  A    between atoms: C_6  and  O_30
REMARK    3  A    between atoms: C_10  and  N_15
REMARK    4  A    between atoms: C_16  and  C_18
REMARK    5  A    between atoms: C_19  and  O_28
REMARK    6  A    between atoms: C_21  and  N_25
REMARK    7  A    between atoms: C_32  and  C_33
REMARK    8  A    between atoms: C_33  and  C_34
REMARK                            x       y       z     vdW  Elec       q    Type
REMARK                         _______ _______ _______ _____ _____    ______ ____
ROOT
ATOM      1  O   UNL     1     -35.547  24.171   4.637  0.00  0.00    -0.449 OA
ATOM      2  O   UNL     1     -35.119  24.581   2.030  0.00  0.00    -0.450 OA
ATOM      3  O   UNL     1     -37.144  23.524   1.709  0.00  0.00    -0.250 OA
ATOM      4  O   UNL     1     -33.641  25.144   5.474  0.00  0.00    -0.248 OA
ATOM      5  C   UNL     1     -35.198  22.257   2.430  0.00  0.00    +0.129 C 
ATOM      6  C   UNL     1     -35.640  21.865   3.869  0.00  0.00    +0.161 C 
ATOM      7  C   UNL     1     -35.130  22.831   4.969  0.00  0.00    +0.196 C 
ATOM      8  C   UNL     1     -35.949  23.498   1.973  0.00  0.00    +0.319 C 
ATOM      9  C   UNL     1     -35.719  25.813   2.495  0.00  0.00    +0.198 C 
ATOM     10  C   UNL     1     -34.927  26.284   3.737  0.00  0.00    +0.212 C 
ATOM     11  C   UNL     1     -35.688  22.499   6.349  0.00  0.00    +0.050 C 
ATOM     12  C   UNL     1     -34.609  25.158   4.723  0.00  0.00    +0.339 C 
ATOM     13  C   UNL     1     -35.737  26.813   1.347  0.00  0.00    +0.050 C 
ENDROOT
BRANCH  10  15
ATOM     14  O   UNL     1     -34.170  29.058   3.719  0.00  0.00    -0.270 OA
ATOM     15  N   UNL     1     -33.640  26.826   3.374  0.00  0.00    -0.290 N 
ATOM     16  C   UNL     1     -33.365  28.189   3.395  0.00  0.00    +0.249 C 
ATOM     17  H   UNL     1     -32.926  26.205   3.098  0.00  0.00    +0.150 HD
BRANCH  16  18
ATOM     18  C   UNL     1     -32.000  28.589   2.967  0.00  0.00    +0.088 C 
ATOM     19  C   UNL     1     -30.913  28.296   3.765  0.00  0.00    +0.151 C 
ATOM     20  C   UNL     1     -31.868  29.251   1.762  0.00  0.00    +0.008 C 
ATOM     21  C   UNL     1     -29.641  28.681   3.342  0.00  0.00    +0.085 C 
ATOM     22  C   UNL     1     -30.595  29.636   1.339  0.00  0.00    +0.002 C 
ATOM     23  C   UNL     1     -29.482  29.351   2.129  0.00  0.00    +0.018 C 
BRANCH  21  25
ATOM     24  O   UNL     1     -28.112  26.096   3.778  0.00  0.00    -0.265 OA
ATOM     25  N   UNL     1     -28.515  28.402   4.122  0.00  0.00    -0.274 N 
ATOM     26  C   UNL     1     -27.862  27.184   4.276  0.00  0.00    +0.304 C 
ATOM     27  H   UNL     1     -28.139  29.161   4.624  0.00  0.00    +0.155 HD
ENDBRANCH  21  25
BRANCH  19  28
ATOM     28  O   UNL     1     -31.070  27.640   4.952  0.00  0.00    -0.504 OA
ATOM     29  H   UNL     1     -30.570  26.867   5.130  0.00  0.00    +0.292 HD
ENDBRANCH  19  28
ENDBRANCH  16  18
ENDBRANCH  10  15
BRANCH   6  30
ATOM     30  O   UNL     1     -35.158  20.551   4.151  0.00  0.00    -0.380 OA
ATOM     31  H   UNL     1     -34.755  20.538   5.034  0.00  0.00    +0.211 HD
ENDBRANCH   6  30
BRANCH   5  32
ATOM     32  C   UNL     1     -35.453  21.143   1.412  0.00  0.00    +0.014 C 
BRANCH  32  33
ATOM     33  C   UNL     1     -34.154  20.693   0.753  0.00  0.00    +0.001 C 
BRANCH  33  34
ATOM     34  C   UNL     1     -33.716  19.328   1.285  0.00  0.00    +0.000 C 
ATOM     35  C   UNL     1     -32.297  18.991   0.854  0.00  0.00    +0.000 C 
ENDBRANCH  33  34
ENDBRANCH  32  33
ENDBRANCH   5  32
TORSDOF 8
ENDMDL
MODEL 4
REMARK VINA RESULT:      -6.1      5.912     10.296
REMARK  Name = 198407
REMARK  8 active torsions:
REMARK  status: ('A' for Active; 'I' for Inactive)
REMARK    1  A    between atoms: C_5  and  C_32
REMARK    2  A    between atoms: C_6  and  O_30
REMARK    3  A    between atoms: C_10  and  N_15
REMARK    4  A    between atoms: C_16  and  C_18
REMARK    5  A    between atoms: C_19  and  O_28
REMARK    6  A    between atoms: C_21  and  N_25
REMARK    7  A    between atoms: C_32  and  C_33
REMARK    8  A    between atoms: C_33  and  C_34
REMARK                            x       y       z     vdW  Elec       q    Type
REMARK                         _______ _______ _______ _____ _____    ______ ____
ROOT
ATOM      1  O   UNL     1     -40.575  16.208  -2.125  0.00  0.00    -0.449 OA
ATOM      2  O   UNL     1     -38.800  14.807  -0.701  0.00  0.00    -0.450 OA
ATOM      3  O   UNL     1     -39.552  12.977  -1.887  0.00  0.00    -0.250 OA
ATOM      4  O   UNL     1     -40.176  18.295  -1.250  0.00  0.00    -0.248 OA
ATOM      5  C   UNL     1     -40.966  14.016  -0.203  0.00  0.00    +0.129 C 
ATOM      6  C   UNL     1     -42.089  14.601  -1.106  0.00  0.00    +0.161 C 
ATOM      7  C   UNL     1     -41.870  16.083  -1.503  0.00  0.00    +0.196 C 
ATOM      8  C   UNL     1     -39.693  13.822  -1.012  0.00  0.00    +0.319 C 
ATOM      9  C   UNL     1     -38.035  15.339  -1.808  0.00  0.00    +0.198 C 
ATOM     10  C   UNL     1     -38.301  16.861  -1.878  0.00  0.00    +0.212 C 
ATOM     11  C   UNL     1     -42.913  16.588  -2.494  0.00  0.00    +0.050 C 
ATOM     12  C   UNL     1     -39.775  17.232  -1.708  0.00  0.00    +0.339 C 
ATOM     13  C   UNL     1     -36.570  14.968  -1.616  0.00  0.00    +0.050 C 
ENDROOT
BRANCH  10  15
ATOM     14  O   UNL     1     -36.245  18.848  -2.183  0.00  0.00    -0.270 OA
ATOM     15  N   UNL     1     -37.621  17.569  -0.821  0.00  0.00    -0.290 N 
ATOM     16  C   UNL     1     -36.635  18.518  -1.066  0.00  0.00    +0.249 C 
ATOM     17  H   UNL     1     -37.865  17.372   0.113  0.00  0.00    +0.150 HD
BRANCH  16  18
ATOM     18  C   UNL     1     -36.011  19.140   0.131  0.00  0.00    +0.088 C 
ATOM     19  C   UNL     1     -36.767  19.936   0.967  0.00  0.00    +0.151 C 
ATOM     20  C   UNL     1     -34.674  18.890   0.367  0.00  0.00    +0.008 C 
ATOM     21  C   UNL     1     -36.161  20.509   2.085  0.00  0.00    +0.085 C 
ATOM     22  C   UNL     1     -34.067  19.462   1.486  0.00  0.00    +0.002 C 
ATOM     23  C   UNL     1     -34.811  20.272   2.345  0.00  0.00    +0.018 C 
BRANCH  21  25
ATOM     24  O   UNL     1     -36.329  23.530   2.314  0.00  0.00    -0.265 OA
ATOM     25  N   UNL     1     -36.891  21.322   2.955  0.00  0.00    -0.274 N 
ATOM     26  C   UNL     1     -36.920  22.712   3.004  0.00  0.00    +0.304 C 
ATOM     27  H   UNL     1     -37.453  20.855   3.615  0.00  0.00    +0.155 HD
ENDBRANCH  21  25
BRANCH  19  28
ATOM     28  O   UNL     1     -38.088  20.169   0.711  0.00  0.00    -0.504 OA
ATOM     29  H   UNL     1     -38.474  20.989   0.949  0.00  0.00    +0.292 HD
ENDBRANCH  19  28
ENDBRANCH  16  18
ENDBRANCH  10  15
BRANCH   6  30
ATOM     30  O   UNL     1     -43.333  14.489  -0.414  0.00  0.00    -0.380 OA
ATOM     31  H   UNL     1     -43.190  14.631   0.535  0.00  0.00    +0.211 HD
ENDBRANCH   6  30
BRANCH   5  32
ATOM     32  C   UNL     1     -41.348  12.669   0.415  0.00  0.00    +0.014 C 
BRANCH  32  33
ATOM     33  C   UNL     1     -40.609  12.437   1.728  0.00  0.00    +0.001 C 
BRANCH  33  34
ATOM     34  C   UNL     1     -40.508  10.944   2.043  0.00  0.00    +0.000 C 
ATOM     35  C   UNL     1     -40.747  10.096   0.803  0.00  0.00    +0.000 C 
ENDBRANCH  33  34
ENDBRANCH  32  33
ENDBRANCH   5  32
TORSDOF 8
ENDMDL
MODEL 5
REMARK VINA RESULT:      -6.1      2.239      7.876
REMARK  Name = 198407
REMARK  8 active torsions:
REMARK  status: ('A' for Active; 'I' for Inactive)
REMARK    1  A    between atoms: C_5  and  C_32
REMARK    2  A    between atoms: C_6  and  O_30
REMARK    3  A    between atoms: C_10  and  N_15
REMARK    4  A    between atoms: C_16  and  C_18
REMARK    5  A    between atoms: C_19  and  O_28
REMARK    6  A    between atoms: C_21  and  N_25
REMARK    7  A    between atoms: C_32  and  C_33
REMARK    8  A    between atoms: C_33  and  C_34
REMARK                            x       y       z     vdW  Elec       q    Type
REMARK                         _______ _______ _______ _____ _____    ______ ____
ROOT
ATOM      1  O   UNL     1     -40.776  26.792  -0.030  0.00  0.00    -0.449 OA
ATOM      2  O   UNL     1     -41.251  24.935   1.833  0.00  0.00    -0.450 OA
ATOM      3  O   UNL     1     -43.124  24.416   0.589  0.00  0.00    -0.250 OA
ATOM      4  O   UNL     1     -38.827  27.665   0.818  0.00  0.00    -0.248 OA
ATOM      5  C   UNL     1     -43.022  26.495   1.846  0.00  0.00    +0.129 C 
ATOM      6  C   UNL     1     -42.985  27.523   0.680  0.00  0.00    +0.161 C 
ATOM      7  C   UNL     1     -41.554  27.966   0.278  0.00  0.00    +0.196 C 
ATOM      8  C   UNL     1     -42.519  25.142   1.367  0.00  0.00    +0.319 C 
ATOM      9  C   UNL     1     -40.337  24.296   0.913  0.00  0.00    +0.198 C 
ATOM     10  C   UNL     1     -39.130  25.243   0.712  0.00  0.00    +0.212 C 
ATOM     11  C   UNL     1     -41.541  28.868  -0.952  0.00  0.00    +0.050 C 
ATOM     12  C   UNL     1     -39.528  26.707   0.516  0.00  0.00    +0.339 C 
ATOM     13  C   UNL     1     -39.970  22.922   1.459  0.00  0.00    +0.050 C 
ENDROOT
BRANCH  10  15
ATOM     14  O   UNL     1     -36.392  24.370   0.814  0.00  0.00    -0.270 OA
ATOM     15  N   UNL     1     -38.263  25.251   1.866  0.00  0.00    -0.290 N 
ATOM     16  C   UNL     1     -36.946  24.807   1.819  0.00  0.00    +0.249 C 
ATOM     17  H   UNL     1     -38.618  25.585   2.722  0.00  0.00    +0.150 HD
BRANCH  16  18
ATOM     18  C   UNL     1     -36.192  24.855   3.099  0.00  0.00    +0.088 C 
ATOM     19  C   UNL     1     -36.322  23.831   4.014  0.00  0.00    +0.151 C 
ATOM     20  C   UNL     1     -35.375  25.944   3.327  0.00  0.00    +0.008 C 
ATOM     21  C   UNL     1     -35.605  23.897   5.208  0.00  0.00    +0.085 C 
ATOM     22  C   UNL     1     -34.657  26.011   4.522  0.00  0.00    +0.002 C 
ATOM     23  C   UNL     1     -34.772  24.987   5.462  0.00  0.00    +0.018 C 
BRANCH  21  25
ATOM     24  O   UNL     1     -35.004  20.929   5.023  0.00  0.00    -0.265 OA
ATOM     25  N   UNL     1     -35.708  22.880   6.161  0.00  0.00    -0.274 N 
ATOM     26  C   UNL     1     -35.414  21.530   6.005  0.00  0.00    +0.304 C 
ATOM     27  H   UNL     1     -36.030  23.152   7.050  0.00  0.00    +0.155 HD
ENDBRANCH  21  25
BRANCH  19  28
ATOM     28  O   UNL     1     -37.137  22.764   3.764  0.00  0.00    -0.504 OA
ATOM     29  H   UNL     1     -36.906  21.913   4.083  0.00  0.00    +0.292 HD
ENDBRANCH  19  28
ENDBRANCH  16  18
ENDBRANCH  10  15
BRANCH   6  30
ATOM     30  O   UNL     1     -43.732  28.676   1.065  0.00  0.00    -0.380 OA
ATOM     31  H   UNL     1     -43.131  29.342   1.434  0.00  0.00    +0.211 HD
ENDBRANCH   6  30
BRANCH   5  32
ATOM     32  C   UNL     1     -44.428  26.304   2.419  0.00  0.00    +0.014 C 
BRANCH  32  33
ATOM     33  C   UNL     1     -44.444  26.527   3.926  0.00  0.00    +0.001 C 
BRANCH  33  34
ATOM     34  C   UNL     1     -43.303  27.451   4.354  0.00  0.00    +0.000 C 
ATOM     35  C   UNL     1     -43.810  28.846   4.685  0.00  0.00    +0.000 C 
ENDBRANCH  33  34
ENDBRANCH  32  33
ENDBRANCH   5  32
TORSDOF 8
ENDMDL
MODEL 6
REMARK VINA RESULT:      -6.0      4.717      9.487
REMARK  Name = 198407
REMARK  8 active torsions:
REMARK  status: ('A' for Active; 'I' for Inactive)
REMARK    1  A    between atoms: C_5  and  C_32
REMARK    2  A    between atoms: C_6  and  O_30
REMARK    3  A    between atoms: C_10  and  N_15
REMARK    4  A    between atoms: C_16  and  C_18
REMARK    5  A    between atoms: C_19  and  O_28
REMARK    6  A    between atoms: C_21  and  N_25
REMARK    7  A    between atoms: C_32  and  C_33
REMARK    8  A    between atoms: C_33  and  C_34
REMARK                            x       y       z     vdW  Elec       q    Type
REMARK                         _______ _______ _______ _____ _____    ______ ____
ROOT
ATOM      1  O   UNL     1     -36.884  23.889   2.247  0.00  0.00    -0.449 OA
ATOM      2  O   UNL     1     -35.022  23.379   4.096  0.00  0.00    -0.450 OA
ATOM      3  O   UNL     1     -36.464  24.400   5.580  0.00  0.00    -0.250 OA
ATOM      4  O   UNL     1     -35.839  22.971   0.418  0.00  0.00    -0.248 OA
ATOM      5  C   UNL     1     -35.286  25.717   3.908  0.00  0.00    +0.129 C 
ATOM      6  C   UNL     1     -36.478  26.161   3.014  0.00  0.00    +0.161 C 
ATOM      7  C   UNL     1     -36.720  25.245   1.787  0.00  0.00    +0.196 C 
ATOM      8  C   UNL     1     -35.647  24.450   4.669  0.00  0.00    +0.319 C 
ATOM      9  C   UNL     1     -35.798  22.161   4.021  0.00  0.00    +0.198 C 
ATOM     10  C   UNL     1     -35.886  21.749   2.533  0.00  0.00    +0.212 C 
ATOM     11  C   UNL     1     -37.973  25.626   1.006  0.00  0.00    +0.050 C 
ATOM     12  C   UNL     1     -36.187  22.916   1.592  0.00  0.00    +0.339 C 
ATOM     13  C   UNL     1     -35.158  21.115   4.924  0.00  0.00    +0.050 C 
ENDROOT
BRANCH  10  15
ATOM     14  O   UNL     1     -35.520  19.304   1.063  0.00  0.00    -0.270 OA
ATOM     15  N   UNL     1     -34.637  21.206   2.056  0.00  0.00    -0.290 N 
ATOM     16  C   UNL     1     -34.558  20.011   1.350  0.00  0.00    +0.249 C 
ATOM     17  H   UNL     1     -33.806  21.703   2.238  0.00  0.00    +0.150 HD
BRANCH  16  18
ATOM     18  C   UNL     1     -33.194  19.575   0.952  0.00  0.00    +0.088 C 
ATOM     19  C   UNL     1     -32.406  20.398   0.174  0.00  0.00    +0.151 C 
ATOM     20  C   UNL     1     -32.758  18.338   1.385  0.00  0.00    +0.008 C 
ATOM     21  C   UNL     1     -31.130  19.968  -0.187  0.00  0.00    +0.085 C 
ATOM     22  C   UNL     1     -31.481  17.908   1.024  0.00  0.00    +0.002 C 
ATOM     23  C   UNL     1     -30.667  18.723   0.238  0.00  0.00    +0.018 C 
BRANCH  21  25
ATOM     24  O   UNL     1     -30.432  19.819  -3.136  0.00  0.00    -0.265 OA
ATOM     25  N   UNL     1     -30.301  20.773  -0.975  0.00  0.00    -0.274 N 
ATOM     26  C   UNL     1     -30.025  20.644  -2.332  0.00  0.00    +0.304 C 
ATOM     27  H   UNL     1     -29.858  21.520  -0.512  0.00  0.00    +0.155 HD
ENDBRANCH  21  25
BRANCH  19  28
ATOM     28  O   UNL     1     -32.861  21.617  -0.242  0.00  0.00    -0.504 OA
ATOM     29  H   UNL     1     -33.782  21.776  -0.309  0.00  0.00    +0.292 HD
ENDBRANCH  19  28
ENDBRANCH  16  18
ENDBRANCH  10  15
BRANCH   6  30
ATOM     30  O   UNL     1     -36.233  27.490   2.555  0.00  0.00    -0.380 OA
ATOM     31  H   UNL     1     -36.005  28.056   3.310  0.00  0.00    +0.211 HD
ENDBRANCH   6  30
BRANCH   5  32
ATOM     32  C   UNL     1     -34.883  26.785   4.927  0.00  0.00    +0.014 C 
BRANCH  32  33
ATOM     33  C   UNL     1     -33.691  26.329   5.760  0.00  0.00    +0.001 C 
BRANCH  33  34
ATOM     34  C   UNL     1     -32.665  27.453   5.909  0.00  0.00    +0.000 C 
ATOM     35  C   UNL     1     -32.454  28.192   4.596  0.00  0.00    +0.000 C 
ENDBRANCH  33  34
ENDBRANCH  32  33
ENDBRANCH   5  32
TORSDOF 8
ENDMDL
MODEL 7
REMARK VINA RESULT:      -6.0      2.493      8.842
REMARK  Name = 198407
REMARK  8 active torsions:
REMARK  status: ('A' for Active; 'I' for Inactive)
REMARK    1  A    between atoms: C_5  and  C_32
REMARK    2  A    between atoms: C_6  and  O_30
REMARK    3  A    between atoms: C_10  and  N_15
REMARK    4  A    between atoms: C_16  and  C_18
REMARK    5  A    between atoms: C_19  and  O_28
REMARK    6  A    between atoms: C_21  and  N_25
REMARK    7  A    between atoms: C_32  and  C_33
REMARK    8  A    between atoms: C_33  and  C_34
REMARK                            x       y       z     vdW  Elec       q    Type
REMARK                         _______ _______ _______ _____ _____    ______ ____
ROOT
ATOM      1  O   UNL     1     -43.834  29.113   4.303  0.00  0.00    -0.449 OA
ATOM      2  O   UNL     1     -44.854  26.734   3.635  0.00  0.00    -0.450 OA
ATOM      3  O   UNL     1     -46.872  27.839   3.474  0.00  0.00    -0.250 OA
ATOM      4  O   UNL     1     -41.637  28.500   4.581  0.00  0.00    -0.248 OA
ATOM      5  C   UNL     1     -45.855  27.451   5.648  0.00  0.00    +0.129 C 
ATOM      6  C   UNL     1     -45.508  28.911   6.056  0.00  0.00    +0.161 C 
ATOM      7  C   UNL     1     -44.056  29.333   5.711  0.00  0.00    +0.196 C 
ATOM      8  C   UNL     1     -45.968  27.345   4.135  0.00  0.00    +0.319 C 
ATOM      9  C   UNL     1     -44.344  27.270   2.392  0.00  0.00    +0.198 C 
ATOM     10  C   UNL     1     -42.882  27.713   2.633  0.00  0.00    +0.212 C 
ATOM     11  C   UNL     1     -43.787  30.806   5.999  0.00  0.00    +0.050 C 
ATOM     12  C   UNL     1     -42.682  28.476   3.942  0.00  0.00    +0.339 C 
ATOM     13  C   UNL     1     -44.509  26.220   1.301  0.00  0.00    +0.050 C 
ENDROOT
BRANCH  10  15
ATOM     14  O   UNL     1     -40.444  27.310   1.163  0.00  0.00    -0.270 OA
ATOM     15  N   UNL     1     -41.992  26.581   2.729  0.00  0.00    -0.290 N 
ATOM     16  C   UNL     1     -40.829  26.473   1.974  0.00  0.00    +0.249 C 
ATOM     17  H   UNL     1     -42.218  25.854   3.355  0.00  0.00    +0.150 HD
BRANCH  16  18
ATOM     18  C   UNL     1     -40.034  25.232   2.170  0.00  0.00    +0.088 C 
ATOM     19  C   UNL     1     -38.933  25.243   3.000  0.00  0.00    +0.151 C 
ATOM     20  C   UNL     1     -40.437  24.094   1.500  0.00  0.00    +0.008 C 
ATOM     21  C   UNL     1     -38.202  24.068   3.169  0.00  0.00    +0.085 C 
ATOM     22  C   UNL     1     -39.707  22.917   1.669  0.00  0.00    +0.002 C 
ATOM     23  C   UNL     1     -38.589  22.904   2.503  0.00  0.00    +0.018 C 
BRANCH  21  25
ATOM     24  O   UNL     1     -35.266  24.546   2.568  0.00  0.00    -0.265 OA
ATOM     25  N   UNL     1     -37.080  24.037   4.001  0.00  0.00    -0.274 N 
ATOM     26  C   UNL     1     -35.752  24.268   3.655  0.00  0.00    +0.304 C 
ATOM     27  H   UNL     1     -37.249  23.826   4.947  0.00  0.00    +0.155 HD
ENDBRANCH  21  25
BRANCH  19  28
ATOM     28  O   UNL     1     -38.554  26.383   3.651  0.00  0.00    -0.504 OA
ATOM     29  H   UNL     1     -38.756  27.221   3.283  0.00  0.00    +0.292 HD
ENDBRANCH  19  28
ENDBRANCH  16  18
ENDBRANCH  10  15
BRANCH   6  30
ATOM     30  O   UNL     1     -45.704  29.049   7.464  0.00  0.00    -0.380 OA
ATOM     31  H   UNL     1     -46.402  29.701   7.630  0.00  0.00    +0.211 HD
ENDBRANCH   6  30
BRANCH   5  32
ATOM     32  C   UNL     1     -47.170  26.965   6.260  0.00  0.00    +0.014 C 
BRANCH  32  33
ATOM     33  C   UNL     1     -47.210  25.443   6.341  0.00  0.00    +0.001 C 
BRANCH  33  34
ATOM     34  C   UNL     1     -48.233  24.870   5.359  0.00  0.00    +0.000 C 
ATOM     35  C   UNL     1     -47.562  24.034   4.281  0.00  0.00    +0.000 C 
ENDBRANCH  33  34
ENDBRANCH  32  33
ENDBRANCH   5  32
TORSDOF 8
ENDMDL
MODEL 8
REMARK VINA RESULT:      -5.9      4.057      7.587
REMARK  Name = 198407
REMARK  8 active torsions:
REMARK  status: ('A' for Active; 'I' for Inactive)
REMARK    1  A    between atoms: C_5  and  C_32
REMARK    2  A    between atoms: C_6  and  O_30
REMARK    3  A    between atoms: C_10  and  N_15
REMARK    4  A    between atoms: C_16  and  C_18
REMARK    5  A    between atoms: C_19  and  O_28
REMARK    6  A    between atoms: C_21  and  N_25
REMARK    7  A    between atoms: C_32  and  C_33
REMARK    8  A    between atoms: C_33  and  C_34
REMARK                            x       y       z     vdW  Elec       q    Type
REMARK                         _______ _______ _______ _____ _____    ______ ____
ROOT
ATOM      1  O   UNL     1     -32.757  26.610   4.964  0.00  0.00    -0.449 OA
ATOM      2  O   UNL     1     -33.455  27.065   2.424  0.00  0.00    -0.450 OA
ATOM      3  O   UNL     1     -31.278  27.772   2.134  0.00  0.00    -0.250 OA
ATOM      4  O   UNL     1     -34.760  25.808   5.752  0.00  0.00    -0.248 OA
ATOM      5  C   UNL     1     -32.844  29.114   3.423  0.00  0.00    +0.129 C 
ATOM      6  C   UNL     1     -32.223  28.980   4.842  0.00  0.00    +0.161 C 
ATOM      7  C   UNL     1     -32.847  27.847   5.698  0.00  0.00    +0.196 C 
ATOM      8  C   UNL     1     -32.416  27.943   2.552  0.00  0.00    +0.319 C 
ATOM      9  C   UNL     1     -33.104  25.662   2.455  0.00  0.00    +0.198 C 
ATOM     10  C   UNL     1     -33.885  25.006   3.617  0.00  0.00    +0.212 C 
ATOM     11  C   UNL     1     -32.130  27.652   7.029  0.00  0.00    +0.050 C 
ATOM     12  C   UNL     1     -33.877  25.833   4.903  0.00  0.00    +0.339 C 
ATOM     13  C   UNL     1     -33.387  25.055   1.088  0.00  0.00    +0.050 C 
ENDROOT
BRANCH  10  15
ATOM     14  O   UNL     1     -35.502  22.676   4.093  0.00  0.00    -0.270 OA
ATOM     15  N   UNL     1     -35.282  24.844   3.295  0.00  0.00    -0.290 N 
ATOM     16  C   UNL     1     -35.984  23.674   3.564  0.00  0.00    +0.249 C 
ATOM     17  H   UNL     1     -35.758  25.591   2.866  0.00  0.00    +0.150 HD
BRANCH  16  18
ATOM     18  C   UNL     1     -37.410  23.655   3.146  0.00  0.00    +0.088 C 
ATOM     19  C   UNL     1     -37.954  22.510   2.602  0.00  0.00    +0.151 C 
ATOM     20  C   UNL     1     -38.151  24.807   3.323  0.00  0.00    +0.008 C 
ATOM     21  C   UNL     1     -39.295  22.516   2.217  0.00  0.00    +0.085 C 
ATOM     22  C   UNL     1     -39.492  24.813   2.939  0.00  0.00    +0.002 C 
ATOM     23  C   UNL     1     -40.064  23.667   2.386  0.00  0.00    +0.018 C 
BRANCH  21  25
ATOM     24  O   UNL     1     -39.677  21.683  -0.675  0.00  0.00    -0.265 OA
ATOM     25  N   UNL     1     -39.883  21.377   1.662  0.00  0.00    -0.274 N 
ATOM     26  C   UNL     1     -40.026  21.058   0.316  0.00  0.00    +0.304 C 
ATOM     27  H   UNL     1     -40.243  20.720   2.302  0.00  0.00    +0.155 HD
ENDBRANCH  21  25
BRANCH  19  28
ATOM     28  O   UNL     1     -37.201  21.383   2.437  0.00  0.00    -0.504 OA
ATOM     29  H   UNL     1     -36.431  21.409   1.903  0.00  0.00    +0.292 HD
ENDBRANCH  19  28
ENDBRANCH  16  18
ENDBRANCH  10  15
BRANCH   6  30
ATOM     30  O   UNL     1     -32.386  30.220   5.530  0.00  0.00    -0.380 OA
ATOM     31  H   UNL     1     -31.924  30.922   5.045  0.00  0.00    +0.211 HD
ENDBRANCH   6  30
BRANCH   5  32
ATOM     32  C   UNL     1     -32.430  30.408   2.718  0.00  0.00    +0.014 C 
BRANCH  32  33
ATOM     33  C   UNL     1     -33.639  31.295   2.443  0.00  0.00    +0.001 C 
BRANCH  33  34
ATOM     34  C   UNL     1     -34.939  30.574   2.798  0.00  0.00    +0.000 C 
ATOM     35  C   UNL     1     -36.157  31.367   2.349  0.00  0.00    +0.000 C 
ENDBRANCH  33  34
ENDBRANCH  32  33
ENDBRANCH   5  32
TORSDOF 8
ENDMDL
MODEL 9
REMARK VINA RESULT:      -5.9      3.792      6.556
REMARK  Name = 198407
REMARK  8 active torsions:
REMARK  status: ('A' for Active; 'I' for Inactive)
REMARK    1  A    between atoms: C_5  and  C_32
REMARK    2  A    between atoms: C_6  and  O_30
REMARK    3  A    between atoms: C_10  and  N_15
REMARK    4  A    between atoms: C_16  and  C_18
REMARK    5  A    between atoms: C_19  and  O_28
REMARK    6  A    between atoms: C_21  and  N_25
REMARK    7  A    between atoms: C_32  and  C_33
REMARK    8  A    between atoms: C_33  and  C_34
REMARK                            x       y       z     vdW  Elec       q    Type
REMARK                         _______ _______ _______ _____ _____    ______ ____
ROOT
ATOM      1  O   UNL     1     -33.199  26.136   4.927  0.00  0.00    -0.449 OA
ATOM      2  O   UNL     1     -33.618  26.637   2.335  0.00  0.00    -0.450 OA
ATOM      3  O   UNL     1     -31.353  27.064   2.229  0.00  0.00    -0.250 OA
ATOM      4  O   UNL     1     -35.347  25.602   5.544  0.00  0.00    -0.248 OA
ATOM      5  C   UNL     1     -32.842  28.609   3.374  0.00  0.00    +0.129 C 
ATOM      6  C   UNL     1     -32.364  28.419   4.841  0.00  0.00    +0.161 C 
ATOM      7  C   UNL     1     -33.196  27.386   5.645  0.00  0.00    +0.196 C 
ATOM      8  C   UNL     1     -32.492  27.381   2.548  0.00  0.00    +0.319 C 
ATOM      9  C   UNL     1     -33.449  25.202   2.401  0.00  0.00    +0.198 C 
ATOM     10  C   UNL     1     -34.401  24.665   3.495  0.00  0.00    +0.212 C 
ATOM     11  C   UNL     1     -32.624  27.123   7.034  0.00  0.00    +0.050 C 
ATOM     12  C   UNL     1     -34.399  25.504   4.774  0.00  0.00    +0.339 C 
ATOM     13  C   UNL     1     -33.690  24.615   1.017  0.00  0.00    +0.050 C 
ENDROOT
BRANCH  10  15
ATOM     14  O   UNL     1     -36.412  22.699   4.094  0.00  0.00    -0.270 OA
ATOM     15  N   UNL     1     -35.775  24.673   3.055  0.00  0.00    -0.290 N 
ATOM     16  C   UNL     1     -36.680  23.673   3.396  0.00  0.00    +0.249 C 
ATOM     17  H   UNL     1     -36.086  25.417   2.488  0.00  0.00    +0.150 HD
BRANCH  16  18
ATOM     18  C   UNL     1     -38.051  23.813   2.841  0.00  0.00    +0.088 C 
ATOM     19  C   UNL     1     -38.797  24.939   3.121  0.00  0.00    +0.151 C 
ATOM     20  C   UNL     1     -38.535  22.790   2.049  0.00  0.00    +0.008 C 
ATOM     21  C   UNL     1     -40.082  25.049   2.589  0.00  0.00    +0.085 C 
ATOM     22  C   UNL     1     -39.820  22.900   1.516  0.00  0.00    +0.002 C 
ATOM     23  C   UNL     1     -40.593  24.029   1.786  0.00  0.00    +0.018 C 
BRANCH  21  25
ATOM     24  O   UNL     1     -40.721  27.470   0.876  0.00  0.00    -0.265 OA
ATOM     25  N   UNL     1     -40.869  26.173   2.849  0.00  0.00    -0.274 N 
ATOM     26  C   UNL     1     -41.120  27.254   2.011  0.00  0.00    +0.304 C 
ATOM     27  H   UNL     1     -41.298  26.204   3.735  0.00  0.00    +0.155 HD
ENDBRANCH  21  25
BRANCH  19  28
ATOM     28  O   UNL     1     -38.296  25.937   3.908  0.00  0.00    -0.504 OA
ATOM     29  H   UNL     1     -38.687  26.118   4.740  0.00  0.00    +0.292 HD
ENDBRANCH  19  28
ENDBRANCH  16  18
ENDBRANCH  10  15
BRANCH   6  30
ATOM     30  O   UNL     1     -32.429  29.680   5.508  0.00  0.00    -0.380 OA
ATOM     31  H   UNL     1     -33.263  29.744   5.999  0.00  0.00    +0.211 HD
ENDBRANCH   6  30
BRANCH   5  32
ATOM     32  C   UNL     1     -32.211  29.831   2.702  0.00  0.00    +0.014 C 
BRANCH  32  33
ATOM     33  C   UNL     1     -33.278  30.750   2.119  0.00  0.00    +0.001 C 
BRANCH  33  34
ATOM     34  C   UNL     1     -34.452  30.908   3.086  0.00  0.00    +0.000 C 
ATOM     35  C   UNL     1     -35.787  30.802   2.365  0.00  0.00    +0.000 C 
ENDBRANCH  33  34
ENDBRANCH  32  33
ENDBRANCH   5  32
TORSDOF 8
ENDMDL
