MODEL 1
REMARK VINA RESULT:      -5.1      0.000      0.000
REMARK  Name = 56841650
REMARK  8 active torsions:
REMARK  status: ('A' for Active; 'I' for Inactive)
REMARK    1  A    between atoms: N_1  and  C_12
REMARK    2  A    between atoms: C_8  and  S_10
REMARK    3  A    between atoms: C_12  and  C_14
REMARK    4  A    between atoms: C_12  and  O_15
REMARK    5  A    between atoms: O_15  and  C_16
REMARK    6  A    between atoms: C_16  and  C_18
REMARK    7  A    between atoms: C_16  and  C_19
REMARK    8  A    between atoms: C_19  and  O_20
REMARK                            x       y       z     vdW  Elec       q    Type
REMARK                         _______ _______ _______ _____ _____    ______ ____
ROOT
ATOM      1  N   UNL     1     -36.254  22.978   3.826  0.00  0.00    -0.243 N 
ATOM      2  N   UNL     1     -36.647  21.690   2.049  0.00  0.00    -0.243 NA
ATOM      3  N   UNL     1     -38.191  24.439   3.719  0.00  0.00    -0.228 NA
ATOM      4  N   UNL     1     -39.621  23.878   1.822  0.00  0.00    -0.236 NA
ATOM      5  C   UNL     1     -37.423  23.429   3.283  0.00  0.00    +0.152 C 
ATOM      6  C   UNL     1     -37.650  22.618   2.183  0.00  0.00    +0.132 C 
ATOM      7  C   UNL     1     -35.826  21.934   3.049  0.00  0.00    +0.223 C 
ATOM      8  C   UNL     1     -38.799  22.871   1.440  0.00  0.00    +0.124 C 
ATOM      9  C   UNL     1     -39.272  24.589   2.921  0.00  0.00    +0.252 C 
ENDROOT
BRANCH   8  10
ATOM     10  S   UNL     1     -39.179  21.899   0.023  0.00  0.00    -0.093 S 
ATOM     11  C   UNL     1     -40.882  22.413  -0.358  0.00  0.00    +0.076 C 
ENDBRANCH   8  10
BRANCH   1  12
ATOM     12  C   UNL     1     -35.584  23.495   4.994  0.00  0.00    +0.262 C 
BRANCH  12  14
ATOM     13  O   UNL     1     -35.941  21.820   6.717  0.00  0.00    -0.284 OA
ATOM     14  C   UNL     1     -35.183  22.366   5.920  0.00  0.00    +0.258 C 
ENDBRANCH  12  14
BRANCH  12  15
ATOM     15  O   UNL     1     -34.401  24.204   4.638  0.00  0.00    -0.323 OA
BRANCH  15  16
ATOM     16  C   UNL     1     -34.430  25.568   5.039  0.00  0.00    +0.211 C 
BRANCH  16  18
ATOM     17  O   UNL     1     -34.285  27.660   3.818  0.00  0.00    -0.286 OA
ATOM     18  C   UNL     1     -34.464  26.447   3.805  0.00  0.00    +0.239 C 
ENDBRANCH  16  18
BRANCH  16  19
ATOM     19  C   UNL     1     -35.670  25.804   5.889  0.00  0.00    +0.175 C 
BRANCH  19  20
ATOM     20  O   UNL     1     -36.560  26.675   5.205  0.00  0.00    -0.379 OA
ATOM     21  H   UNL     1     -37.048  27.210   5.851  0.00  0.00    +0.211 HD
ENDBRANCH  19  20
ENDBRANCH  16  19
ENDBRANCH  15  16
ENDBRANCH  12  15
ENDBRANCH   1  12
TORSDOF 8
ENDMDL
MODEL 2
REMARK VINA RESULT:      -5.0      4.068      6.828
REMARK  Name = 56841650
REMARK  8 active torsions:
REMARK  status: ('A' for Active; 'I' for Inactive)
REMARK    1  A    between atoms: N_1  and  C_12
REMARK    2  A    between atoms: C_8  and  S_10
REMARK    3  A    between atoms: C_12  and  C_14
REMARK    4  A    between atoms: C_12  and  O_15
REMARK    5  A    between atoms: O_15  and  C_16
REMARK    6  A    between atoms: C_16  and  C_18
REMARK    7  A    between atoms: C_16  and  C_19
REMARK    8  A    between atoms: C_19  and  O_20
REMARK                            x       y       z     vdW  Elec       q    Type
REMARK                         _______ _______ _______ _____ _____    ______ ____
ROOT
ATOM      1  N   UNL     1     -34.702  25.825   3.951  0.00  0.00    -0.243 N 
ATOM      2  N   UNL     1     -33.662  27.454   2.841  0.00  0.00    -0.243 NA
ATOM      3  N   UNL     1     -33.796  26.191   6.175  0.00  0.00    -0.228 NA
ATOM      4  N   UNL     1     -32.240  28.072   6.199  0.00  0.00    -0.236 NA
ATOM      5  C   UNL     1     -33.922  26.470   4.868  0.00  0.00    +0.152 C 
ATOM      6  C   UNL     1     -33.285  27.476   4.160  0.00  0.00    +0.132 C 
ATOM      7  C   UNL     1     -34.511  26.453   2.749  0.00  0.00    +0.223 C 
ATOM      8  C   UNL     1     -32.417  28.296   4.874  0.00  0.00    +0.124 C 
ATOM      9  C   UNL     1     -32.931  27.049   6.759  0.00  0.00    +0.252 C 
ENDROOT
BRANCH   8  10
ATOM     10  S   UNL     1     -31.558  29.603   4.070  0.00  0.00    -0.093 S 
ATOM     11  C   UNL     1     -31.212  30.747   5.442  0.00  0.00    +0.076 C 
ENDBRANCH   8  10
BRANCH   1  12
ATOM     12  C   UNL     1     -35.567  24.695   4.190  0.00  0.00    +0.262 C 
BRANCH  12  14
ATOM     13  O   UNL     1     -37.995  24.726   4.122  0.00  0.00    -0.284 OA
ATOM     14  C   UNL     1     -36.923  24.921   3.556  0.00  0.00    +0.258 C 
ENDBRANCH  12  14
BRANCH  12  15
ATOM     15  O   UNL     1     -35.021  23.503   3.632  0.00  0.00    -0.323 OA
BRANCH  15  16
ATOM     16  C   UNL     1     -35.732  22.334   4.021  0.00  0.00    +0.211 C 
BRANCH  16  18
ATOM     17  O   UNL     1     -36.062  20.240   2.840  0.00  0.00    -0.286 OA
ATOM     18  C   UNL     1     -35.332  21.187   3.116  0.00  0.00    +0.239 C 
ENDBRANCH  16  18
BRANCH  16  19
ATOM     19  C   UNL     1     -35.389  22.009   5.467  0.00  0.00    +0.175 C 
BRANCH  19  20
ATOM     20  O   UNL     1     -35.214  20.607   5.615  0.00  0.00    -0.379 OA
ATOM     21  H   UNL     1     -35.099  20.393   6.554  0.00  0.00    +0.211 HD
ENDBRANCH  19  20
ENDBRANCH  16  19
ENDBRANCH  15  16
ENDBRANCH  12  15
ENDBRANCH   1  12
TORSDOF 8
ENDMDL
MODEL 3
REMARK VINA RESULT:      -4.9      2.608      4.278
REMARK  Name = 56841650
REMARK  8 active torsions:
REMARK  status: ('A' for Active; 'I' for Inactive)
REMARK    1  A    between atoms: N_1  and  C_12
REMARK    2  A    between atoms: C_8  and  S_10
REMARK    3  A    between atoms: C_12  and  C_14
REMARK    4  A    between atoms: C_12  and  O_15
REMARK    5  A    between atoms: O_15  and  C_16
REMARK    6  A    between atoms: C_16  and  C_18
REMARK    7  A    between atoms: C_16  and  C_19
REMARK    8  A    between atoms: C_19  and  O_20
REMARK                            x       y       z     vdW  Elec       q    Type
REMARK                         _______ _______ _______ _____ _____    ______ ____
ROOT
ATOM      1  N   UNL     1     -37.119  22.219   2.256  0.00  0.00    -0.243 N 
ATOM      2  N   UNL     1     -38.366  20.913   0.948  0.00  0.00    -0.243 NA
ATOM      3  N   UNL     1     -35.013  21.012   2.165  0.00  0.00    -0.228 NA
ATOM      4  N   UNL     1     -35.192  19.022   0.764  0.00  0.00    -0.236 NA
ATOM      5  C   UNL     1     -36.304  21.201   1.850  0.00  0.00    +0.152 C 
ATOM      6  C   UNL     1     -37.095  20.402   1.040  0.00  0.00    +0.132 C 
ATOM      7  C   UNL     1     -38.347  22.001   1.689  0.00  0.00    +0.223 C 
ATOM      8  C   UNL     1     -36.494  19.276   0.487  0.00  0.00    +0.124 C 
ATOM      9  C   UNL     1     -34.542  19.892   1.573  0.00  0.00    +0.252 C 
ENDROOT
BRANCH   8  10
ATOM     10  S   UNL     1     -37.411  18.195  -0.555  0.00  0.00    -0.093 S 
ATOM     11  C   UNL     1     -36.099  17.266  -1.407  0.00  0.00    +0.076 C 
ENDBRANCH   8  10
BRANCH   1  12
ATOM     12  C   UNL     1     -36.767  23.320   3.119  0.00  0.00    +0.262 C 
BRANCH  12  14
ATOM     13  O   UNL     1     -38.654  24.659   3.860  0.00  0.00    -0.284 OA
ATOM     14  C   UNL     1     -37.795  24.427   3.014  0.00  0.00    +0.258 C 
ENDBRANCH  12  14
BRANCH  12  15
ATOM     15  O   UNL     1     -36.712  22.908   4.482  0.00  0.00    -0.323 OA
BRANCH  15  16
ATOM     16  C   UNL     1     -35.414  23.038   5.048  0.00  0.00    +0.211 C 
BRANCH  16  18
ATOM     17  O   UNL     1     -34.487  25.248   5.430  0.00  0.00    -0.286 OA
ATOM     18  C   UNL     1     -35.304  24.385   5.733  0.00  0.00    +0.239 C 
ENDBRANCH  16  18
BRANCH  16  19
ATOM     19  C   UNL     1     -35.202  21.916   6.053  0.00  0.00    +0.175 C 
BRANCH  19  20
ATOM     20  O   UNL     1     -35.204  20.664   5.381  0.00  0.00    -0.379 OA
ATOM     21  H   UNL     1     -34.843  20.776   4.487  0.00  0.00    +0.211 HD
ENDBRANCH  19  20
ENDBRANCH  16  19
ENDBRANCH  15  16
ENDBRANCH  12  15
ENDBRANCH   1  12
TORSDOF 8
ENDMDL
MODEL 4
REMARK VINA RESULT:      -4.9      3.436      5.966
REMARK  Name = 56841650
REMARK  8 active torsions:
REMARK  status: ('A' for Active; 'I' for Inactive)
REMARK    1  A    between atoms: N_1  and  C_12
REMARK    2  A    between atoms: C_8  and  S_10
REMARK    3  A    between atoms: C_12  and  C_14
REMARK    4  A    between atoms: C_12  and  O_15
REMARK    5  A    between atoms: O_15  and  C_16
REMARK    6  A    between atoms: C_16  and  C_18
REMARK    7  A    between atoms: C_16  and  C_19
REMARK    8  A    between atoms: C_19  and  O_20
REMARK                            x       y       z     vdW  Elec       q    Type
REMARK                         _______ _______ _______ _____ _____    ______ ____
ROOT
ATOM      1  N   UNL     1     -35.821  24.817   3.063  0.00  0.00    -0.243 N 
ATOM      2  N   UNL     1     -34.663  26.381   1.975  0.00  0.00    -0.243 NA
ATOM      3  N   UNL     1     -35.009  25.191   5.321  0.00  0.00    -0.228 NA
ATOM      4  N   UNL     1     -33.381  27.008   5.388  0.00  0.00    -0.236 NA
ATOM      5  C   UNL     1     -35.060  25.448   4.005  0.00  0.00    +0.152 C 
ATOM      6  C   UNL     1     -34.350  26.415   3.312  0.00  0.00    +0.132 C 
ATOM      7  C   UNL     1     -35.547  25.413   1.860  0.00  0.00    +0.223 C 
ATOM      8  C   UNL     1     -33.484  27.213   4.052  0.00  0.00    +0.124 C 
ATOM      9  C   UNL     1     -34.138  26.025   5.931  0.00  0.00    +0.252 C 
ENDROOT
BRANCH   8  10
ATOM     10  S   UNL     1     -32.535  28.469   3.267  0.00  0.00    -0.093 S 
ATOM     11  C   UNL     1     -33.753  29.804   3.055  0.00  0.00    +0.076 C 
ENDBRANCH   8  10
BRANCH   1  12
ATOM     12  C   UNL     1     -36.741  23.727   3.279  0.00  0.00    +0.262 C 
BRANCH  12  14
ATOM     13  O   UNL     1     -38.923  24.654   3.810  0.00  0.00    -0.284 OA
ATOM     14  C   UNL     1     -38.161  24.164   2.982  0.00  0.00    +0.258 C 
ENDBRANCH  12  14
BRANCH  12  15
ATOM     15  O   UNL     1     -36.441  22.624   2.430  0.00  0.00    -0.323 OA
BRANCH  15  16
ATOM     16  C   UNL     1     -35.383  21.813   2.927  0.00  0.00    +0.211 C 
BRANCH  16  18
ATOM     17  O   UNL     1     -35.120  20.759   5.097  0.00  0.00    -0.286 OA
ATOM     18  C   UNL     1     -35.496  21.720   4.435  0.00  0.00    +0.239 C 
ENDBRANCH  16  18
BRANCH  16  19
ATOM     19  C   UNL     1     -35.490  20.430   2.304  0.00  0.00    +0.175 C 
BRANCH  19  20
ATOM     20  O   UNL     1     -36.707  19.817   2.704  0.00  0.00    -0.379 OA
ATOM     21  H   UNL     1     -37.034  20.244   3.512  0.00  0.00    +0.211 HD
ENDBRANCH  19  20
ENDBRANCH  16  19
ENDBRANCH  15  16
ENDBRANCH  12  15
ENDBRANCH   1  12
TORSDOF 8
ENDMDL
MODEL 5
REMARK VINA RESULT:      -4.9      3.740      5.969
REMARK  Name = 56841650
REMARK  8 active torsions:
REMARK  status: ('A' for Active; 'I' for Inactive)
REMARK    1  A    between atoms: N_1  and  C_12
REMARK    2  A    between atoms: C_8  and  S_10
REMARK    3  A    between atoms: C_12  and  C_14
REMARK    4  A    between atoms: C_12  and  O_15
REMARK    5  A    between atoms: O_15  and  C_16
REMARK    6  A    between atoms: C_16  and  C_18
REMARK    7  A    between atoms: C_16  and  C_19
REMARK    8  A    between atoms: C_19  and  O_20
REMARK                            x       y       z     vdW  Elec       q    Type
REMARK                         _______ _______ _______ _____ _____    ______ ____
ROOT
ATOM      1  N   UNL     1     -34.673  24.983   4.717  0.00  0.00    -0.243 N 
ATOM      2  N   UNL     1     -33.849  26.837   5.642  0.00  0.00    -0.243 NA
ATOM      3  N   UNL     1     -33.723  25.170   2.490  0.00  0.00    -0.228 NA
ATOM      4  N   UNL     1     -32.368  27.189   2.271  0.00  0.00    -0.236 NA
ATOM      5  C   UNL     1     -33.927  25.591   3.748  0.00  0.00    +0.152 C 
ATOM      6  C   UNL     1     -33.425  26.738   4.340  0.00  0.00    +0.132 C 
ATOM      7  C   UNL     1     -34.595  25.770   5.836  0.00  0.00    +0.223 C 
ATOM      8  C   UNL     1     -32.617  27.552   3.553  0.00  0.00    +0.124 C 
ATOM      9  C   UNL     1     -32.928  26.038   1.826  0.00  0.00    +0.252 C 
ENDROOT
BRANCH   8  10
ATOM     10  S   UNL     1     -31.929  29.032   4.209  0.00  0.00    -0.093 S 
ATOM     11  C   UNL     1     -33.018  30.312   3.511  0.00  0.00    +0.076 C 
ENDBRANCH   8  10
BRANCH   1  12
ATOM     12  C   UNL     1     -35.408  23.748   4.599  0.00  0.00    +0.262 C 
BRANCH  12  14
ATOM     13  O   UNL     1     -36.075  22.174   6.325  0.00  0.00    -0.284 OA
ATOM     14  C   UNL     1     -35.209  22.891   5.831  0.00  0.00    +0.258 C 
ENDBRANCH  12  14
BRANCH  12  15
ATOM     15  O   UNL     1     -36.805  23.992   4.463  0.00  0.00    -0.323 OA
BRANCH  15  16
ATOM     16  C   UNL     1     -37.216  24.122   3.107  0.00  0.00    +0.211 C 
BRANCH  16  18
ATOM     17  O   UNL     1     -38.883  22.473   2.481  0.00  0.00    -0.286 OA
ATOM     18  C   UNL     1     -37.701  22.778   2.605  0.00  0.00    +0.239 C 
ENDBRANCH  16  18
BRANCH  16  19
ATOM     19  C   UNL     1     -38.335  25.149   3.029  0.00  0.00    +0.175 C 
BRANCH  19  20
ATOM     20  O   UNL     1     -39.309  24.873   4.025  0.00  0.00    -0.379 OA
ATOM     21  H   UNL     1     -38.979  25.163   4.890  0.00  0.00    +0.211 HD
ENDBRANCH  19  20
ENDBRANCH  16  19
ENDBRANCH  15  16
ENDBRANCH  12  15
ENDBRANCH   1  12
TORSDOF 8
ENDMDL
MODEL 6
REMARK VINA RESULT:      -4.7      3.527      5.892
REMARK  Name = 56841650
REMARK  8 active torsions:
REMARK  status: ('A' for Active; 'I' for Inactive)
REMARK    1  A    between atoms: N_1  and  C_12
REMARK    2  A    between atoms: C_8  and  S_10
REMARK    3  A    between atoms: C_12  and  C_14
REMARK    4  A    between atoms: C_12  and  O_15
REMARK    5  A    between atoms: O_15  and  C_16
REMARK    6  A    between atoms: C_16  and  C_18
REMARK    7  A    between atoms: C_16  and  C_19
REMARK    8  A    between atoms: C_19  and  O_20
REMARK                            x       y       z     vdW  Elec       q    Type
REMARK                         _______ _______ _______ _____ _____    ______ ____
ROOT
ATOM      1  N   UNL     1     -34.714  24.623   4.639  0.00  0.00    -0.243 N 
ATOM      2  N   UNL     1     -34.084  26.602   5.448  0.00  0.00    -0.243 NA
ATOM      3  N   UNL     1     -33.914  24.832   2.355  0.00  0.00    -0.228 NA
ATOM      4  N   UNL     1     -32.840  26.992   1.986  0.00  0.00    -0.236 NA
ATOM      5  C   UNL     1     -34.104  25.276   3.607  0.00  0.00    +0.152 C 
ATOM      6  C   UNL     1     -33.720  26.502   4.128  0.00  0.00    +0.132 C 
ATOM      7  C   UNL     1     -34.677  25.460   5.722  0.00  0.00    +0.223 C 
ATOM      8  C   UNL     1     -33.065  27.375   3.266  0.00  0.00    +0.124 C 
ATOM      9  C   UNL     1     -33.272  25.763   1.616  0.00  0.00    +0.252 C 
ENDROOT
BRANCH   8  10
ATOM     10  S   UNL     1     -32.537  28.956   3.829  0.00  0.00    -0.093 S 
ATOM     11  C   UNL     1     -30.918  28.587   4.572  0.00  0.00    +0.076 C 
ENDBRANCH   8  10
BRANCH   1  12
ATOM     12  C   UNL     1     -35.292  23.301   4.607  0.00  0.00    +0.262 C 
BRANCH  12  14
ATOM     13  O   UNL     1     -36.021  22.025   6.542  0.00  0.00    -0.284 OA
ATOM     14  C   UNL     1     -35.124  22.616   5.947  0.00  0.00    +0.258 C 
ENDBRANCH  12  14
BRANCH  12  15
ATOM     15  O   UNL     1     -36.686  23.357   4.321  0.00  0.00    -0.323 OA
BRANCH  15  16
ATOM     16  C   UNL     1     -37.035  22.666   3.127  0.00  0.00    +0.211 C 
BRANCH  16  18
ATOM     17  O   UNL     1     -37.389  24.885   2.210  0.00  0.00    -0.286 OA
ATOM     18  C   UNL     1     -37.289  23.676   2.027  0.00  0.00    +0.239 C 
ENDBRANCH  16  18
BRANCH  16  19
ATOM     19  C   UNL     1     -35.889  21.743   2.742  0.00  0.00    +0.175 C 
BRANCH  19  20
ATOM     20  O   UNL     1     -36.242  20.397   3.026  0.00  0.00    -0.379 OA
ATOM     21  H   UNL     1     -37.144  20.226   2.713  0.00  0.00    +0.211 HD
ENDBRANCH  19  20
ENDBRANCH  16  19
ENDBRANCH  15  16
ENDBRANCH  12  15
ENDBRANCH   1  12
TORSDOF 8
ENDMDL
MODEL 7
REMARK VINA RESULT:      -4.7      4.062      6.334
REMARK  Name = 56841650
REMARK  8 active torsions:
REMARK  status: ('A' for Active; 'I' for Inactive)
REMARK    1  A    between atoms: N_1  and  C_12
REMARK    2  A    between atoms: C_8  and  S_10
REMARK    3  A    between atoms: C_12  and  C_14
REMARK    4  A    between atoms: C_12  and  O_15
REMARK    5  A    between atoms: O_15  and  C_16
REMARK    6  A    between atoms: C_16  and  C_18
REMARK    7  A    between atoms: C_16  and  C_19
REMARK    8  A    between atoms: C_19  and  O_20
REMARK                            x       y       z     vdW  Elec       q    Type
REMARK                         _______ _______ _______ _____ _____    ______ ____
ROOT
ATOM      1  N   UNL     1     -35.613  21.398   2.524  0.00  0.00    -0.243 N 
ATOM      2  N   UNL     1     -36.001  23.593   2.528  0.00  0.00    -0.243 NA
ATOM      3  N   UNL     1     -35.286  21.028   4.903  0.00  0.00    -0.228 NA
ATOM      4  N   UNL     1     -35.513  23.107   6.162  0.00  0.00    -0.236 NA
ATOM      5  C   UNL     1     -35.539  21.793   3.830  0.00  0.00    +0.152 C 
ATOM      6  C   UNL     1     -35.782  23.157   3.811  0.00  0.00    +0.132 C 
ATOM      7  C   UNL     1     -35.892  22.515   1.782  0.00  0.00    +0.223 C 
ATOM      8  C   UNL     1     -35.764  23.817   5.036  0.00  0.00    +0.124 C 
ATOM      9  C   UNL     1     -35.294  21.777   6.028  0.00  0.00    +0.252 C 
ENDROOT
BRANCH   8  10
ATOM     10  S   UNL     1     -36.059  25.549   5.122  0.00  0.00    -0.093 S 
ATOM     11  C   UNL     1     -34.436  26.245   4.688  0.00  0.00    +0.076 C 
ENDBRANCH   8  10
BRANCH   1  12
ATOM     12  C   UNL     1     -35.433  20.062   2.012  0.00  0.00    +0.262 C 
BRANCH  12  14
ATOM     13  O   UNL     1     -37.058  19.396   0.332  0.00  0.00    -0.284 OA
ATOM     14  C   UNL     1     -35.998  19.949   0.611  0.00  0.00    +0.258 C 
ENDBRANCH  12  14
BRANCH  12  15
ATOM     15  O   UNL     1     -34.053  19.715   1.951  0.00  0.00    -0.323 OA
BRANCH  15  16
ATOM     16  C   UNL     1     -33.649  19.269   0.662  0.00  0.00    +0.211 C 
BRANCH  16  18
ATOM     17  O   UNL     1     -31.364  19.964   0.236  0.00  0.00    -0.286 OA
ATOM     18  C   UNL     1     -32.566  20.187   0.136  0.00  0.00    +0.239 C 
ENDBRANCH  16  18
BRANCH  16  19
ATOM     19  C   UNL     1     -33.124  17.846   0.778  0.00  0.00    +0.175 C 
BRANCH  19  20
ATOM     20  O   UNL     1     -32.094  17.794   1.755  0.00  0.00    -0.379 OA
ATOM     21  H   UNL     1     -31.231  17.763   1.313  0.00  0.00    +0.211 HD
ENDBRANCH  19  20
ENDBRANCH  16  19
ENDBRANCH  15  16
ENDBRANCH  12  15
ENDBRANCH   1  12
TORSDOF 8
ENDMDL
MODEL 8
REMARK VINA RESULT:      -4.7      3.459      5.481
REMARK  Name = 56841650
REMARK  8 active torsions:
REMARK  status: ('A' for Active; 'I' for Inactive)
REMARK    1  A    between atoms: N_1  and  C_12
REMARK    2  A    between atoms: C_8  and  S_10
REMARK    3  A    between atoms: C_12  and  C_14
REMARK    4  A    between atoms: C_12  and  O_15
REMARK    5  A    between atoms: O_15  and  C_16
REMARK    6  A    between atoms: C_16  and  C_18
REMARK    7  A    between atoms: C_16  and  C_19
REMARK    8  A    between atoms: C_19  and  O_20
REMARK                            x       y       z     vdW  Elec       q    Type
REMARK                         _______ _______ _______ _____ _____    ______ ____
ROOT
ATOM      1  N   UNL     1     -35.298  23.771   2.849  0.00  0.00    -0.243 N 
ATOM      2  N   UNL     1     -33.840  25.279   2.096  0.00  0.00    -0.243 NA
ATOM      3  N   UNL     1     -35.628  24.601   5.108  0.00  0.00    -0.228 NA
ATOM      4  N   UNL     1     -34.291  26.601   5.521  0.00  0.00    -0.236 NA
ATOM      5  C   UNL     1     -35.082  24.637   3.882  0.00  0.00    +0.152 C 
ATOM      6  C   UNL     1     -34.175  25.564   3.396  0.00  0.00    +0.132 C 
ATOM      7  C   UNL     1     -34.530  24.198   1.799  0.00  0.00    +0.223 C 
ATOM      8  C   UNL     1     -33.780  26.575   4.266  0.00  0.00    +0.124 C 
ATOM      9  C   UNL     1     -35.171  25.627   5.859  0.00  0.00    +0.252 C 
ENDROOT
BRANCH   8  10
ATOM     10  S   UNL     1     -32.631  27.803   3.747  0.00  0.00    -0.093 S 
ATOM     11  C   UNL     1     -33.695  28.986   2.865  0.00  0.00    +0.076 C 
ENDBRANCH   8  10
BRANCH   1  12
ATOM     12  C   UNL     1     -36.168  22.620   2.850  0.00  0.00    +0.262 C 
BRANCH  12  14
ATOM     13  O   UNL     1     -35.247  20.399   3.199  0.00  0.00    -0.284 OA
ATOM     14  C   UNL     1     -35.558  21.494   3.659  0.00  0.00    +0.258 C 
ENDBRANCH  12  14
BRANCH  12  15
ATOM     15  O   UNL     1     -37.433  22.931   3.427  0.00  0.00    -0.323 OA
BRANCH  15  16
ATOM     16  C   UNL     1     -38.394  23.347   2.463  0.00  0.00    +0.211 C 
BRANCH  16  18
ATOM     17  O   UNL     1     -40.296  22.262   1.419  0.00  0.00    -0.286 OA
ATOM     18  C   UNL     1     -39.308  22.183   2.142  0.00  0.00    +0.239 C 
ENDBRANCH  16  18
BRANCH  16  19
ATOM     19  C   UNL     1     -39.195  24.505   3.038  0.00  0.00    +0.175 C 
BRANCH  19  20
ATOM     20  O   UNL     1     -38.512  25.052   4.157  0.00  0.00    -0.379 OA
ATOM     21  H   UNL     1     -38.996  25.828   4.483  0.00  0.00    +0.211 HD
ENDBRANCH  19  20
ENDBRANCH  16  19
ENDBRANCH  15  16
ENDBRANCH  12  15
ENDBRANCH   1  12
TORSDOF 8
ENDMDL
MODEL 9
REMARK VINA RESULT:      -4.6      3.816      5.980
REMARK  Name = 56841650
REMARK  8 active torsions:
REMARK  status: ('A' for Active; 'I' for Inactive)
REMARK    1  A    between atoms: N_1  and  C_12
REMARK    2  A    between atoms: C_8  and  S_10
REMARK    3  A    between atoms: C_12  and  C_14
REMARK    4  A    between atoms: C_12  and  O_15
REMARK    5  A    between atoms: O_15  and  C_16
REMARK    6  A    between atoms: C_16  and  C_18
REMARK    7  A    between atoms: C_16  and  C_19
REMARK    8  A    between atoms: C_19  and  O_20
REMARK                            x       y       z     vdW  Elec       q    Type
REMARK                         _______ _______ _______ _____ _____    ______ ____
ROOT
ATOM      1  N   UNL     1     -34.663  25.288   4.785  0.00  0.00    -0.243 N 
ATOM      2  N   UNL     1     -33.558  26.950   5.778  0.00  0.00    -0.243 NA
ATOM      3  N   UNL     1     -33.986  25.655   2.482  0.00  0.00    -0.228 NA
ATOM      4  N   UNL     1     -32.485  27.570   2.293  0.00  0.00    -0.236 NA
ATOM      5  C   UNL     1     -33.991  25.942   3.792  0.00  0.00    +0.152 C 
ATOM      6  C   UNL     1     -33.312  26.969   4.428  0.00  0.00    +0.132 C 
ATOM      7  C   UNL     1     -34.371  25.932   5.959  0.00  0.00    +0.223 C 
ATOM      8  C   UNL     1     -32.535  27.801   3.628  0.00  0.00    +0.124 C 
ATOM      9  C   UNL     1     -33.202  26.527   1.810  0.00  0.00    +0.252 C 
ENDROOT
BRANCH   8  10
ATOM     10  S   UNL     1     -31.634  29.136   4.336  0.00  0.00    -0.093 S 
ATOM     11  C   UNL     1     -32.579  30.586   3.778  0.00  0.00    +0.076 C 
ENDBRANCH   8  10
BRANCH   1  12
ATOM     12  C   UNL     1     -35.521  24.138   4.639  0.00  0.00    +0.262 C 
BRANCH  12  14
ATOM     13  O   UNL     1     -36.030  22.343   6.196  0.00  0.00    -0.284 OA
ATOM     14  C   UNL     1     -35.203  23.100   5.696  0.00  0.00    +0.258 C 
ENDBRANCH  12  14
BRANCH  12  15
ATOM     15  O   UNL     1     -36.892  24.497   4.784  0.00  0.00    -0.323 OA
BRANCH  15  16
ATOM     16  C   UNL     1     -37.590  24.529   3.545  0.00  0.00    +0.211 C 
BRANCH  16  18
ATOM     17  O   UNL     1     -38.593  26.454   2.460  0.00  0.00    -0.286 OA
ATOM     18  C   UNL     1     -37.632  25.956   3.037  0.00  0.00    +0.239 C 
ENDBRANCH  16  18
BRANCH  16  19
ATOM     19  C   UNL     1     -36.866  23.636   2.550  0.00  0.00    +0.175 C 
BRANCH  19  20
ATOM     20  O   UNL     1     -36.573  24.371   1.371  0.00  0.00    -0.379 OA
ATOM     21  H   UNL     1     -36.503  25.315   1.587  0.00  0.00    +0.211 HD
ENDBRANCH  19  20
ENDBRANCH  16  19
ENDBRANCH  15  16
ENDBRANCH  12  15
ENDBRANCH   1  12
TORSDOF 8
ENDMDL
