MODEL 1
REMARK VINA RESULT:      -5.8      0.000      0.000
REMARK  Name = 194795
REMARK  12 active torsions:
REMARK  status: ('A' for Active; 'I' for Inactive)
REMARK    1  A    between atoms: C_1  and  O_2
REMARK    2  A    between atoms: C_1  and  C_4
REMARK    3  A    between atoms: C_1  and  C_13
REMARK    4  A    between atoms: C_4  and  O_5
REMARK    5  A    between atoms: C_4  and  C_7
REMARK    6  A    between atoms: C_7  and  O_8
REMARK    7  A    between atoms: C_7  and  C_10
REMARK    8  A    between atoms: C_10  and  O_11
REMARK    9  A    between atoms: C_13  and  C_15
REMARK   10  A    between atoms: C_13  and  O_16
REMARK   11  A    between atoms: O_16  and  C_17
REMARK   12  A    between atoms: C_17  and  C_19
REMARK                            x       y       z     vdW  Elec       q    Type
REMARK                         _______ _______ _______ _____ _____    ______ ____
ROOT
ATOM      1  C   UNL     1     -36.474  24.644   4.140  0.00  0.00    +0.174 C 
ENDROOT
BRANCH   1   2
ATOM      2  O   UNL     1     -37.873  24.817   4.391  0.00  0.00    -0.379 OA
ATOM      3  H   UNL     1     -38.262  23.969   4.657  0.00  0.00    +0.211 HD
ENDBRANCH   1   2
BRANCH   1   4
ATOM      4  C   UNL     1     -35.715  25.487   5.179  0.00  0.00    +0.169 C 
BRANCH   4   5
ATOM      5  O   UNL     1     -36.520  26.600   5.585  0.00  0.00    -0.379 OA
ATOM      6  H   UNL     1     -37.280  26.685   4.989  0.00  0.00    +0.211 HD
ENDBRANCH   4   5
BRANCH   4   7
ATOM      7  C   UNL     1     -34.363  26.048   4.716  0.00  0.00    +0.169 C 
BRANCH   7   8
ATOM      8  O   UNL     1     -33.863  26.905   5.753  0.00  0.00    -0.379 OA
ATOM      9  H   UNL     1     -32.999  26.579   6.052  0.00  0.00    +0.211 HD
ENDBRANCH   7   8
BRANCH   7  10
ATOM     10  C   UNL     1     -34.441  26.886   3.445  0.00  0.00    +0.169 C 
BRANCH  10  11
ATOM     11  O   UNL     1     -35.186  28.069   3.718  0.00  0.00    -0.379 OA
ATOM     12  H   UNL     1     -36.131  27.891   3.598  0.00  0.00    +0.211 HD
ENDBRANCH  10  11
ENDBRANCH   7  10
ENDBRANCH   4   7
ENDBRANCH   1   4
BRANCH   1  13
ATOM     13  C   UNL     1     -36.141  23.146   4.080  0.00  0.00    +0.209 C 
BRANCH  13  15
ATOM     14  O   UNL     1     -36.063  22.166   6.300  0.00  0.00    -0.286 OA
ATOM     15  C   UNL     1     -35.465  22.618   5.329  0.00  0.00    +0.239 C 
ENDBRANCH  13  15
BRANCH  13  16
ATOM     16  O   UNL     1     -35.253  22.937   2.987  0.00  0.00    -0.341 OA
BRANCH  16  17
ATOM     17  C   UNL     1     -35.789  22.012   2.053  0.00  0.00    +0.169 C 
BRANCH  17  19
ATOM     18  I   UNL     1     -31.066  18.456  -0.290  0.00  0.00    -0.043 I 
ATOM     19  C   UNL     1     -34.674  21.173   1.500  0.00  0.00    +0.007 C 
ATOM     20  C   UNL     1     -33.806  21.715   0.560  0.00  0.00    -0.001 C 
ATOM     21  C   UNL     1     -34.519  19.861   1.934  0.00  0.00    -0.001 C 
ATOM     22  C   UNL     1     -32.770  20.935   0.046  0.00  0.00    +0.006 C 
ATOM     23  C   UNL     1     -33.483  19.081   1.421  0.00  0.00    +0.006 C 
ATOM     24  C   UNL     1     -32.608  19.619   0.476  0.00  0.00    +0.030 C 
ENDBRANCH  17  19
ENDBRANCH  16  17
ENDBRANCH  13  16
ENDBRANCH   1  13
TORSDOF 12
ENDMDL
MODEL 2
REMARK VINA RESULT:      -5.7      1.238      2.110
REMARK  Name = 194795
REMARK  12 active torsions:
REMARK  status: ('A' for Active; 'I' for Inactive)
REMARK    1  A    between atoms: C_1  and  O_2
REMARK    2  A    between atoms: C_1  and  C_4
REMARK    3  A    between atoms: C_1  and  C_13
REMARK    4  A    between atoms: C_4  and  O_5
REMARK    5  A    between atoms: C_4  and  C_7
REMARK    6  A    between atoms: C_7  and  O_8
REMARK    7  A    between atoms: C_7  and  C_10
REMARK    8  A    between atoms: C_10  and  O_11
REMARK    9  A    between atoms: C_13  and  C_15
REMARK   10  A    between atoms: C_13  and  O_16
REMARK   11  A    between atoms: O_16  and  C_17
REMARK   12  A    between atoms: C_17  and  C_19
REMARK                            x       y       z     vdW  Elec       q    Type
REMARK                         _______ _______ _______ _____ _____    ______ ____
ROOT
ATOM      1  C   UNL     1     -36.908  24.634   3.523  0.00  0.00    +0.174 C 
ENDROOT
BRANCH   1   2
ATOM      2  O   UNL     1     -38.192  24.750   4.148  0.00  0.00    -0.379 OA
ATOM      3  H   UNL     1     -38.261  24.104   4.868  0.00  0.00    +0.211 HD
ENDBRANCH   1   2
BRANCH   1   4
ATOM      4  C   UNL     1     -35.882  24.356   4.635  0.00  0.00    +0.169 C 
BRANCH   4   5
ATOM      5  O   UNL     1     -36.271  23.195   5.379  0.00  0.00    -0.379 OA
ATOM      6  H   UNL     1     -35.543  22.925   5.960  0.00  0.00    +0.211 HD
ENDBRANCH   4   5
BRANCH   4   7
ATOM      7  C   UNL     1     -35.675  25.495   5.644  0.00  0.00    +0.169 C 
BRANCH   7   8
ATOM      8  O   UNL     1     -36.424  26.631   5.185  0.00  0.00    -0.379 OA
ATOM      9  H   UNL     1     -35.830  27.244   4.723  0.00  0.00    +0.211 HD
ENDBRANCH   7   8
BRANCH   7  10
ATOM     10  C   UNL     1     -34.226  25.945   5.785  0.00  0.00    +0.169 C 
BRANCH  10  11
ATOM     11  O   UNL     1     -33.508  25.558   4.617  0.00  0.00    -0.379 OA
ATOM     12  H   UNL     1     -32.578  25.403   4.845  0.00  0.00    +0.211 HD
ENDBRANCH  10  11
ENDBRANCH   7  10
ENDBRANCH   4   7
ENDBRANCH   1   4
BRANCH   1  13
ATOM     13  C   UNL     1     -36.983  23.619   2.374  0.00  0.00    +0.209 C 
BRANCH  13  15
ATOM     14  O   UNL     1     -39.303  22.919   2.235  0.00  0.00    -0.286 OA
ATOM     15  C   UNL     1     -38.135  22.643   2.491  0.00  0.00    +0.239 C 
ENDBRANCH  13  15
BRANCH  13  16
ATOM     16  O   UNL     1     -35.775  22.865   2.376  0.00  0.00    -0.341 OA
BRANCH  16  17
ATOM     17  C   UNL     1     -36.000  21.523   1.972  0.00  0.00    +0.169 C 
BRANCH  17  19
ATOM     18  I   UNL     1     -30.619  19.152  -0.450  0.00  0.00    -0.043 I 
ATOM     19  C   UNL     1     -34.730  20.963   1.401  0.00  0.00    +0.007 C 
ATOM     20  C   UNL     1     -33.970  21.734   0.528  0.00  0.00    -0.001 C 
ATOM     21  C   UNL     1     -34.324  19.681   1.750  0.00  0.00    -0.001 C 
ATOM     22  C   UNL     1     -32.790  21.214  -0.003  0.00  0.00    +0.006 C 
ATOM     23  C   UNL     1     -33.145  19.161   1.220  0.00  0.00    +0.006 C 
ATOM     24  C   UNL     1     -32.377  19.927   0.342  0.00  0.00    +0.030 C 
ENDBRANCH  17  19
ENDBRANCH  16  17
ENDBRANCH  13  16
ENDBRANCH   1  13
TORSDOF 12
ENDMDL
MODEL 3
REMARK VINA RESULT:      -5.7      4.211      6.192
REMARK  Name = 194795
REMARK  12 active torsions:
REMARK  status: ('A' for Active; 'I' for Inactive)
REMARK    1  A    between atoms: C_1  and  O_2
REMARK    2  A    between atoms: C_1  and  C_4
REMARK    3  A    between atoms: C_1  and  C_13
REMARK    4  A    between atoms: C_4  and  O_5
REMARK    5  A    between atoms: C_4  and  C_7
REMARK    6  A    between atoms: C_7  and  O_8
REMARK    7  A    between atoms: C_7  and  C_10
REMARK    8  A    between atoms: C_10  and  O_11
REMARK    9  A    between atoms: C_13  and  C_15
REMARK   10  A    between atoms: C_13  and  O_16
REMARK   11  A    between atoms: O_16  and  C_17
REMARK   12  A    between atoms: C_17  and  C_19
REMARK                            x       y       z     vdW  Elec       q    Type
REMARK                         _______ _______ _______ _____ _____    ______ ____
ROOT
ATOM      1  C   UNL     1     -36.345  23.427   3.460  0.00  0.00    +0.174 C 
ENDROOT
BRANCH   1   2
ATOM      2  O   UNL     1     -36.981  22.150   3.585  0.00  0.00    -0.379 OA
ATOM      3  H   UNL     1     -36.492  21.492   3.067  0.00  0.00    +0.211 HD
ENDBRANCH   1   2
BRANCH   1   4
ATOM      4  C   UNL     1     -37.437  24.499   3.616  0.00  0.00    +0.169 C 
BRANCH   4   5
ATOM      5  O   UNL     1     -38.731  23.903   3.471  0.00  0.00    -0.379 OA
ATOM      6  H   UNL     1     -39.316  24.510   2.990  0.00  0.00    +0.211 HD
ENDBRANCH   4   5
BRANCH   4   7
ATOM      7  C   UNL     1     -37.362  25.669   2.624  0.00  0.00    +0.169 C 
BRANCH   7   8
ATOM      8  O   UNL     1     -36.706  26.763   3.283  0.00  0.00    -0.379 OA
ATOM      9  H   UNL     1     -36.995  27.599   2.885  0.00  0.00    +0.211 HD
ENDBRANCH   7   8
BRANCH   7  10
ATOM     10  C   UNL     1     -38.721  26.179   2.160  0.00  0.00    +0.169 C 
BRANCH  10  11
ATOM     11  O   UNL     1     -39.474  26.586   3.299  0.00  0.00    -0.379 OA
ATOM     12  H   UNL     1     -40.164  25.930   3.482  0.00  0.00    +0.211 HD
ENDBRANCH  10  11
ENDBRANCH   7  10
ENDBRANCH   4   7
ENDBRANCH   1   4
BRANCH   1  13
ATOM     13  C   UNL     1     -35.149  23.506   4.420  0.00  0.00    +0.209 C 
BRANCH  13  15
ATOM     14  O   UNL     1     -35.959  22.176   6.282  0.00  0.00    -0.286 OA
ATOM     15  C   UNL     1     -35.507  23.237   5.867  0.00  0.00    +0.239 C 
ENDBRANCH  13  15
BRANCH  13  16
ATOM     16  O   UNL     1     -34.611  24.821   4.344  0.00  0.00    -0.341 OA
BRANCH  16  17
ATOM     17  C   UNL     1     -34.444  25.390   5.634  0.00  0.00    +0.169 C 
BRANCH  17  19
ATOM     18  I   UNL     1     -30.544  30.394   5.206  0.00  0.00    -0.043 I 
ATOM     19  C   UNL     1     -33.524  26.571   5.533  0.00  0.00    +0.007 C 
ATOM     20  C   UNL     1     -33.308  27.171   4.298  0.00  0.00    -0.001 C 
ATOM     21  C   UNL     1     -32.897  27.055   6.675  0.00  0.00    -0.001 C 
ATOM     22  C   UNL     1     -32.452  28.269   4.204  0.00  0.00    +0.006 C 
ATOM     23  C   UNL     1     -32.042  28.153   6.582  0.00  0.00    +0.006 C 
ATOM     24  C   UNL     1     -31.819  28.760   5.346  0.00  0.00    +0.030 C 
ENDBRANCH  17  19
ENDBRANCH  16  17
ENDBRANCH  13  16
ENDBRANCH   1  13
TORSDOF 12
ENDMDL
MODEL 4
REMARK VINA RESULT:      -5.6      3.254      6.517
REMARK  Name = 194795
REMARK  12 active torsions:
REMARK  status: ('A' for Active; 'I' for Inactive)
REMARK    1  A    between atoms: C_1  and  O_2
REMARK    2  A    between atoms: C_1  and  C_4
REMARK    3  A    between atoms: C_1  and  C_13
REMARK    4  A    between atoms: C_4  and  O_5
REMARK    5  A    between atoms: C_4  and  C_7
REMARK    6  A    between atoms: C_7  and  O_8
REMARK    7  A    between atoms: C_7  and  C_10
REMARK    8  A    between atoms: C_10  and  O_11
REMARK    9  A    between atoms: C_13  and  C_15
REMARK   10  A    between atoms: C_13  and  O_16
REMARK   11  A    between atoms: O_16  and  C_17
REMARK   12  A    between atoms: C_17  and  C_19
REMARK                            x       y       z     vdW  Elec       q    Type
REMARK                         _______ _______ _______ _____ _____    ______ ____
ROOT
ATOM      1  C   UNL     1     -35.162  21.965   3.713  0.00  0.00    +0.174 C 
ENDROOT
BRANCH   1   2
ATOM      2  O   UNL     1     -35.312  20.722   4.409  0.00  0.00    -0.379 OA
ATOM      3  H   UNL     1     -35.567  20.895   5.329  0.00  0.00    +0.211 HD
ENDBRANCH   1   2
BRANCH   1   4
ATOM      4  C   UNL     1     -36.321  22.069   2.706  0.00  0.00    +0.169 C 
BRANCH   4   5
ATOM      5  O   UNL     1     -37.567  22.169   3.405  0.00  0.00    -0.379 OA
ATOM      6  H   UNL     1     -37.530  21.631   4.212  0.00  0.00    +0.211 HD
ENDBRANCH   4   5
BRANCH   4   7
ATOM      7  C   UNL     1     -36.445  20.899   1.719  0.00  0.00    +0.169 C 
BRANCH   7   8
ATOM      8  O   UNL     1     -36.895  19.750   2.453  0.00  0.00    -0.379 OA
ATOM      9  H   UNL     1     -36.195  19.079   2.464  0.00  0.00    +0.211 HD
ENDBRANCH   7   8
BRANCH   7  10
ATOM     10  C   UNL     1     -35.134  20.511   1.046  0.00  0.00    +0.169 C 
BRANCH  10  11
ATOM     11  O   UNL     1     -34.640  19.320   1.652  0.00  0.00    -0.379 OA
ATOM     12  H   UNL     1     -35.244  18.586   1.462  0.00  0.00    +0.211 HD
ENDBRANCH  10  11
ENDBRANCH   7  10
ENDBRANCH   4   7
ENDBRANCH   1   4
BRANCH   1  13
ATOM     13  C   UNL     1     -35.014  23.110   4.726  0.00  0.00    +0.209 C 
BRANCH  13  15
ATOM     14  O   UNL     1     -36.220  22.063   6.554  0.00  0.00    -0.286 OA
ATOM     15  C   UNL     1     -35.241  22.690   6.163  0.00  0.00    +0.239 C 
ENDBRANCH  13  15
BRANCH  13  16
ATOM     16  O   UNL     1     -35.982  24.104   4.408  0.00  0.00    -0.341 OA
BRANCH  16  17
ATOM     17  C   UNL     1     -36.000  25.140   5.378  0.00  0.00    +0.169 C 
BRANCH  17  19
ATOM     18  I   UNL     1     -31.100  29.055   4.325  0.00  0.00    -0.043 I 
ATOM     19  C   UNL     1     -34.843  26.064   5.129  0.00  0.00    +0.007 C 
ATOM     20  C   UNL     1     -33.907  26.280   6.134  0.00  0.00    -0.001 C 
ATOM     21  C   UNL     1     -34.718  26.694   3.897  0.00  0.00    -0.001 C 
ATOM     22  C   UNL     1     -32.833  27.139   5.904  0.00  0.00    +0.006 C 
ATOM     23  C   UNL     1     -33.644  27.552   3.665  0.00  0.00    +0.006 C 
ATOM     24  C   UNL     1     -32.700  27.775   4.669  0.00  0.00    +0.030 C 
ENDBRANCH  17  19
ENDBRANCH  16  17
ENDBRANCH  13  16
ENDBRANCH   1  13
TORSDOF 12
ENDMDL
MODEL 5
REMARK VINA RESULT:      -5.6      1.440      2.770
REMARK  Name = 194795
REMARK  12 active torsions:
REMARK  status: ('A' for Active; 'I' for Inactive)
REMARK    1  A    between atoms: C_1  and  O_2
REMARK    2  A    between atoms: C_1  and  C_4
REMARK    3  A    between atoms: C_1  and  C_13
REMARK    4  A    between atoms: C_4  and  O_5
REMARK    5  A    between atoms: C_4  and  C_7
REMARK    6  A    between atoms: C_7  and  O_8
REMARK    7  A    between atoms: C_7  and  C_10
REMARK    8  A    between atoms: C_10  and  O_11
REMARK    9  A    between atoms: C_13  and  C_15
REMARK   10  A    between atoms: C_13  and  O_16
REMARK   11  A    between atoms: O_16  and  C_17
REMARK   12  A    between atoms: C_17  and  C_19
REMARK                            x       y       z     vdW  Elec       q    Type
REMARK                         _______ _______ _______ _____ _____    ______ ____
ROOT
ATOM      1  C   UNL     1     -36.470  23.231   3.061  0.00  0.00    +0.174 C 
ENDROOT
BRANCH   1   2
ATOM      2  O   UNL     1     -37.703  22.531   3.260  0.00  0.00    -0.379 OA
ATOM      3  H   UNL     1     -37.521  21.657   3.640  0.00  0.00    +0.211 HD
ENDBRANCH   1   2
BRANCH   1   4
ATOM      4  C   UNL     1     -35.761  23.305   4.424  0.00  0.00    +0.169 C 
BRANCH   4   5
ATOM      5  O   UNL     1     -36.091  22.153   5.209  0.00  0.00    -0.379 OA
ATOM      6  H   UNL     1     -35.770  22.276   6.116  0.00  0.00    +0.211 HD
ENDBRANCH   4   5
BRANCH   4   7
ATOM      7  C   UNL     1     -36.088  24.542   5.273  0.00  0.00    +0.169 C 
BRANCH   7   8
ATOM      8  O   UNL     1     -37.316  25.101   4.782  0.00  0.00    -0.379 OA
ATOM      9  H   UNL     1     -37.120  25.869   4.222  0.00  0.00    +0.211 HD
ENDBRANCH   7   8
BRANCH   7  10
ATOM     10  C   UNL     1     -35.036  25.643   5.197  0.00  0.00    +0.169 C 
BRANCH  10  11
ATOM     11  O   UNL     1     -35.669  26.859   4.808  0.00  0.00    -0.379 OA
ATOM     12  H   UNL     1     -35.263  27.601   5.282  0.00  0.00    +0.211 HD
ENDBRANCH  10  11
ENDBRANCH   7  10
ENDBRANCH   4   7
ENDBRANCH   1   4
BRANCH   1  13
ATOM     13  C   UNL     1     -35.691  22.588   1.904  0.00  0.00    +0.209 C 
BRANCH  13  15
ATOM     14  O   UNL     1     -37.556  22.812   0.367  0.00  0.00    -0.286 OA
ATOM     15  C   UNL     1     -36.556  22.198   0.724  0.00  0.00    +0.239 C 
ENDBRANCH  13  15
BRANCH  13  16
ATOM     16  O   UNL     1     -35.071  21.405   2.397  0.00  0.00    -0.341 OA
BRANCH  16  17
ATOM     17  C   UNL     1     -35.173  20.339   1.466  0.00  0.00    +0.169 C 
BRANCH  17  19
ATOM     18  I   UNL     1     -29.328  18.464  -0.195  0.00  0.00    -0.043 I 
ATOM     19  C   UNL     1     -33.793  19.896   1.074  0.00  0.00    +0.007 C 
ATOM     20  C   UNL     1     -33.009  20.719   0.273  0.00  0.00    -0.001 C 
ATOM     21  C   UNL     1     -33.312  18.670   1.516  0.00  0.00    -0.001 C 
ATOM     22  C   UNL     1     -31.727  20.307  -0.091  0.00  0.00    +0.006 C 
ATOM     23  C   UNL     1     -32.031  18.258   1.153  0.00  0.00    +0.006 C 
ATOM     24  C   UNL     1     -31.237  19.077   0.349  0.00  0.00    +0.030 C 
ENDBRANCH  17  19
ENDBRANCH  16  17
ENDBRANCH  13  16
ENDBRANCH   1  13
TORSDOF 12
ENDMDL
MODEL 6
REMARK VINA RESULT:      -5.5      1.611      3.168
REMARK  Name = 194795
REMARK  12 active torsions:
REMARK  status: ('A' for Active; 'I' for Inactive)
REMARK    1  A    between atoms: C_1  and  O_2
REMARK    2  A    between atoms: C_1  and  C_4
REMARK    3  A    between atoms: C_1  and  C_13
REMARK    4  A    between atoms: C_4  and  O_5
REMARK    5  A    between atoms: C_4  and  C_7
REMARK    6  A    between atoms: C_7  and  O_8
REMARK    7  A    between atoms: C_7  and  C_10
REMARK    8  A    between atoms: C_10  and  O_11
REMARK    9  A    between atoms: C_13  and  C_15
REMARK   10  A    between atoms: C_13  and  O_16
REMARK   11  A    between atoms: O_16  and  C_17
REMARK   12  A    between atoms: C_17  and  C_19
REMARK                            x       y       z     vdW  Elec       q    Type
REMARK                         _______ _______ _______ _____ _____    ______ ____
ROOT
ATOM      1  C   UNL     1     -36.351  25.249   3.500  0.00  0.00    +0.174 C 
ENDROOT
BRANCH   1   2
ATOM      2  O   UNL     1     -36.353  26.648   3.197  0.00  0.00    -0.379 OA
ATOM      3  H   UNL     1     -37.222  26.903   2.848  0.00  0.00    +0.211 HD
ENDBRANCH   1   2
BRANCH   1   4
ATOM      4  C   UNL     1     -36.216  25.112   5.027  0.00  0.00    +0.169 C 
BRANCH   4   5
ATOM      5  O   UNL     1     -36.347  26.397   5.646  0.00  0.00    -0.379 OA
ATOM      6  H   UNL     1     -36.632  27.047   4.985  0.00  0.00    +0.211 HD
ENDBRANCH   4   5
BRANCH   4   7
ATOM      7  C   UNL     1     -34.896  24.501   5.521  0.00  0.00    +0.169 C 
BRANCH   7   8
ATOM      8  O   UNL     1     -33.868  24.859   4.585  0.00  0.00    -0.379 OA
ATOM      9  H   UNL     1     -34.137  24.593   3.692  0.00  0.00    +0.211 HD
ENDBRANCH   7   8
BRANCH   7  10
ATOM     10  C   UNL     1     -34.909  22.980   5.607  0.00  0.00    +0.169 C 
BRANCH  10  11
ATOM     11  O   UNL     1     -36.260  22.536   5.706  0.00  0.00    -0.379 OA
ATOM     12  H   UNL     1     -36.777  22.907   4.975  0.00  0.00    +0.211 HD
ENDBRANCH  10  11
ENDBRANCH   7  10
ENDBRANCH   4   7
ENDBRANCH   1   4
BRANCH   1  13
ATOM     13  C   UNL     1     -37.567  24.576   2.846  0.00  0.00    +0.209 C 
BRANCH  13  15
ATOM     14  O   UNL     1     -39.153  26.412   2.928  0.00  0.00    -0.286 OA
ATOM     15  C   UNL     1     -38.887  25.240   3.176  0.00  0.00    +0.239 C 
ENDBRANCH  13  15
BRANCH  13  16
ATOM     16  O   UNL     1     -37.629  23.233   3.313  0.00  0.00    -0.341 OA
BRANCH  16  17
ATOM     17  C   UNL     1     -37.913  22.329   2.255  0.00  0.00    +0.169 C 
BRANCH  17  19
ATOM     18  I   UNL     1     -32.479  19.695   0.263  0.00  0.00    -0.043 I 
ATOM     19  C   UNL     1     -36.631  21.707   1.785  0.00  0.00    +0.007 C 
ATOM     20  C   UNL     1     -35.968  20.797   2.600  0.00  0.00    -0.001 C 
ATOM     21  C   UNL     1     -36.118  22.045   0.538  0.00  0.00    -0.001 C 
ATOM     22  C   UNL     1     -34.775  20.219   2.163  0.00  0.00    +0.006 C 
ATOM     23  C   UNL     1     -34.927  21.468   0.101  0.00  0.00    +0.006 C 
ATOM     24  C   UNL     1     -34.255  20.554   0.913  0.00  0.00    +0.030 C 
ENDBRANCH  17  19
ENDBRANCH  16  17
ENDBRANCH  13  16
ENDBRANCH   1  13
TORSDOF 12
ENDMDL
MODEL 7
REMARK VINA RESULT:      -5.5      0.724      1.538
REMARK  Name = 194795
REMARK  12 active torsions:
REMARK  status: ('A' for Active; 'I' for Inactive)
REMARK    1  A    between atoms: C_1  and  O_2
REMARK    2  A    between atoms: C_1  and  C_4
REMARK    3  A    between atoms: C_1  and  C_13
REMARK    4  A    between atoms: C_4  and  O_5
REMARK    5  A    between atoms: C_4  and  C_7
REMARK    6  A    between atoms: C_7  and  O_8
REMARK    7  A    between atoms: C_7  and  C_10
REMARK    8  A    between atoms: C_10  and  O_11
REMARK    9  A    between atoms: C_13  and  C_15
REMARK   10  A    between atoms: C_13  and  O_16
REMARK   11  A    between atoms: O_16  and  C_17
REMARK   12  A    between atoms: C_17  and  C_19
REMARK                            x       y       z     vdW  Elec       q    Type
REMARK                         _______ _______ _______ _____ _____    ______ ____
ROOT
ATOM      1  C   UNL     1     -36.574  24.683   3.897  0.00  0.00    +0.174 C 
ENDROOT
BRANCH   1   2
ATOM      2  O   UNL     1     -37.916  24.903   4.347  0.00  0.00    -0.379 OA
ATOM      3  H   UNL     1     -38.078  24.381   5.149  0.00  0.00    +0.211 HD
ENDBRANCH   1   2
BRANCH   1   4
ATOM      4  C   UNL     1     -35.694  25.772   4.533  0.00  0.00    +0.169 C 
BRANCH   4   5
ATOM      5  O   UNL     1     -36.513  26.710   5.241  0.00  0.00    -0.379 OA
ATOM      6  H   UNL     1     -36.655  27.496   4.691  0.00  0.00    +0.211 HD
ENDBRANCH   4   5
BRANCH   4   7
ATOM      7  C   UNL     1     -34.826  26.576   3.553  0.00  0.00    +0.169 C 
BRANCH   7   8
ATOM      8  O   UNL     1     -34.682  25.799   2.354  0.00  0.00    -0.379 OA
ATOM      9  H   UNL     1     -35.509  25.324   2.175  0.00  0.00    +0.211 HD
ENDBRANCH   7   8
BRANCH   7  10
ATOM     10  C   UNL     1     -33.421  26.870   4.065  0.00  0.00    +0.169 C 
BRANCH  10  11
ATOM     11  O   UNL     1     -33.509  27.347   5.405  0.00  0.00    -0.379 OA
ATOM     12  H   UNL     1     -32.636  27.295   5.825  0.00  0.00    +0.211 HD
ENDBRANCH  10  11
ENDBRANCH   7  10
ENDBRANCH   4   7
ENDBRANCH   1   4
BRANCH   1  13
ATOM     13  C   UNL     1     -36.174  23.223   4.159  0.00  0.00    +0.209 C 
BRANCH  13  15
ATOM     14  O   UNL     1     -35.994  22.164   6.335  0.00  0.00    -0.286 OA
ATOM     15  C   UNL     1     -35.575  22.988   5.530  0.00  0.00    +0.239 C 
ENDBRANCH  13  15
BRANCH  13  16
ATOM     16  O   UNL     1     -35.198  22.856   3.190  0.00  0.00    -0.341 OA
BRANCH  16  17
ATOM     17  C   UNL     1     -35.766  22.073   2.152  0.00  0.00    +0.169 C 
BRANCH  17  19
ATOM     18  I   UNL     1     -31.231  18.426  -0.413  0.00  0.00    -0.043 I 
ATOM     19  C   UNL     1     -34.696  21.212   1.546  0.00  0.00    +0.007 C 
ATOM     20  C   UNL     1     -34.534  19.904   1.987  0.00  0.00    -0.001 C 
ATOM     21  C   UNL     1     -33.878  21.730   0.549  0.00  0.00    -0.001 C 
ATOM     22  C   UNL     1     -33.539  19.104   1.425  0.00  0.00    +0.006 C 
ATOM     23  C   UNL     1     -32.884  20.931  -0.014  0.00  0.00    +0.006 C 
ATOM     24  C   UNL     1     -32.714  19.617   0.424  0.00  0.00    +0.030 C 
ENDBRANCH  17  19
ENDBRANCH  16  17
ENDBRANCH  13  16
ENDBRANCH   1  13
TORSDOF 12
ENDMDL
MODEL 8
REMARK VINA RESULT:      -5.4      1.680      2.382
REMARK  Name = 194795
REMARK  12 active torsions:
REMARK  status: ('A' for Active; 'I' for Inactive)
REMARK    1  A    between atoms: C_1  and  O_2
REMARK    2  A    between atoms: C_1  and  C_4
REMARK    3  A    between atoms: C_1  and  C_13
REMARK    4  A    between atoms: C_4  and  O_5
REMARK    5  A    between atoms: C_4  and  C_7
REMARK    6  A    between atoms: C_7  and  O_8
REMARK    7  A    between atoms: C_7  and  C_10
REMARK    8  A    between atoms: C_10  and  O_11
REMARK    9  A    between atoms: C_13  and  C_15
REMARK   10  A    between atoms: C_13  and  O_16
REMARK   11  A    between atoms: O_16  and  C_17
REMARK   12  A    between atoms: C_17  and  C_19
REMARK                            x       y       z     vdW  Elec       q    Type
REMARK                         _______ _______ _______ _____ _____    ______ ____
ROOT
ATOM      1  C   UNL     1     -34.984  25.002   5.348  0.00  0.00    +0.174 C 
ENDROOT
BRANCH   1   2
ATOM      2  O   UNL     1     -33.697  24.926   4.724  0.00  0.00    -0.379 OA
ATOM      3  H   UNL     1     -33.276  24.083   4.953  0.00  0.00    +0.211 HD
ENDBRANCH   1   2
BRANCH   1   4
ATOM      4  C   UNL     1     -35.648  26.305   4.870  0.00  0.00    +0.169 C 
BRANCH   4   5
ATOM      5  O   UNL     1     -37.057  26.105   4.708  0.00  0.00    -0.379 OA
ATOM      6  H   UNL     1     -37.460  25.926   5.572  0.00  0.00    +0.211 HD
ENDBRANCH   4   5
BRANCH   4   7
ATOM      7  C   UNL     1     -35.114  26.872   3.546  0.00  0.00    +0.169 C 
BRANCH   7   8
ATOM      8  O   UNL     1     -35.086  28.303   3.660  0.00  0.00    -0.379 OA
ATOM      9  H   UNL     1     -35.490  28.568   4.501  0.00  0.00    +0.211 HD
ENDBRANCH   7   8
BRANCH   7  10
ATOM     10  C   UNL     1     -35.977  26.539   2.335  0.00  0.00    +0.169 C 
BRANCH  10  11
ATOM     11  O   UNL     1     -36.998  27.525   2.211  0.00  0.00    -0.379 OA
ATOM     12  H   UNL     1     -36.601  28.371   1.950  0.00  0.00    +0.211 HD
ENDBRANCH  10  11
ENDBRANCH   7  10
ENDBRANCH   4   7
ENDBRANCH   1   4
BRANCH   1  13
ATOM     13  C   UNL     1     -35.755  23.697   5.103  0.00  0.00    +0.209 C 
BRANCH  13  15
ATOM     14  O   UNL     1     -35.999  21.863   6.674  0.00  0.00    -0.286 OA
ATOM     15  C   UNL     1     -35.275  22.534   5.946  0.00  0.00    +0.239 C 
ENDBRANCH  13  15
BRANCH  13  16
ATOM     16  O   UNL     1     -35.588  23.339   3.735  0.00  0.00    -0.341 OA
BRANCH  16  17
ATOM     17  C   UNL     1     -36.751  22.711   3.218  0.00  0.00    +0.169 C 
BRANCH  17  19
ATOM     18  I   UNL     1     -35.003  17.862  -0.508  0.00  0.00    -0.043 I 
ATOM     19  C   UNL     1     -36.339  21.566   2.339  0.00  0.00    +0.007 C 
ATOM     20  C   UNL     1     -35.107  20.953   2.540  0.00  0.00    -0.001 C 
ATOM     21  C   UNL     1     -37.192  21.128   1.333  0.00  0.00    -0.001 C 
ATOM     22  C   UNL     1     -34.723  19.890   1.722  0.00  0.00    +0.006 C 
ATOM     23  C   UNL     1     -36.809  20.065   0.516  0.00  0.00    +0.006 C 
ATOM     24  C   UNL     1     -35.574  19.445   0.711  0.00  0.00    +0.030 C 
ENDBRANCH  17  19
ENDBRANCH  16  17
ENDBRANCH  13  16
ENDBRANCH   1  13
TORSDOF 12
ENDMDL
MODEL 9
REMARK VINA RESULT:      -5.3      1.845      2.943
REMARK  Name = 194795
REMARK  12 active torsions:
REMARK  status: ('A' for Active; 'I' for Inactive)
REMARK    1  A    between atoms: C_1  and  O_2
REMARK    2  A    between atoms: C_1  and  C_4
REMARK    3  A    between atoms: C_1  and  C_13
REMARK    4  A    between atoms: C_4  and  O_5
REMARK    5  A    between atoms: C_4  and  C_7
REMARK    6  A    between atoms: C_7  and  O_8
REMARK    7  A    between atoms: C_7  and  C_10
REMARK    8  A    between atoms: C_10  and  O_11
REMARK    9  A    between atoms: C_13  and  C_15
REMARK   10  A    between atoms: C_13  and  O_16
REMARK   11  A    between atoms: O_16  and  C_17
REMARK   12  A    between atoms: C_17  and  C_19
REMARK                            x       y       z     vdW  Elec       q    Type
REMARK                         _______ _______ _______ _____ _____    ______ ____
ROOT
ATOM      1  C   UNL     1     -37.190  25.347   3.113  0.00  0.00    +0.174 C 
ENDROOT
BRANCH   1   2
ATOM      2  O   UNL     1     -37.812  26.629   2.963  0.00  0.00    -0.379 OA
ATOM      3  H   UNL     1     -37.291  27.298   3.435  0.00  0.00    +0.211 HD
ENDBRANCH   1   2
BRANCH   1   4
ATOM      4  C   UNL     1     -36.789  25.204   4.592  0.00  0.00    +0.169 C 
BRANCH   4   5
ATOM      5  O   UNL     1     -36.541  26.496   5.158  0.00  0.00    -0.379 OA
ATOM      6  H   UNL     1     -37.129  26.635   5.917  0.00  0.00    +0.211 HD
ENDBRANCH   4   5
BRANCH   4   7
ATOM      7  C   UNL     1     -35.546  24.343   4.860  0.00  0.00    +0.169 C 
BRANCH   7   8
ATOM      8  O   UNL     1     -35.946  23.234   5.679  0.00  0.00    -0.379 OA
ATOM      9  H   UNL     1     -35.434  23.241   6.503  0.00  0.00    +0.211 HD
ENDBRANCH   7   8
BRANCH   7  10
ATOM     10  C   UNL     1     -34.435  25.072   5.607  0.00  0.00    +0.169 C 
BRANCH  10  11
ATOM     11  O   UNL     1     -33.495  25.572   4.661  0.00  0.00    -0.379 OA
ATOM     12  H   UNL     1     -33.883  26.322   4.184  0.00  0.00    +0.211 HD
ENDBRANCH  10  11
ENDBRANCH   7  10
ENDBRANCH   4   7
ENDBRANCH   1   4
BRANCH   1  13
ATOM     13  C   UNL     1     -38.102  24.258   2.530  0.00  0.00    +0.209 C 
BRANCH  13  15
ATOM     14  O   UNL     1     -40.069  24.756   3.862  0.00  0.00    -0.286 OA
ATOM     15  C   UNL     1     -39.578  24.503   2.767  0.00  0.00    +0.239 C 
ENDBRANCH  13  15
BRANCH  13  16
ATOM     16  O   UNL     1     -37.762  23.023   3.151  0.00  0.00    -0.341 OA
BRANCH  16  17
ATOM     17  C   UNL     1     -38.158  21.916   2.355  0.00  0.00    +0.169 C 
BRANCH  17  19
ATOM     18  I   UNL     1     -33.015  18.479   0.879  0.00  0.00    -0.043 I 
ATOM     19  C   UNL     1     -36.945  21.104   2.007  0.00  0.00    +0.007 C 
ATOM     20  C   UNL     1     -35.812  21.181   2.810  0.00  0.00    -0.001 C 
ATOM     21  C   UNL     1     -36.964  20.283   0.886  0.00  0.00    -0.001 C 
ATOM     22  C   UNL     1     -34.684  20.428   2.486  0.00  0.00    +0.006 C 
ATOM     23  C   UNL     1     -35.837  19.529   0.562  0.00  0.00    +0.006 C 
ATOM     24  C   UNL     1     -34.696  19.601   1.362  0.00  0.00    +0.030 C 
ENDBRANCH  17  19
ENDBRANCH  16  17
ENDBRANCH  13  16
ENDBRANCH   1  13
TORSDOF 12
ENDMDL
