MODEL 1
REMARK VINA RESULT:      -5.2      0.000      0.000
REMARK  Name = 21252274
REMARK  6 active torsions:
REMARK  status: ('A' for Active; 'I' for Inactive)
REMARK    1  A    between atoms: C_3  and  C_23
REMARK    2  A    between atoms: C_4  and  O_20
REMARK    3  A    between atoms: C_7  and  CA_10
REMARK    4  A    between atoms: C_14  and  CA_15
REMARK    5  A    between atoms: CA_15  and  N_16
REMARK    6  A    between atoms: C_23  and  O_24
REMARK                            x       y       z     vdW  Elec       q    Type
REMARK                         _______ _______ _______ _____ _____    ______ ____
ROOT
ATOM      1  O   PRO A   2     -34.928  23.130   1.491  0.00  0.00    -0.273 OA
ATOM      2  N   UNK A   3     -35.494  24.256   3.432  0.00  0.00    -0.268 N 
ATOM      3  C   UNK A   3     -35.080  25.582   2.984  0.00  0.00    +0.202 C 
ATOM      4  C   UNK A   3     -35.761  26.535   3.963  0.00  0.00    +0.141 C 
ATOM      5  C   UNK A   3     -36.092  24.314   4.766  0.00  0.00    +0.097 C 
ATOM      6  C   UNK A   3     -35.814  25.726   5.258  0.00  0.00    +0.053 C 
ATOM      7  C   PRO A   2     -35.441  23.140   2.610  0.00  0.00    +0.244 C 
ENDROOT
BRANCH   7  10
ATOM      8  O   GLY A   1     -38.657  23.064   2.858  0.00  0.00    -0.277 OA
ATOM      9  N   PRO A   2     -37.094  21.469   2.250  0.00  0.00    -0.275 N 
ATOM     10  CA  PRO A   2     -36.053  21.894   3.176  0.00  0.00    +0.152 C 
ATOM     11  CB  PRO A   2     -35.060  20.737   3.199  0.00  0.00    +0.031 C 
ATOM     12  CG  PRO A   2     -35.205  20.116   1.812  0.00  0.00    +0.024 C 
ATOM     13  CD  PRO A   2     -36.688  20.275   1.512  0.00  0.00    +0.094 C 
ATOM     14  C   GLY A   1     -38.350  22.054   2.221  0.00  0.00    +0.204 C 
BRANCH  14  15
ATOM     15  CA  GLY A   1     -39.362  21.379   1.329  0.00  0.00    +0.001 C 
BRANCH  15  16
ATOM     16  N   GLY A   1     -40.437  22.329   1.147  0.00  0.00    +0.386 N 
ATOM     17  H1  GLY A   1     -40.970  22.082   0.312  0.00  0.00    -0.089 HD
ATOM     18  H2  GLY A   1     -40.050  23.266   1.039  0.00  0.00    -0.089 HD
ATOM     19  H3  GLY A   1     -41.052  22.307   1.961  0.00  0.00    -0.089 HD
ENDBRANCH  15  16
ENDBRANCH  14  15
ENDBRANCH   7  10
BRANCH   4  20
ATOM     20  O   UNK A   3     -35.058  27.750   4.125  0.00  0.00    -0.382 OA
ATOM     21  H   UNK A   3     -34.128  27.561   4.321  0.00  0.00    +0.210 HD
ENDBRANCH   4  20
BRANCH   3  23
ATOM     22  O   UNK A   3     -32.941  25.700   4.107  0.00  0.00    -0.248 OA
ATOM     23  C   UNK A   3     -33.582  25.603   3.071  0.00  0.00    +0.335 C 
BRANCH  23  24
ATOM     24  O   UNK A   3     -33.028  25.501   1.838  0.00  0.00    -0.479 OA
ATOM     25  H   UNK A   3     -33.140  24.716   1.338  0.00  0.00    +0.295 HD
ENDBRANCH  23  24
ENDBRANCH   3  23
TORSDOF 6
ENDMDL
MODEL 2
REMARK VINA RESULT:      -5.1      2.083      3.227
REMARK  Name = 21252274
REMARK  6 active torsions:
REMARK  status: ('A' for Active; 'I' for Inactive)
REMARK    1  A    between atoms: C_3  and  C_23
REMARK    2  A    between atoms: C_4  and  O_20
REMARK    3  A    between atoms: C_7  and  CA_10
REMARK    4  A    between atoms: C_14  and  CA_15
REMARK    5  A    between atoms: CA_15  and  N_16
REMARK    6  A    between atoms: C_23  and  O_24
REMARK                            x       y       z     vdW  Elec       q    Type
REMARK                         _______ _______ _______ _____ _____    ______ ____
ROOT
ATOM      1  O   PRO A   2     -33.534  24.391   4.273  0.00  0.00    -0.273 OA
ATOM      2  N   UNK A   3     -34.989  25.735   3.077  0.00  0.00    -0.268 N 
ATOM      3  C   UNK A   3     -33.972  26.596   2.481  0.00  0.00    +0.202 C 
ATOM      4  C   UNK A   3     -34.696  27.283   1.327  0.00  0.00    +0.141 C 
ATOM      5  C   UNK A   3     -36.325  26.081   2.588  0.00  0.00    +0.097 C 
ATOM      6  C   UNK A   3     -36.137  27.384   1.827  0.00  0.00    +0.053 C 
ATOM      7  C   PRO A   2     -34.672  24.651   3.881  0.00  0.00    +0.244 C 
ENDROOT
BRANCH   7  10
ATOM      8  O   GLY A   1     -35.907  22.727   1.605  0.00  0.00    -0.277 OA
ATOM      9  N   PRO A   2     -35.501  22.422   3.863  0.00  0.00    -0.275 N 
ATOM     10  CA  PRO A   2     -35.827  23.780   4.276  0.00  0.00    +0.152 C 
ATOM     11  CB  PRO A   2     -35.981  23.699   5.790  0.00  0.00    +0.031 C 
ATOM     12  CG  PRO A   2     -35.052  22.552   6.181  0.00  0.00    +0.024 C 
ATOM     13  CD  PRO A   2     -35.186  21.583   5.016  0.00  0.00    +0.094 C 
ATOM     14  C   GLY A   1     -35.640  21.987   2.555  0.00  0.00    +0.204 C 
BRANCH  14  15
ATOM     15  CA  GLY A   1     -35.431  20.510   2.334  0.00  0.00    +0.001 C 
BRANCH  15  16
ATOM     16  N   GLY A   1     -36.749  19.918   2.275  0.00  0.00    +0.386 N 
ATOM     17  H1  GLY A   1     -36.917  19.378   3.123  0.00  0.00    -0.089 HD
ATOM     18  H2  GLY A   1     -36.811  19.305   1.462  0.00  0.00    -0.089 HD
ATOM     19  H3  GLY A   1     -37.450  20.656   2.198  0.00  0.00    -0.089 HD
ENDBRANCH  15  16
ENDBRANCH  14  15
ENDBRANCH   7  10
BRANCH   4  20
ATOM     20  O   UNK A   3     -34.154  28.550   1.014  0.00  0.00    -0.382 OA
ATOM     21  H   UNK A   3     -33.881  28.995   1.831  0.00  0.00    +0.210 HD
ENDBRANCH   4  20
BRANCH   3  23
ATOM     22  O   UNK A   3     -34.139  28.556   3.890  0.00  0.00    -0.248 OA
ATOM     23  C   UNK A   3     -33.541  27.541   3.565  0.00  0.00    +0.335 C 
BRANCH  23  24
ATOM     24  O   UNK A   3     -32.389  27.118   4.139  0.00  0.00    -0.479 OA
ATOM     25  H   UNK A   3     -32.254  26.205   4.302  0.00  0.00    +0.295 HD
ENDBRANCH  23  24
ENDBRANCH   3  23
TORSDOF 6
ENDMDL
MODEL 3
REMARK VINA RESULT:      -5.1      2.007      5.749
REMARK  Name = 21252274
REMARK  6 active torsions:
REMARK  status: ('A' for Active; 'I' for Inactive)
REMARK    1  A    between atoms: C_3  and  C_23
REMARK    2  A    between atoms: C_4  and  O_20
REMARK    3  A    between atoms: C_7  and  CA_10
REMARK    4  A    between atoms: C_14  and  CA_15
REMARK    5  A    between atoms: CA_15  and  N_16
REMARK    6  A    between atoms: C_23  and  O_24
REMARK                            x       y       z     vdW  Elec       q    Type
REMARK                         _______ _______ _______ _____ _____    ______ ____
ROOT
ATOM      1  O   PRO A   2     -37.679  23.453   3.764  0.00  0.00    -0.273 OA
ATOM      2  N   UNK A   3     -37.051  22.557   1.725  0.00  0.00    -0.268 N 
ATOM      3  C   UNK A   3     -38.334  22.745   1.056  0.00  0.00    +0.202 C 
ATOM      4  C   UNK A   3     -38.004  22.604  -0.428  0.00  0.00    +0.141 C 
ATOM      5  C   UNK A   3     -36.053  22.005   0.807  0.00  0.00    +0.097 C 
ATOM      6  C   UNK A   3     -36.840  21.615  -0.435  0.00  0.00    +0.053 C 
ATOM      7  C   PRO A   2     -36.812  22.994   3.019  0.00  0.00    +0.244 C 
ENDROOT
BRANCH   7  10
ATOM      8  O   GLY A   1     -34.751  25.312   2.136  0.00  0.00    -0.277 OA
ATOM      9  N   PRO A   2     -35.032  24.134   4.108  0.00  0.00    -0.275 N 
ATOM     10  CA  PRO A   2     -35.396  22.864   3.493  0.00  0.00    +0.152 C 
ATOM     11  CB  PRO A   2     -35.266  21.840   4.614  0.00  0.00    +0.031 C 
ATOM     12  CG  PRO A   2     -35.557  22.652   5.874  0.00  0.00    +0.024 C 
ATOM     13  CD  PRO A   2     -34.949  24.011   5.561  0.00  0.00    +0.094 C 
ATOM     14  C   GLY A   1     -34.666  25.244   3.364  0.00  0.00    +0.204 C 
BRANCH  14  15
ATOM     15  CA  GLY A   1     -34.150  26.418   4.158  0.00  0.00    +0.001 C 
BRANCH  15  16
ATOM     16  N   GLY A   1     -35.176  27.435   4.090  0.00  0.00    +0.386 N 
ATOM     17  H1  GLY A   1     -35.593  27.558   5.013  0.00  0.00    -0.089 HD
ATOM     18  H2  GLY A   1     -35.895  27.150   3.426  0.00  0.00    -0.089 HD
ATOM     19  H3  GLY A   1     -34.761  28.317   3.785  0.00  0.00    -0.089 HD
ENDBRANCH  15  16
ENDBRANCH  14  15
ENDBRANCH   7  10
BRANCH   4  20
ATOM     20  O   UNK A   3     -39.099  22.141  -1.192  0.00  0.00    -0.382 OA
ATOM     21  H   UNK A   3     -39.062  21.174  -1.255  0.00  0.00    +0.210 HD
ENDBRANCH   4  20
BRANCH   3  23
ATOM     22  O   UNK A   3     -40.421  21.545   1.297  0.00  0.00    -0.248 OA
ATOM     23  C   UNK A   3     -39.236  21.663   1.574  0.00  0.00    +0.335 C 
BRANCH  23  24
ATOM     24  O   UNK A   3     -38.559  20.828   2.398  0.00  0.00    -0.479 OA
ATOM     25  H   UNK A   3     -38.925  19.996   2.626  0.00  0.00    +0.295 HD
ENDBRANCH  23  24
ENDBRANCH   3  23
TORSDOF 6
ENDMDL
MODEL 4
REMARK VINA RESULT:      -4.9      3.204      6.917
REMARK  Name = 21252274
REMARK  6 active torsions:
REMARK  status: ('A' for Active; 'I' for Inactive)
REMARK    1  A    between atoms: C_3  and  C_23
REMARK    2  A    between atoms: C_4  and  O_20
REMARK    3  A    between atoms: C_7  and  CA_10
REMARK    4  A    between atoms: C_14  and  CA_15
REMARK    5  A    between atoms: CA_15  and  N_16
REMARK    6  A    between atoms: C_23  and  O_24
REMARK                            x       y       z     vdW  Elec       q    Type
REMARK                         _______ _______ _______ _____ _____    ______ ____
ROOT
ATOM      1  O   PRO A   2     -32.547  25.857   2.917  0.00  0.00    -0.273 OA
ATOM      2  N   UNK A   3     -34.609  25.661   3.950  0.00  0.00    -0.268 N 
ATOM      3  C   UNK A   3     -34.669  24.203   3.932  0.00  0.00    +0.202 C 
ATOM      4  C   UNK A   3     -35.757  23.863   4.946  0.00  0.00    +0.141 C 
ATOM      5  C   UNK A   3     -35.769  26.228   4.638  0.00  0.00    +0.097 C 
ATOM      6  C   UNK A   3     -36.711  25.052   4.848  0.00  0.00    +0.053 C 
ATOM      7  C   PRO A   2     -33.507  26.369   3.493  0.00  0.00    +0.244 C 
ENDROOT
BRANCH   7  10
ATOM      8  O   GLY A   1     -32.916  27.386   6.497  0.00  0.00    -0.277 OA
ATOM      9  N   PRO A   2     -32.312  28.205   4.418  0.00  0.00    -0.275 N 
ATOM     10  CA  PRO A   2     -33.546  27.849   3.733  0.00  0.00    +0.152 C 
ATOM     11  CB  PRO A   2     -33.506  28.634   2.427  0.00  0.00    +0.031 C 
ATOM     12  CG  PRO A   2     -32.012  28.774   2.143  0.00  0.00    +0.024 C 
ATOM     13  CD  PRO A   2     -31.406  28.929   3.529  0.00  0.00    +0.094 C 
ATOM     14  C   GLY A   1     -32.129  28.004   5.777  0.00  0.00    +0.204 C 
BRANCH  14  15
ATOM     15  CA  GLY A   1     -30.866  28.590   6.357  0.00  0.00    +0.001 C 
BRANCH  15  16
ATOM     16  N   GLY A   1     -31.274  29.395   7.487  0.00  0.00    +0.386 N 
ATOM     17  H1  GLY A   1     -30.740  30.263   7.497  0.00  0.00    -0.089 HD
ATOM     18  H2  GLY A   1     -31.103  28.880   8.351  0.00  0.00    -0.089 HD
ATOM     19  H3  GLY A   1     -32.269  29.609   7.410  0.00  0.00    -0.089 HD
ENDBRANCH  15  16
ENDBRANCH  14  15
ENDBRANCH   7  10
BRANCH   4  20
ATOM     20  O   UNK A   3     -36.405  22.639   4.666  0.00  0.00    -0.382 OA
ATOM     21  H   UNK A   3     -35.879  21.907   5.022  0.00  0.00    +0.210 HD
ENDBRANCH   4  20
BRANCH   3  23
ATOM     22  O   UNK A   3     -35.385  24.597   1.654  0.00  0.00    -0.248 OA
ATOM     23  C   UNK A   3     -35.020  23.819   2.524  0.00  0.00    +0.335 C 
BRANCH  23  24
ATOM     24  O   UNK A   3     -34.879  22.483   2.342  0.00  0.00    -0.479 OA
ATOM     25  H   UNK A   3     -34.297  21.995   2.890  0.00  0.00    +0.295 HD
ENDBRANCH  23  24
ENDBRANCH   3  23
TORSDOF 6
ENDMDL
MODEL 5
REMARK VINA RESULT:      -4.8      2.437      3.452
REMARK  Name = 21252274
REMARK  6 active torsions:
REMARK  status: ('A' for Active; 'I' for Inactive)
REMARK    1  A    between atoms: C_3  and  C_23
REMARK    2  A    between atoms: C_4  and  O_20
REMARK    3  A    between atoms: C_7  and  CA_10
REMARK    4  A    between atoms: C_14  and  CA_15
REMARK    5  A    between atoms: CA_15  and  N_16
REMARK    6  A    between atoms: C_23  and  O_24
REMARK                            x       y       z     vdW  Elec       q    Type
REMARK                         _______ _______ _______ _____ _____    ______ ____
ROOT
ATOM      1  O   PRO A   2     -37.125  23.120   1.699  0.00  0.00    -0.273 OA
ATOM      2  N   UNK A   3     -35.714  24.302   3.101  0.00  0.00    -0.268 N 
ATOM      3  C   UNK A   3     -36.760  24.944   3.891  0.00  0.00    +0.202 C 
ATOM      4  C   UNK A   3     -36.034  25.437   5.139  0.00  0.00    +0.141 C 
ATOM      5  C   UNK A   3     -34.385  24.644   3.610  0.00  0.00    +0.097 C 
ATOM      6  C   UNK A   3     -34.628  25.748   4.627  0.00  0.00    +0.053 C 
ATOM      7  C   PRO A   2     -35.992  23.382   2.101  0.00  0.00    +0.244 C 
ENDROOT
BRANCH   7  10
ATOM      8  O   GLY A   1     -35.638  20.234   2.707  0.00  0.00    -0.277 OA
ATOM      9  N   PRO A   2     -35.283  21.514   0.812  0.00  0.00    -0.275 N 
ATOM     10  CA  PRO A   2     -34.798  22.701   1.501  0.00  0.00    +0.152 C 
ATOM     11  CB  PRO A   2     -34.154  23.548   0.409  0.00  0.00    +0.031 C 
ATOM     12  CG  PRO A   2     -34.936  23.165  -0.845  0.00  0.00    +0.024 C 
ATOM     13  CD  PRO A   2     -35.225  21.686  -0.637  0.00  0.00    +0.094 C 
ATOM     14  C   GLY A   1     -35.598  20.341   1.480  0.00  0.00    +0.204 C 
BRANCH  14  15
ATOM     15  CA  GLY A   1     -35.914  19.157   0.600  0.00  0.00    +0.001 C 
BRANCH  15  16
ATOM     16  N   GLY A   1     -34.753  18.296   0.647  0.00  0.00    +0.386 N 
ATOM     17  H1  GLY A   1     -33.915  18.863   0.778  0.00  0.00    -0.089 HD
ATOM     18  H2  GLY A   1     -34.679  17.776  -0.227  0.00  0.00    -0.089 HD
ATOM     19  H3  GLY A   1     -34.845  17.643   1.425  0.00  0.00    -0.089 HD
ENDBRANCH  15  16
ENDBRANCH  14  15
ENDBRANCH   7  10
BRANCH   4  20
ATOM     20  O   UNK A   3     -36.648  26.568   5.722  0.00  0.00    -0.382 OA
ATOM     21  H   UNK A   3     -36.069  27.338   5.620  0.00  0.00    +0.210 HD
ENDBRANCH   4  20
BRANCH   3  23
ATOM     22  O   UNK A   3     -36.708  26.585   2.113  0.00  0.00    -0.248 OA
ATOM     23  C   UNK A   3     -37.305  26.053   3.038  0.00  0.00    +0.335 C 
BRANCH  23  24
ATOM     24  O   UNK A   3     -38.557  26.390   3.432  0.00  0.00    -0.479 OA
ATOM     25  H   UNK A   3     -39.122  26.856   2.848  0.00  0.00    +0.295 HD
ENDBRANCH  23  24
ENDBRANCH   3  23
TORSDOF 6
ENDMDL
MODEL 6
REMARK VINA RESULT:      -4.6      2.146      3.545
REMARK  Name = 21252274
REMARK  6 active torsions:
REMARK  status: ('A' for Active; 'I' for Inactive)
REMARK    1  A    between atoms: C_3  and  C_23
REMARK    2  A    between atoms: C_4  and  O_20
REMARK    3  A    between atoms: C_7  and  CA_10
REMARK    4  A    between atoms: C_14  and  CA_15
REMARK    5  A    between atoms: CA_15  and  N_16
REMARK    6  A    between atoms: C_23  and  O_24
REMARK                            x       y       z     vdW  Elec       q    Type
REMARK                         _______ _______ _______ _____ _____    ______ ____
ROOT
ATOM      1  O   PRO A   2     -37.123  23.970   4.161  0.00  0.00    -0.273 OA
ATOM      2  N   UNK A   3     -35.772  25.530   3.113  0.00  0.00    -0.268 N 
ATOM      3  C   UNK A   3     -34.639  25.411   4.025  0.00  0.00    +0.202 C 
ATOM      4  C   UNK A   3     -33.480  26.049   3.264  0.00  0.00    +0.141 C 
ATOM      5  C   UNK A   3     -35.474  26.456   2.020  0.00  0.00    +0.097 C 
ATOM      6  C   UNK A   3     -34.165  27.122   2.418  0.00  0.00    +0.053 C 
ATOM      7  C   PRO A   2     -36.906  24.740   3.225  0.00  0.00    +0.244 C 
ENDROOT
BRANCH   7  10
ATOM      8  O   GLY A   1     -36.907  22.446   0.957  0.00  0.00    -0.277 OA
ATOM      9  N   PRO A   2     -38.609  23.611   2.008  0.00  0.00    -0.275 N 
ATOM     10  CA  PRO A   2     -37.902  24.880   2.113  0.00  0.00    +0.152 C 
ATOM     11  CB  PRO A   2     -38.984  25.900   2.449  0.00  0.00    +0.031 C 
ATOM     12  CG  PRO A   2     -40.025  25.078   3.205  0.00  0.00    +0.024 C 
ATOM     13  CD  PRO A   2     -39.976  23.727   2.508  0.00  0.00    +0.094 C 
ATOM     14  C   GLY A   1     -38.069  22.508   1.365  0.00  0.00    +0.204 C 
BRANCH  14  15
ATOM     15  CA  GLY A   1     -39.001  21.335   1.192  0.00  0.00    +0.001 C 
BRANCH  15  16
ATOM     16  N   GLY A   1     -38.195  20.251   0.676  0.00  0.00    +0.386 N 
ATOM     17  H1  GLY A   1     -38.486  20.034  -0.277  0.00  0.00    -0.089 HD
ATOM     18  H2  GLY A   1     -38.317  19.427   1.265  0.00  0.00    -0.089 HD
ATOM     19  H3  GLY A   1     -37.212  20.526   0.677  0.00  0.00    -0.089 HD
ENDBRANCH  15  16
ENDBRANCH  14  15
ENDBRANCH   7  10
BRANCH   4  20
ATOM     20  O   UNK A   3     -32.496  26.596   4.118  0.00  0.00    -0.382 OA
ATOM     21  H   UNK A   3     -31.735  26.883   3.591  0.00  0.00    +0.210 HD
ENDBRANCH   4  20
BRANCH   3  23
ATOM     22  O   UNK A   3     -34.292  26.349   6.229  0.00  0.00    -0.248 OA
ATOM     23  C   UNK A   3     -35.024  26.160   5.268  0.00  0.00    +0.335 C 
BRANCH  23  24
ATOM     24  O   UNK A   3     -36.302  26.604   5.184  0.00  0.00    -0.479 OA
ATOM     25  H   UNK A   3     -36.479  27.463   4.857  0.00  0.00    +0.295 HD
ENDBRANCH  23  24
ENDBRANCH   3  23
TORSDOF 6
ENDMDL
MODEL 7
REMARK VINA RESULT:      -4.6      2.985      4.820
REMARK  Name = 21252274
REMARK  6 active torsions:
REMARK  status: ('A' for Active; 'I' for Inactive)
REMARK    1  A    between atoms: C_3  and  C_23
REMARK    2  A    between atoms: C_4  and  O_20
REMARK    3  A    between atoms: C_7  and  CA_10
REMARK    4  A    between atoms: C_14  and  CA_15
REMARK    5  A    between atoms: CA_15  and  N_16
REMARK    6  A    between atoms: C_23  and  O_24
REMARK                            x       y       z     vdW  Elec       q    Type
REMARK                         _______ _______ _______ _____ _____    ______ ____
ROOT
ATOM      1  O   PRO A   2     -35.301  25.647   2.462  0.00  0.00    -0.273 OA
ATOM      2  N   UNK A   3     -37.606  25.809   2.348  0.00  0.00    -0.268 N 
ATOM      3  C   UNK A   3     -37.685  26.085   0.917  0.00  0.00    +0.202 C 
ATOM      4  C   UNK A   3     -39.144  25.807   0.564  0.00  0.00    +0.141 C 
ATOM      5  C   UNK A   3     -38.941  25.702   2.938  0.00  0.00    +0.097 C 
ATOM      6  C   UNK A   3     -39.890  26.173   1.846  0.00  0.00    +0.053 C 
ATOM      7  C   PRO A   2     -36.407  25.546   2.992  0.00  0.00    +0.244 C 
ENDROOT
BRANCH   7  10
ATOM      8  O   GLY A   1     -37.083  22.444   3.563  0.00  0.00    -0.277 OA
ATOM      9  N   PRO A   2     -35.674  23.957   4.602  0.00  0.00    -0.275 N 
ATOM     10  CA  PRO A   2     -36.525  25.125   4.427  0.00  0.00    +0.152 C 
ATOM     11  CB  PRO A   2     -35.945  26.172   5.372  0.00  0.00    +0.031 C 
ATOM     12  CG  PRO A   2     -34.464  25.807   5.441  0.00  0.00    +0.024 C 
ATOM     13  CD  PRO A   2     -34.476  24.287   5.370  0.00  0.00    +0.094 C 
ATOM     14  C   GLY A   1     -36.064  22.685   4.213  0.00  0.00    +0.204 C 
BRANCH  14  15
ATOM     15  CA  GLY A   1     -35.142  21.566   4.627  0.00  0.00    +0.001 C 
BRANCH  15  16
ATOM     16  N   GLY A   1     -35.566  21.160   5.949  0.00  0.00    +0.386 N 
ATOM     17  H1  GLY A   1     -35.120  20.276   6.192  0.00  0.00    -0.089 HD
ATOM     18  H2  GLY A   1     -36.579  21.046   5.962  0.00  0.00    -0.089 HD
ATOM     19  H3  GLY A   1     -35.296  21.874   6.627  0.00  0.00    -0.089 HD
ENDBRANCH  15  16
ENDBRANCH  14  15
ENDBRANCH   7  10
BRANCH   4  20
ATOM     20  O   UNK A   3     -39.594  26.559  -0.544  0.00  0.00    -0.382 OA
ATOM     21  H   UNK A   3     -40.562  26.612  -0.526  0.00  0.00    +0.210 HD
ENDBRANCH   4  20
BRANCH   3  23
ATOM     22  O   UNK A   3     -37.317  28.139  -0.308  0.00  0.00    -0.248 OA
ATOM     23  C   UNK A   3     -37.292  27.524   0.748  0.00  0.00    +0.335 C 
BRANCH  23  24
ATOM     24  O   UNK A   3     -36.902  28.056   1.931  0.00  0.00    -0.479 OA
ATOM     25  H   UNK A   3     -37.541  28.400   2.524  0.00  0.00    +0.295 HD
ENDBRANCH  23  24
ENDBRANCH   3  23
TORSDOF 6
ENDMDL
MODEL 8
REMARK VINA RESULT:      -4.5      2.622      3.518
REMARK  Name = 21252274
REMARK  6 active torsions:
REMARK  status: ('A' for Active; 'I' for Inactive)
REMARK    1  A    between atoms: C_3  and  C_23
REMARK    2  A    between atoms: C_4  and  O_20
REMARK    3  A    between atoms: C_7  and  CA_10
REMARK    4  A    between atoms: C_14  and  CA_15
REMARK    5  A    between atoms: CA_15  and  N_16
REMARK    6  A    between atoms: C_23  and  O_24
REMARK                            x       y       z     vdW  Elec       q    Type
REMARK                         _______ _______ _______ _____ _____    ______ ____
ROOT
ATOM      1  O   PRO A   2     -35.159  23.228   2.132  0.00  0.00    -0.273 OA
ATOM      2  N   UNK A   3     -37.440  23.536   2.379  0.00  0.00    -0.268 N 
ATOM      3  C   UNK A   3     -37.376  24.933   2.797  0.00  0.00    +0.202 C 
ATOM      4  C   UNK A   3     -38.801  25.445   2.602  0.00  0.00    +0.141 C 
ATOM      5  C   UNK A   3     -38.826  23.085   2.257  0.00  0.00    +0.097 C 
ATOM      6  C   UNK A   3     -39.656  24.206   2.863  0.00  0.00    +0.053 C 
ATOM      7  C   PRO A   2     -36.313  22.814   2.015  0.00  0.00    +0.244 C 
ENDROOT
BRANCH   7  10
ATOM      8  O   GLY A   1     -37.317  22.639  -1.045  0.00  0.00    -0.277 OA
ATOM      9  N   PRO A   2     -35.853  21.350   0.199  0.00  0.00    -0.275 N 
ATOM     10  CA  PRO A   2     -36.575  21.446   1.460  0.00  0.00    +0.152 C 
ATOM     11  CB  PRO A   2     -35.971  20.355   2.338  0.00  0.00    +0.031 C 
ATOM     12  CG  PRO A   2     -34.541  20.233   1.819  0.00  0.00    +0.024 C 
ATOM     13  CD  PRO A   2     -34.689  20.475   0.325  0.00  0.00    +0.094 C 
ATOM     14  C   GLY A   1     -36.331  21.903  -0.978  0.00  0.00    +0.204 C 
BRANCH  14  15
ATOM     15  CA  GLY A   1     -35.551  21.559  -2.222  0.00  0.00    +0.001 C 
BRANCH  15  16
ATOM     16  N   GLY A   1     -36.379  20.647  -2.980  0.00  0.00    +0.386 N 
ATOM     17  H1  GLY A   1     -35.855  20.301  -3.784  0.00  0.00    -0.089 HD
ATOM     18  H2  GLY A   1     -37.215  21.134  -3.302  0.00  0.00    -0.089 HD
ATOM     19  H3  GLY A   1     -36.649  19.861  -2.388  0.00  0.00    -0.089 HD
ENDBRANCH  15  16
ENDBRANCH  14  15
ENDBRANCH   7  10
BRANCH   4  20
ATOM     20  O   UNK A   3     -39.127  26.508   3.473  0.00  0.00    -0.382 OA
ATOM     21  H   UNK A   3     -39.519  27.234   2.963  0.00  0.00    +0.210 HD
ENDBRANCH   4  20
BRANCH   3  23
ATOM     22  O   UNK A   3     -36.780  23.913   4.908  0.00  0.00    -0.248 OA
ATOM     23  C   UNK A   3     -36.936  24.920   4.232  0.00  0.00    +0.335 C 
BRANCH  23  24
ATOM     24  O   UNK A   3     -36.735  26.181   4.683  0.00  0.00    -0.479 OA
ATOM     25  H   UNK A   3     -36.204  26.776   4.191  0.00  0.00    +0.295 HD
ENDBRANCH  23  24
ENDBRANCH   3  23
TORSDOF 6
ENDMDL
MODEL 9
REMARK VINA RESULT:      -4.5      2.644      5.985
REMARK  Name = 21252274
REMARK  6 active torsions:
REMARK  status: ('A' for Active; 'I' for Inactive)
REMARK    1  A    between atoms: C_3  and  C_23
REMARK    2  A    between atoms: C_4  and  O_20
REMARK    3  A    between atoms: C_7  and  CA_10
REMARK    4  A    between atoms: C_14  and  CA_15
REMARK    5  A    between atoms: CA_15  and  N_16
REMARK    6  A    between atoms: C_23  and  O_24
REMARK                            x       y       z     vdW  Elec       q    Type
REMARK                         _______ _______ _______ _____ _____    ______ ____
ROOT
ATOM      1  O   PRO A   2     -35.141  24.737   1.318  0.00  0.00    -0.273 OA
ATOM      2  N   UNK A   3     -35.210  24.605   3.627  0.00  0.00    -0.268 N 
ATOM      3  C   UNK A   3     -35.488  23.175   3.706  0.00  0.00    +0.202 C 
ATOM      4  C   UNK A   3     -35.153  22.809   5.149  0.00  0.00    +0.141 C 
ATOM      5  C   UNK A   3     -35.046  25.185   4.961  0.00  0.00    +0.097 C 
ATOM      6  C   UNK A   3     -35.482  24.087   5.919  0.00  0.00    +0.053 C 
ATOM      7  C   PRO A   2     -34.992  25.258   2.423  0.00  0.00    +0.244 C 
ENDROOT
BRANCH   7  10
ATOM      8  O   GLY A   1     -31.831  25.822   2.726  0.00  0.00    -0.277 OA
ATOM      9  N   PRO A   2     -33.509  26.899   1.551  0.00  0.00    -0.275 N 
ATOM     10  CA  PRO A   2     -34.562  26.690   2.535  0.00  0.00    +0.152 C 
ATOM     11  CB  PRO A   2     -35.674  27.649   2.122  0.00  0.00    +0.031 C 
ATOM     12  CG  PRO A   2     -35.496  27.769   0.610  0.00  0.00    +0.024 C 
ATOM     13  CD  PRO A   2     -33.987  27.705   0.430  0.00  0.00    +0.094 C 
ATOM     14  C   GLY A   1     -32.198  26.504   1.767  0.00  0.00    +0.204 C 
BRANCH  14  15
ATOM     15  CA  GLY A   1     -31.203  26.954   0.726  0.00  0.00    +0.001 C 
BRANCH  15  16
ATOM     16  N   GLY A   1     -30.424  25.786   0.380  0.00  0.00    +0.386 N 
ATOM     17  H1  GLY A   1     -30.984  24.947   0.530  0.00  0.00    -0.089 HD
ATOM     18  H2  GLY A   1     -29.589  25.747   0.965  0.00  0.00    -0.089 HD
ATOM     19  H3  GLY A   1     -30.148  25.840  -0.601  0.00  0.00    -0.089 HD
ENDBRANCH  15  16
ENDBRANCH  14  15
ENDBRANCH   7  10
BRANCH   4  20
ATOM     20  O   UNK A   3     -35.890  21.701   5.621  0.00  0.00    -0.382 OA
ATOM     21  H   UNK A   3     -36.559  22.004   6.254  0.00  0.00    +0.210 HD
ENDBRANCH   4  20
BRANCH   3  23
ATOM     22  O   UNK A   3     -37.795  23.879   3.514  0.00  0.00    -0.248 OA
ATOM     23  C   UNK A   3     -36.943  23.014   3.370  0.00  0.00    +0.335 C 
BRANCH  23  24
ATOM     24  O   UNK A   3     -37.188  21.774   2.882  0.00  0.00    -0.479 OA
ATOM     25  H   UNK A   3     -36.987  21.573   1.990  0.00  0.00    +0.295 HD
ENDBRANCH  23  24
ENDBRANCH   3  23
TORSDOF 6
ENDMDL
