MODEL 1
REMARK VINA RESULT:      -6.7      0.000      0.000
REMARK  Name = 195325
REMARK  6 active torsions:
REMARK  status: ('A' for Active; 'I' for Inactive)
REMARK    1  A    between atoms: C_1  and  C_4
REMARK    2  A    between atoms: C_1  and  N_15
REMARK    3  A    between atoms: C_1  and  C_26
REMARK    4  A    between atoms: C_5  and  C_11
REMARK    5  A    between atoms: C_16  and  C_20
REMARK    6  A    between atoms: C_26  and  C_29
REMARK                            x       y       z     vdW  Elec       q    Type
REMARK                         _______ _______ _______ _____ _____    ______ ____
ROOT
ATOM      1  C   UNL     1     -35.343  20.384   1.991  0.00  0.00    +0.155 C 
ENDROOT
BRANCH   1   4
ATOM      2  O   UNL     1     -34.320  21.935   0.503  0.00  0.00    -0.273 OA
ATOM      3  N   UNL     1     -33.261  19.899   0.797  0.00  0.00    -0.272 N 
ATOM      4  C   UNL     1     -34.267  20.824   1.031  0.00  0.00    +0.244 C 
ATOM      5  C   UNL     1     -32.065  20.220   0.028  0.00  0.00    +0.152 C 
ATOM      6  C   UNL     1     -33.158  18.574   1.401  0.00  0.00    +0.094 C 
ATOM      7  C   UNL     1     -31.061  19.137   0.402  0.00  0.00    +0.031 C 
ATOM      8  C   UNL     1     -31.942  17.937   0.743  0.00  0.00    +0.024 C 
BRANCH   5  11
ATOM      9  O   UNL     1     -32.615  19.083  -2.003  0.00  0.00    -0.274 OA
ATOM     10  N   UNL     1     -32.553  21.383  -2.024  0.00  0.00    -0.327 N 
ATOM     11  C   UNL     1     -32.442  20.152  -1.421  0.00  0.00    +0.237 C 
ATOM     12  H   UNL     1     -32.797  21.446  -2.975  0.00  0.00    +0.145 HD
ATOM     13  H   UNL     1     -32.388  22.202  -1.504  0.00  0.00    +0.145 HD
ENDBRANCH   5  11
ENDBRANCH   1   4
BRANCH   1  15
ATOM     14  O   UNL     1     -35.093  20.657   4.876  0.00  0.00    -0.273 OA
ATOM     15  N   UNL     1     -35.583  21.556   2.783  0.00  0.00    -0.297 N 
ATOM     16  C   UNL     1     -35.437  21.593   4.162  0.00  0.00    +0.239 C 
ATOM     17  H   UNL     1     -35.867  22.379   2.322  0.00  0.00    +0.150 HD
BRANCH  16  20
ATOM     18  O   UNL     1     -37.383  25.807   3.591  0.00  0.00    -0.275 OA
ATOM     19  N   UNL     1     -36.862  23.615   4.244  0.00  0.00    -0.300 N 
ATOM     20  C   UNL     1     -35.738  22.918   4.780  0.00  0.00    +0.126 C 
ATOM     21  C   UNL     1     -34.627  23.917   4.936  0.00  0.00    +0.036 C 
ATOM     22  C   UNL     1     -35.177  23.207   6.143  0.00  0.00    +0.029 C 
ATOM     23  C   UNL     1     -35.173  25.242   4.474  0.00  0.00    +0.087 C 
ATOM     24  C   UNL     1     -36.611  24.971   4.036  0.00  0.00    +0.223 C 
ATOM     25  H   UNL     1     -37.723  23.184   4.042  0.00  0.00    +0.150 HD
ENDBRANCH  16  20
ENDBRANCH   1  15
BRANCH   1  26
ATOM     26  C   UNL     1     -36.571  19.909   1.226  0.00  0.00    +0.071 C 
BRANCH  26  29
ATOM     27  N   UNL     1     -38.677  20.933   2.175  0.00  0.00    -0.319 N 
ATOM     28  N   UNL     1     -39.085  22.670   0.853  0.00  0.00    -0.315 N 
ATOM     29  C   UNL     1     -37.676  20.938   1.243  0.00  0.00    +0.040 C 
ATOM     30  C   UNL     1     -37.951  22.019   0.439  0.00  0.00    +0.069 C 
ATOM     31  C   UNL     1     -39.498  21.991   1.900  0.00  0.00    +0.182 C 
ATOM     32  H   UNL     1     -38.786  20.286   2.909  0.00  0.00    +0.148 HD
ATOM     33  H   UNL     1     -39.499  23.469   0.455  0.00  0.00    +0.148 HD
ENDBRANCH  26  29
ENDBRANCH   1  26
TORSDOF 6
ENDMDL
MODEL 2
REMARK VINA RESULT:      -6.6      1.675      2.040
REMARK  Name = 195325
REMARK  6 active torsions:
REMARK  status: ('A' for Active; 'I' for Inactive)
REMARK    1  A    between atoms: C_1  and  C_4
REMARK    2  A    between atoms: C_1  and  N_15
REMARK    3  A    between atoms: C_1  and  C_26
REMARK    4  A    between atoms: C_5  and  C_11
REMARK    5  A    between atoms: C_16  and  C_20
REMARK    6  A    between atoms: C_26  and  C_29
REMARK                            x       y       z     vdW  Elec       q    Type
REMARK                         _______ _______ _______ _____ _____    ______ ____
ROOT
ATOM      1  C   UNL     1     -36.151  20.613   1.692  0.00  0.00    +0.155 C 
ENDROOT
BRANCH   1   4
ATOM      2  O   UNL     1     -35.161  22.252   0.278  0.00  0.00    -0.273 OA
ATOM      3  N   UNL     1     -33.956  20.312   0.649  0.00  0.00    -0.272 N 
ATOM      4  C   UNL     1     -35.050  21.147   0.810  0.00  0.00    +0.244 C 
ATOM      5  C   UNL     1     -32.741  20.736  -0.035  0.00  0.00    +0.152 C 
ATOM      6  C   UNL     1     -33.784  18.996   1.260  0.00  0.00    +0.094 C 
ATOM      7  C   UNL     1     -31.677  19.740   0.411  0.00  0.00    +0.031 C 
ATOM      8  C   UNL     1     -32.476  18.468   0.690  0.00  0.00    +0.024 C 
BRANCH   5  11
ATOM      9  O   UNL     1     -33.073  19.566  -2.093  0.00  0.00    -0.274 OA
ATOM     10  N   UNL     1     -33.149  21.865  -2.122  0.00  0.00    -0.327 N 
ATOM     11  C   UNL     1     -33.008  20.644  -1.507  0.00  0.00    +0.237 C 
ATOM     12  H   UNL     1     -33.327  21.912  -3.089  0.00  0.00    +0.145 HD
ATOM     13  H   UNL     1     -33.072  22.693  -1.596  0.00  0.00    +0.145 HD
ENDBRANCH   5  11
ENDBRANCH   1   4
BRANCH   1  15
ATOM     14  O   UNL     1     -34.883  20.524   4.308  0.00  0.00    -0.273 OA
ATOM     15  N   UNL     1     -36.240  21.587   2.741  0.00  0.00    -0.297 N 
ATOM     16  C   UNL     1     -35.597  21.459   3.963  0.00  0.00    +0.239 C 
ATOM     17  H   UNL     1     -36.789  22.391   2.585  0.00  0.00    +0.150 HD
BRANCH  16  20
ATOM     18  O   UNL     1     -36.816  25.950   4.429  0.00  0.00    -0.275 OA
ATOM     19  N   UNL     1     -36.727  23.606   4.452  0.00  0.00    -0.300 N 
ATOM     20  C   UNL     1     -35.828  22.594   4.905  0.00  0.00    +0.126 C 
ATOM     21  C   UNL     1     -34.643  23.289   5.512  0.00  0.00    +0.036 C 
ATOM     22  C   UNL     1     -35.501  22.387   6.356  0.00  0.00    +0.029 C 
ATOM     23  C   UNL     1     -34.909  24.767   5.401  0.00  0.00    +0.087 C 
ATOM     24  C   UNL     1     -36.262  24.897   4.704  0.00  0.00    +0.223 C 
ATOM     25  H   UNL     1     -37.584  23.413   4.010  0.00  0.00    +0.150 HD
ENDBRANCH  16  20
ENDBRANCH   1  15
BRANCH   1  26
ATOM     26  C   UNL     1     -37.440  20.463   0.895  0.00  0.00    +0.071 C 
BRANCH  26  29
ATOM     27  N   UNL     1     -37.215  17.984   0.466  0.00  0.00    -0.319 N 
ATOM     28  N   UNL     1     -37.430  17.786  -1.735  0.00  0.00    -0.315 N 
ATOM     29  C   UNL     1     -37.405  19.252  -0.007  0.00  0.00    +0.040 C 
ATOM     30  C   UNL     1     -37.534  19.104  -1.367  0.00  0.00    +0.069 C 
ATOM     31  C   UNL     1     -37.237  17.138  -0.608  0.00  0.00    +0.182 C 
ATOM     32  H   UNL     1     -37.086  17.726   1.408  0.00  0.00    +0.148 HD
ATOM     33  H   UNL     1     -37.485  17.409  -2.642  0.00  0.00    +0.148 HD
ENDBRANCH  26  29
ENDBRANCH   1  26
TORSDOF 6
ENDMDL
MODEL 3
REMARK VINA RESULT:      -6.2      1.634      6.372
REMARK  Name = 195325
REMARK  6 active torsions:
REMARK  status: ('A' for Active; 'I' for Inactive)
REMARK    1  A    between atoms: C_1  and  C_4
REMARK    2  A    between atoms: C_1  and  N_15
REMARK    3  A    between atoms: C_1  and  C_26
REMARK    4  A    between atoms: C_5  and  C_11
REMARK    5  A    between atoms: C_16  and  C_20
REMARK    6  A    between atoms: C_26  and  C_29
REMARK                            x       y       z     vdW  Elec       q    Type
REMARK                         _______ _______ _______ _____ _____    ______ ____
ROOT
ATOM      1  C   UNL     1     -35.528  21.070   1.061  0.00  0.00    +0.155 C 
ENDROOT
BRANCH   1   4
ATOM      2  O   UNL     1     -35.338  20.675   3.401  0.00  0.00    -0.273 OA
ATOM      3  N   UNL     1     -35.186  22.871   2.685  0.00  0.00    -0.272 N 
ATOM      4  C   UNL     1     -35.339  21.507   2.492  0.00  0.00    +0.244 C 
ATOM      5  C   UNL     1     -34.833  23.444   3.978  0.00  0.00    +0.152 C 
ATOM      6  C   UNL     1     -35.181  23.889   1.639  0.00  0.00    +0.094 C 
ATOM      7  C   UNL     1     -34.322  24.843   3.656  0.00  0.00    +0.031 C 
ATOM      8  C   UNL     1     -35.080  25.213   2.383  0.00  0.00    +0.024 C 
BRANCH   5  11
ATOM      9  O   UNL     1     -36.952  24.340   4.629  0.00  0.00    -0.274 OA
ATOM     10  N   UNL     1     -36.156  22.498   5.755  0.00  0.00    -0.327 N 
ATOM     11  C   UNL     1     -36.086  23.484   4.800  0.00  0.00    +0.237 C 
ATOM     12  H   UNL     1     -36.940  22.440   6.347  0.00  0.00    +0.145 HD
ATOM     13  H   UNL     1     -35.420  21.852   5.849  0.00  0.00    +0.145 HD
ENDBRANCH   5  11
ENDBRANCH   1   4
BRANCH   1  15
ATOM     14  O   UNL     1     -34.503  20.226  -1.527  0.00  0.00    -0.273 OA
ATOM     15  N   UNL     1     -34.366  20.271   0.799  0.00  0.00    -0.297 N 
ATOM     16  C   UNL     1     -33.952  19.916  -0.476  0.00  0.00    +0.239 C 
ATOM     17  H   UNL     1     -33.834  19.958   1.567  0.00  0.00    +0.150 HD
BRANCH  16  20
ATOM     18  O   UNL     1     -32.070  15.699   0.264  0.00  0.00    -0.275 OA
ATOM     19  N   UNL     1     -32.913  17.678  -0.671  0.00  0.00    -0.300 N 
ATOM     20  C   UNL     1     -32.714  19.083  -0.513  0.00  0.00    +0.126 C 
ATOM     21  C   UNL     1     -31.679  19.269   0.560  0.00  0.00    +0.036 C 
ATOM     22  C   UNL     1     -31.413  19.761  -0.836  0.00  0.00    +0.029 C 
ATOM     23  C   UNL     1     -31.275  17.889   1.008  0.00  0.00    +0.087 C 
ATOM     24  C   UNL     1     -32.113  16.917   0.181  0.00  0.00    +0.223 C 
ATOM     25  H   UNL     1     -33.548  17.288  -1.314  0.00  0.00    +0.150 HD
ENDBRANCH  16  20
ENDBRANCH   1  15
BRANCH   1  26
ATOM     26  C   UNL     1     -36.836  20.304   0.911  0.00  0.00    +0.071 C 
BRANCH  26  29
ATOM     27  N   UNL     1     -38.799  21.194   2.228  0.00  0.00    -0.319 N 
ATOM     28  N   UNL     1     -39.714  22.711   0.891  0.00  0.00    -0.315 N 
ATOM     29  C   UNL     1     -38.037  21.201   1.094  0.00  0.00    +0.040 C 
ATOM     30  C   UNL     1     -38.622  22.145   0.284  0.00  0.00    +0.069 C 
ATOM     31  C   UNL     1     -39.794  22.116   2.060  0.00  0.00    +0.182 C 
ATOM     32  H   UNL     1     -38.657  20.628   3.022  0.00  0.00    +0.148 HD
ATOM     33  H   UNL     1     -40.307  23.409   0.531  0.00  0.00    +0.148 HD
ENDBRANCH  26  29
ENDBRANCH   1  26
TORSDOF 6
ENDMDL
MODEL 4
REMARK VINA RESULT:      -6.1      6.033      8.964
REMARK  Name = 195325
REMARK  6 active torsions:
REMARK  status: ('A' for Active; 'I' for Inactive)
REMARK    1  A    between atoms: C_1  and  C_4
REMARK    2  A    between atoms: C_1  and  N_15
REMARK    3  A    between atoms: C_1  and  C_26
REMARK    4  A    between atoms: C_5  and  C_11
REMARK    5  A    between atoms: C_16  and  C_20
REMARK    6  A    between atoms: C_26  and  C_29
REMARK                            x       y       z     vdW  Elec       q    Type
REMARK                         _______ _______ _______ _____ _____    ______ ____
ROOT
ATOM      1  C   UNL     1     -32.332  28.956   4.291  0.00  0.00    +0.155 C 
ENDROOT
BRANCH   1   4
ATOM      2  O   UNL     1     -32.017  28.945   6.651  0.00  0.00    -0.273 OA
ATOM      3  N   UNL     1     -30.168  28.485   5.337  0.00  0.00    -0.272 N 
ATOM      4  C   UNL     1     -31.504  28.794   5.541  0.00  0.00    +0.244 C 
ATOM      5  C   UNL     1     -29.269  28.137   6.430  0.00  0.00    +0.152 C 
ATOM      6  C   UNL     1     -29.520  28.297   4.042  0.00  0.00    +0.094 C 
ATOM      7  C   UNL     1     -28.092  27.441   5.757  0.00  0.00    +0.031 C 
ATOM      8  C   UNL     1     -28.050  28.076   4.369  0.00  0.00    +0.024 C 
BRANCH   5  11
ATOM      9  O   UNL     1     -28.591  30.430   6.439  0.00  0.00    -0.274 OA
ATOM     10  N   UNL     1     -28.788  29.344   8.458  0.00  0.00    -0.327 N 
ATOM     11  C   UNL     1     -28.856  29.419   7.087  0.00  0.00    +0.237 C 
ATOM     12  H   UNL     1     -28.525  30.134   8.983  0.00  0.00    +0.145 HD
ATOM     13  H   UNL     1     -29.000  28.499   8.915  0.00  0.00    +0.145 HD
ENDBRANCH   5  11
ENDBRANCH   1   4
BRANCH   1  15
ATOM     14  O   UNL     1     -32.243  26.320   3.064  0.00  0.00    -0.273 OA
ATOM     15  N   UNL     1     -33.306  27.908   4.397  0.00  0.00    -0.297 N 
ATOM     16  C   UNL     1     -33.178  26.676   3.773  0.00  0.00    +0.239 C 
ATOM     17  H   UNL     1     -34.109  28.073   4.944  0.00  0.00    +0.150 HD
BRANCH  16  20
ATOM     18  O   UNL     1     -37.778  25.925   3.384  0.00  0.00    -0.275 OA
ATOM     19  N   UNL     1     -35.442  25.882   3.167  0.00  0.00    -0.300 N 
ATOM     20  C   UNL     1     -34.310  25.736   4.023  0.00  0.00    +0.126 C 
ATOM     21  C   UNL     1     -34.828  25.579   5.425  0.00  0.00    +0.036 C 
ATOM     22  C   UNL     1     -34.028  24.475   4.789  0.00  0.00    +0.029 C 
ATOM     23  C   UNL     1     -36.331  25.626   5.334  0.00  0.00    +0.087 C 
ATOM     24  C   UNL     1     -36.654  25.830   3.855  0.00  0.00    +0.223 C 
ATOM     25  H   UNL     1     -35.375  26.006   2.193  0.00  0.00    +0.150 HD
ENDBRANCH  16  20
ENDBRANCH   1  15
BRANCH   1  26
ATOM     26  C   UNL     1     -32.945  30.349   4.240  0.00  0.00    +0.071 C 
BRANCH  26  29
ATOM     27  N   UNL     1     -35.303  30.696   3.405  0.00  0.00    -0.319 N 
ATOM     28  N   UNL     1     -35.128  30.561   1.196  0.00  0.00    -0.315 N 
ATOM     29  C   UNL     1     -33.981  30.467   3.148  0.00  0.00    +0.040 C 
ATOM     30  C   UNL     1     -33.898  30.387   1.778  0.00  0.00    +0.069 C 
ATOM     31  C   UNL     1     -35.953  30.745   2.203  0.00  0.00    +0.182 C 
ATOM     32  H   UNL     1     -35.714  30.807   4.293  0.00  0.00    +0.148 HD
ATOM     33  H   UNL     1     -35.345  30.551   0.236  0.00  0.00    +0.148 HD
ENDBRANCH  26  29
ENDBRANCH   1  26
TORSDOF 6
ENDMDL
MODEL 5
REMARK VINA RESULT:      -6.0      2.308      6.343
REMARK  Name = 195325
REMARK  6 active torsions:
REMARK  status: ('A' for Active; 'I' for Inactive)
REMARK    1  A    between atoms: C_1  and  C_4
REMARK    2  A    between atoms: C_1  and  N_15
REMARK    3  A    between atoms: C_1  and  C_26
REMARK    4  A    between atoms: C_5  and  C_11
REMARK    5  A    between atoms: C_16  and  C_20
REMARK    6  A    between atoms: C_26  and  C_29
REMARK                            x       y       z     vdW  Elec       q    Type
REMARK                         _______ _______ _______ _____ _____    ______ ____
ROOT
ATOM      1  C   UNL     1     -37.065  22.734   2.210  0.00  0.00    +0.155 C 
ENDROOT
BRANCH   1   4
ATOM      2  O   UNL     1     -36.329  22.699   4.473  0.00  0.00    -0.273 OA
ATOM      3  N   UNL     1     -35.410  24.310   3.089  0.00  0.00    -0.272 N 
ATOM      4  C   UNL     1     -36.238  23.233   3.367  0.00  0.00    +0.244 C 
ATOM      5  C   UNL     1     -34.430  24.812   4.044  0.00  0.00    +0.152 C 
ATOM      6  C   UNL     1     -35.271  24.972   1.795  0.00  0.00    +0.094 C 
ATOM      7  C   UNL     1     -33.461  25.638   3.207  0.00  0.00    +0.031 C 
ATOM      8  C   UNL     1     -34.326  26.137   2.052  0.00  0.00    +0.024 C 
BRANCH   5  11
ATOM      9  O   UNL     1     -36.384  25.844   4.956  0.00  0.00    -0.274 OA
ATOM     10  N   UNL     1     -34.369  26.207   6.006  0.00  0.00    -0.327 N 
ATOM     11  C   UNL     1     -35.172  25.658   5.035  0.00  0.00    +0.237 C 
ATOM     12  H   UNL     1     -34.762  26.779   6.704  0.00  0.00    +0.145 HD
ATOM     13  H   UNL     1     -33.402  26.029   6.003  0.00  0.00    +0.145 HD
ENDBRANCH   5  11
ENDBRANCH   1   4
BRANCH   1  15
ATOM     14  O   UNL     1     -35.118  21.932   0.203  0.00  0.00    -0.273 OA
ATOM     15  N   UNL     1     -36.545  21.418   1.971  0.00  0.00    -0.297 N 
ATOM     16  C   UNL     1     -35.614  21.129   0.985  0.00  0.00    +0.239 C 
ATOM     17  H   UNL     1     -36.868  20.680   2.539  0.00  0.00    +0.150 HD
BRANCH  16  20
ATOM     18  O   UNL     1     -32.241  17.983   1.765  0.00  0.00    -0.275 OA
ATOM     19  N   UNL     1     -34.190  19.287   1.827  0.00  0.00    -0.300 N 
ATOM     20  C   UNL     1     -35.212  19.693   0.917  0.00  0.00    +0.126 C 
ATOM     21  C   UNL     1     -34.883  19.092  -0.420  0.00  0.00    +0.036 C 
ATOM     22  C   UNL     1     -36.163  18.721   0.278  0.00  0.00    +0.029 C 
ATOM     23  C   UNL     1     -33.617  18.299  -0.233  0.00  0.00    +0.087 C 
ATOM     24  C   UNL     1     -33.224  18.475   1.232  0.00  0.00    +0.223 C 
ATOM     25  H   UNL     1     -34.170  19.552   2.774  0.00  0.00    +0.150 HD
ENDBRANCH  16  20
ENDBRANCH   1  15
BRANCH   1  26
ATOM     26  C   UNL     1     -38.544  22.743   2.574  0.00  0.00    +0.071 C 
BRANCH  26  29
ATOM     27  N   UNL     1     -39.622  24.775   3.617  0.00  0.00    -0.319 N 
ATOM     28  N   UNL     1     -39.887  26.186   1.923  0.00  0.00    -0.315 N 
ATOM     29  C   UNL     1     -39.127  24.135   2.516  0.00  0.00    +0.040 C 
ATOM     30  C   UNL     1     -39.303  25.025   1.484  0.00  0.00    +0.069 C 
ATOM     31  C   UNL     1     -40.067  26.003   3.213  0.00  0.00    +0.182 C 
ATOM     32  H   UNL     1     -39.652  24.418   4.535  0.00  0.00    +0.148 HD
ATOM     33  H   UNL     1     -40.121  26.980   1.392  0.00  0.00    +0.148 HD
ENDBRANCH  26  29
ENDBRANCH   1  26
TORSDOF 6
ENDMDL
MODEL 6
REMARK VINA RESULT:      -5.9      2.349      3.094
REMARK  Name = 195325
REMARK  6 active torsions:
REMARK  status: ('A' for Active; 'I' for Inactive)
REMARK    1  A    between atoms: C_1  and  C_4
REMARK    2  A    between atoms: C_1  and  N_15
REMARK    3  A    between atoms: C_1  and  C_26
REMARK    4  A    between atoms: C_5  and  C_11
REMARK    5  A    between atoms: C_16  and  C_20
REMARK    6  A    between atoms: C_26  and  C_29
REMARK                            x       y       z     vdW  Elec       q    Type
REMARK                         _______ _______ _______ _____ _____    ______ ____
ROOT
ATOM      1  C   UNL     1     -37.146  22.564   2.496  0.00  0.00    +0.155 C 
ENDROOT
BRANCH   1   4
ATOM      2  O   UNL     1     -36.816  23.025   0.184  0.00  0.00    -0.273 OA
ATOM      3  N   UNL     1     -35.521  21.352   1.122  0.00  0.00    -0.272 N 
ATOM      4  C   UNL     1     -36.485  22.348   1.158  0.00  0.00    +0.244 C 
ATOM      5  C   UNL     1     -34.675  21.123  -0.042  0.00  0.00    +0.152 C 
ATOM      6  C   UNL     1     -35.098  20.528   2.250  0.00  0.00    +0.094 C 
ATOM      7  C   UNL     1     -33.501  20.308   0.486  0.00  0.00    +0.031 C 
ATOM      8  C   UNL     1     -34.101  19.540   1.661  0.00  0.00    +0.024 C 
BRANCH   5  11
ATOM      9  O   UNL     1     -35.746  19.156  -0.879  0.00  0.00    -0.274 OA
ATOM     10  N   UNL     1     -35.893  21.089  -2.120  0.00  0.00    -0.327 N 
ATOM     11  C   UNL     1     -35.489  20.349  -1.034  0.00  0.00    +0.237 C 
ATOM     12  H   UNL     1     -36.433  20.670  -2.828  0.00  0.00    +0.145 HD
ATOM     13  H   UNL     1     -35.641  22.038  -2.189  0.00  0.00    +0.145 HD
ENDBRANCH   5  11
ENDBRANCH   1   4
BRANCH   1  15
ATOM     14  O   UNL     1     -36.271  23.162   5.205  0.00  0.00    -0.273 OA
ATOM     15  N   UNL     1     -36.546  23.776   2.974  0.00  0.00    -0.297 N 
ATOM     16  C   UNL     1     -36.158  23.972   4.291  0.00  0.00    +0.239 C 
ATOM     17  H   UNL     1     -36.400  24.508   2.331  0.00  0.00    +0.150 HD
BRANCH  16  20
ATOM     18  O   UNL     1     -35.279  28.261   2.647  0.00  0.00    -0.275 OA
ATOM     19  N   UNL     1     -36.093  26.401   3.822  0.00  0.00    -0.300 N 
ATOM     20  C   UNL     1     -35.553  25.309   4.564  0.00  0.00    +0.126 C 
ATOM     21  C   UNL     1     -34.057  25.449   4.538  0.00  0.00    +0.036 C 
ATOM     22  C   UNL     1     -34.795  25.494   5.848  0.00  0.00    +0.029 C 
ATOM     23  C   UNL     1     -33.757  26.696   3.750  0.00  0.00    +0.087 C 
ATOM     24  C   UNL     1     -35.111  27.252   3.314  0.00  0.00    +0.223 C 
ATOM     25  H   UNL     1     -37.057  26.540   3.683  0.00  0.00    +0.150 HD
ENDBRANCH  16  20
ENDBRANCH   1  15
BRANCH   1  26
ATOM     26  C   UNL     1     -38.657  22.662   2.329  0.00  0.00    +0.071 C 
BRANCH  26  29
ATOM     27  N   UNL     1     -39.047  24.980   1.405  0.00  0.00    -0.319 N 
ATOM     28  N   UNL     1     -39.999  26.085   3.080  0.00  0.00    -0.315 N 
ATOM     29  C   UNL     1     -39.142  24.088   2.436  0.00  0.00    +0.040 C 
ATOM     30  C   UNL     1     -39.731  24.794   3.458  0.00  0.00    +0.069 C 
ATOM     31  C   UNL     1     -39.574  26.165   1.838  0.00  0.00    +0.182 C 
ATOM     32  H   UNL     1     -38.669  24.802   0.514  0.00  0.00    +0.148 HD
ATOM     33  H   UNL     1     -40.416  26.795   3.619  0.00  0.00    +0.148 HD
ENDBRANCH  26  29
ENDBRANCH   1  26
TORSDOF 6
ENDMDL
MODEL 7
REMARK VINA RESULT:      -5.9      2.062      6.614
REMARK  Name = 195325
REMARK  6 active torsions:
REMARK  status: ('A' for Active; 'I' for Inactive)
REMARK    1  A    between atoms: C_1  and  C_4
REMARK    2  A    between atoms: C_1  and  N_15
REMARK    3  A    between atoms: C_1  and  C_26
REMARK    4  A    between atoms: C_5  and  C_11
REMARK    5  A    between atoms: C_16  and  C_20
REMARK    6  A    between atoms: C_26  and  C_29
REMARK                            x       y       z     vdW  Elec       q    Type
REMARK                         _______ _______ _______ _____ _____    ______ ____
ROOT
ATOM      1  C   UNL     1     -35.502  23.123   2.071  0.00  0.00    +0.155 C 
ENDROOT
BRANCH   1   4
ATOM      2  O   UNL     1     -36.225  24.408   0.202  0.00  0.00    -0.273 OA
ATOM      3  N   UNL     1     -37.796  23.048   1.219  0.00  0.00    -0.272 N 
ATOM      4  C   UNL     1     -36.530  23.590   1.071  0.00  0.00    +0.244 C 
ATOM      5  C   UNL     1     -38.860  23.264   0.246  0.00  0.00    +0.152 C 
ATOM      6  C   UNL     1     -38.200  22.077   2.233  0.00  0.00    +0.094 C 
ATOM      7  C   UNL     1     -39.874  22.163   0.529  0.00  0.00    +0.031 C 
ATOM      8  C   UNL     1     -39.695  21.888   2.020  0.00  0.00    +0.024 C 
BRANCH   5  11
ATOM      9  O   UNL     1     -39.445  25.120   1.636  0.00  0.00    -0.274 OA
ATOM     10  N   UNL     1     -39.937  25.242  -0.608  0.00  0.00    -0.327 N 
ATOM     11  C   UNL     1     -39.429  24.626   0.511  0.00  0.00    +0.237 C 
ATOM     12  H   UNL     1     -40.334  26.139  -0.539  0.00  0.00    +0.145 HD
ATOM     13  H   UNL     1     -39.905  24.784  -1.479  0.00  0.00    +0.145 HD
ENDBRANCH   5  11
ENDBRANCH   1   4
BRANCH   1  15
ATOM     14  O   UNL     1     -35.238  20.339   2.872  0.00  0.00    -0.273 OA
ATOM     15  N   UNL     1     -34.812  22.075   1.377  0.00  0.00    -0.297 N 
ATOM     16  C   UNL     1     -34.739  20.769   1.837  0.00  0.00    +0.239 C 
ATOM     17  H   UNL     1     -34.366  22.295   0.526  0.00  0.00    +0.150 HD
BRANCH  16  20
ATOM     18  O   UNL     1     -31.463  17.440   1.585  0.00  0.00    -0.275 OA
ATOM     19  N   UNL     1     -33.465  18.663   1.574  0.00  0.00    -0.300 N 
ATOM     20  C   UNL     1     -33.971  19.844   0.953  0.00  0.00    +0.126 C 
ATOM     21  C   UNL     1     -32.871  20.403   0.095  0.00  0.00    +0.036 C 
ATOM     22  C   UNL     1     -34.164  19.962  -0.533  0.00  0.00    +0.029 C 
ATOM     23  C   UNL     1     -31.698  19.471   0.241  0.00  0.00    +0.087 C 
ATOM     24  C   UNL     1     -32.148  18.380   1.211  0.00  0.00    +0.223 C 
ATOM     25  H   UNL     1     -33.990  18.107   2.193  0.00  0.00    +0.150 HD
ENDBRANCH  16  20
ENDBRANCH   1  15
BRANCH   1  26
ATOM     26  C   UNL     1     -34.596  24.279   2.476  0.00  0.00    +0.071 C 
BRANCH  26  29
ATOM     27  N   UNL     1     -35.534  24.600   4.799  0.00  0.00    -0.319 N 
ATOM     28  N   UNL     1     -36.093  26.748   4.873  0.00  0.00    -0.315 N 
ATOM     29  C   UNL     1     -35.209  25.114   3.575  0.00  0.00    +0.040 C 
ATOM     30  C   UNL     1     -35.564  26.440   3.645  0.00  0.00    +0.069 C 
ATOM     31  C   UNL     1     -36.061  25.618   5.544  0.00  0.00    +0.182 C 
ATOM     32  H   UNL     1     -35.411  23.668   5.092  0.00  0.00    +0.148 HD
ATOM     33  H   UNL     1     -36.424  27.621   5.183  0.00  0.00    +0.148 HD
ENDBRANCH  26  29
ENDBRANCH   1  26
TORSDOF 6
ENDMDL
MODEL 8
REMARK VINA RESULT:      -5.9      4.681      8.531
REMARK  Name = 195325
REMARK  6 active torsions:
REMARK  status: ('A' for Active; 'I' for Inactive)
REMARK    1  A    between atoms: C_1  and  C_4
REMARK    2  A    between atoms: C_1  and  N_15
REMARK    3  A    between atoms: C_1  and  C_26
REMARK    4  A    between atoms: C_5  and  C_11
REMARK    5  A    between atoms: C_16  and  C_20
REMARK    6  A    between atoms: C_26  and  C_29
REMARK                            x       y       z     vdW  Elec       q    Type
REMARK                         _______ _______ _______ _____ _____    ______ ____
ROOT
ATOM      1  C   UNL     1     -34.826  27.547   3.187  0.00  0.00    +0.155 C 
ENDROOT
BRANCH   1   4
ATOM      2  O   UNL     1     -35.822  27.300   1.039  0.00  0.00    -0.273 OA
ATOM      3  N   UNL     1     -35.664  29.447   1.888  0.00  0.00    -0.272 N 
ATOM      4  C   UNL     1     -35.487  28.073   1.937  0.00  0.00    +0.244 C 
ATOM      5  C   UNL     1     -36.427  30.101   0.833  0.00  0.00    +0.152 C 
ATOM      6  C   UNL     1     -35.283  30.398   2.929  0.00  0.00    +0.094 C 
ATOM      7  C   UNL     1     -36.761  31.478   1.392  0.00  0.00    +0.031 C 
ATOM      8  C   UNL     1     -35.602  31.766   2.344  0.00  0.00    +0.024 C 
BRANCH   5  11
ATOM      9  O   UNL     1     -34.593  30.979  -0.426  0.00  0.00    -0.274 OA
ATOM     10  N   UNL     1     -35.879  29.328  -1.382  0.00  0.00    -0.327 N 
ATOM     11  C   UNL     1     -35.534  30.189  -0.368  0.00  0.00    +0.237 C 
ATOM     12  H   UNL     1     -35.354  29.310  -2.213  0.00  0.00    +0.145 HD
ATOM     13  H   UNL     1     -36.654  28.730  -1.276  0.00  0.00    +0.145 HD
ENDBRANCH   5  11
ENDBRANCH   1   4
BRANCH   1  15
ATOM     14  O   UNL     1     -35.743  26.223   5.609  0.00  0.00    -0.273 OA
ATOM     15  N   UNL     1     -35.355  26.220   3.311  0.00  0.00    -0.297 N 
ATOM     16  C   UNL     1     -35.770  25.669   4.515  0.00  0.00    +0.239 C 
ATOM     17  H   UNL     1     -35.428  25.669   2.497  0.00  0.00    +0.150 HD
BRANCH  16  20
ATOM     18  O   UNL     1     -35.197  21.195   5.752  0.00  0.00    -0.275 OA
ATOM     19  N   UNL     1     -35.952  23.400   5.488  0.00  0.00    -0.300 N 
ATOM     20  C   UNL     1     -36.288  24.274   4.410  0.00  0.00    +0.126 C 
ATOM     21  C   UNL     1     -36.071  23.511   3.134  0.00  0.00    +0.036 C 
ATOM     22  C   UNL     1     -37.443  24.015   3.485  0.00  0.00    +0.029 C 
ATOM     23  C   UNL     1     -35.602  22.136   3.531  0.00  0.00    +0.087 C 
ATOM     24  C   UNL     1     -35.541  22.139   5.057  0.00  0.00    +0.223 C 
ATOM     25  H   UNL     1     -36.004  23.661   6.435  0.00  0.00    +0.150 HD
ENDBRANCH  16  20
ENDBRANCH   1  15
BRANCH   1  26
ATOM     26  C   UNL     1     -33.311  27.583   3.038  0.00  0.00    +0.071 C 
BRANCH  26  29
ATOM     27  N   UNL     1     -32.869  27.503   5.524  0.00  0.00    -0.319 N 
ATOM     28  N   UNL     1     -31.392  29.124   5.871  0.00  0.00    -0.315 N 
ATOM     29  C   UNL     1     -32.634  28.064   4.300  0.00  0.00    +0.040 C 
ATOM     30  C   UNL     1     -31.720  29.062   4.541  0.00  0.00    +0.069 C 
ATOM     31  C   UNL     1     -32.101  28.172   6.436  0.00  0.00    +0.182 C 
ATOM     32  H   UNL     1     -33.479  26.754   5.714  0.00  0.00    +0.148 HD
ATOM     33  H   UNL     1     -30.765  29.744   6.307  0.00  0.00    +0.148 HD
ENDBRANCH  26  29
ENDBRANCH   1  26
TORSDOF 6
ENDMDL
MODEL 9
REMARK VINA RESULT:      -5.8      9.219     13.629
REMARK  Name = 195325
REMARK  6 active torsions:
REMARK  status: ('A' for Active; 'I' for Inactive)
REMARK    1  A    between atoms: C_1  and  C_4
REMARK    2  A    between atoms: C_1  and  N_15
REMARK    3  A    between atoms: C_1  and  C_26
REMARK    4  A    between atoms: C_5  and  C_11
REMARK    5  A    between atoms: C_16  and  C_20
REMARK    6  A    between atoms: C_26  and  C_29
REMARK                            x       y       z     vdW  Elec       q    Type
REMARK                         _______ _______ _______ _____ _____    ______ ____
ROOT
ATOM      1  C   UNL     1     -44.280  29.646   3.938  0.00  0.00    +0.155 C 
ENDROOT
BRANCH   1   4
ATOM      2  O   UNL     1     -46.295  28.541   4.556  0.00  0.00    -0.273 OA
ATOM      3  N   UNL     1     -45.079  29.545   6.250  0.00  0.00    -0.272 N 
ATOM      4  C   UNL     1     -45.315  29.184   4.932  0.00  0.00    +0.244 C 
ATOM      5  C   UNL     1     -45.888  29.045   7.355  0.00  0.00    +0.152 C 
ATOM      6  C   UNL     1     -43.932  30.305   6.739  0.00  0.00    +0.094 C 
ATOM      7  C   UNL     1     -45.040  29.289   8.597  0.00  0.00    +0.031 C 
ATOM      8  C   UNL     1     -44.202  30.510   8.222  0.00  0.00    +0.024 C 
BRANCH   5  11
ATOM      9  O   UNL     1     -47.175  31.018   7.766  0.00  0.00    -0.274 OA
ATOM     10  N   UNL     1     -48.258  29.162   6.943  0.00  0.00    -0.327 N 
ATOM     11  C   UNL     1     -47.151  29.852   7.376  0.00  0.00    +0.237 C 
ATOM     12  H   UNL     1     -49.137  29.604   6.920  0.00  0.00    +0.145 HD
ATOM     13  H   UNL     1     -48.172  28.224   6.657  0.00  0.00    +0.145 HD
ENDBRANCH   5  11
ENDBRANCH   1   4
BRANCH   1  15
ATOM     14  O   UNL     1     -41.674  28.564   4.645  0.00  0.00    -0.273 OA
ATOM     15  N   UNL     1     -43.687  28.423   3.480  0.00  0.00    -0.297 N 
ATOM     16  C   UNL     1     -42.431  27.985   3.873  0.00  0.00    +0.239 C 
ATOM     17  H   UNL     1     -44.200  27.864   2.851  0.00  0.00    +0.150 HD
BRANCH  16  20
ATOM     18  O   UNL     1     -39.132  24.678   3.643  0.00  0.00    -0.275 OA
ATOM     19  N   UNL     1     -41.087  25.913   4.037  0.00  0.00    -0.300 N 
ATOM     20  C   UNL     1     -42.015  26.683   3.274  0.00  0.00    +0.126 C 
ATOM     21  C   UNL     1     -41.549  26.656   1.845  0.00  0.00    +0.036 C 
ATOM     22  C   UNL     1     -42.890  26.082   2.211  0.00  0.00    +0.029 C 
ATOM     23  C   UNL     1     -40.302  25.812   1.818  0.00  0.00    +0.087 C 
ATOM     24  C   UNL     1     -40.060  25.375   3.261  0.00  0.00    +0.223 C 
ATOM     25  H   UNL     1     -41.164  25.777   5.008  0.00  0.00    +0.150 HD
ENDBRANCH  16  20
ENDBRANCH   1  15
BRANCH   1  26
ATOM     26  C   UNL     1     -44.938  30.453   2.826  0.00  0.00    +0.071 C 
BRANCH  26  29
ATOM     27  N   UNL     1     -44.491  32.531   4.190  0.00  0.00    -0.319 N 
ATOM     28  N   UNL     1     -44.326  34.152   2.682  0.00  0.00    -0.315 N 
ATOM     29  C   UNL     1     -44.678  31.933   2.976  0.00  0.00    +0.040 C 
ATOM     30  C   UNL     1     -44.572  32.953   2.061  0.00  0.00    +0.069 C 
ATOM     31  C   UNL     1     -44.283  33.863   3.964  0.00  0.00    +0.182 C 
ATOM     32  H   UNL     1     -44.503  32.084   5.068  0.00  0.00    +0.148 HD
ATOM     33  H   UNL     1     -44.207  35.033   2.261  0.00  0.00    +0.148 HD
ENDBRANCH  26  29
ENDBRANCH   1  26
TORSDOF 6
ENDMDL
