MODEL 1
REMARK VINA RESULT:      -6.6      0.000      0.000
REMARK  Name = 5289320
REMARK  9 active torsions:
REMARK  status: ('A' for Active; 'I' for Inactive)
REMARK    1  A    between atoms: C_1  and  N_3
REMARK    2  A    between atoms: C_1  and  C_12
REMARK    3  A    between atoms: C_1  and  C_22
REMARK    4  A    between atoms: C_4  and  C_6
REMARK    5  A    between atoms: C_12  and  C_15
REMARK    6  A    between atoms: C_22  and  C_23
REMARK    7  A    between atoms: C_23  and  C_24
REMARK    8  A    between atoms: C_24  and  N_25
REMARK    9  A    between atoms: N_25  and  C_28
REMARK                            x       y       z     vdW  Elec       q    Type
REMARK                         _______ _______ _______ _____ _____    ______ ____
ROOT
ATOM      1  C   UNL     1     -35.939  22.175   3.340  0.00  0.00    +0.137 C 
ENDROOT
BRANCH   1   3
ATOM      2  O   UNL     1     -36.822  24.727   2.274  0.00  0.00    -0.275 OA
ATOM      3  N   UNL     1     -37.244  22.776   3.473  0.00  0.00    -0.299 N 
ATOM      4  C   UNL     1     -37.572  24.006   2.925  0.00  0.00    +0.222 C 
ATOM      5  H   UNL     1     -37.935  22.288   3.976  0.00  0.00    +0.150 HD
BRANCH   4   6
ATOM      6  C   UNL     1     -38.998  24.383   3.190  0.00  0.00    +0.076 C 
ATOM      7  C   UNL     1     -39.935  23.615   2.249  0.00  0.00    +0.009 C 
ATOM      8  C   UNL     1     -39.226  25.868   2.902  0.00  0.00    +0.009 C 
ATOM      9  C   UNL     1     -40.749  24.675   1.517  0.00  0.00    +0.001 C 
ATOM     10  C   UNL     1     -39.851  25.899   1.515  0.00  0.00    +0.001 C 
ENDBRANCH   4   6
ENDBRANCH   1   3
BRANCH   1  12
ATOM     11  O   UNL     1     -37.114  20.689   1.882  0.00  0.00    -0.286 OA
ATOM     12  C   UNL     1     -36.011  21.116   2.234  0.00  0.00    +0.226 C 
BRANCH  12  15
ATOM     13  S   UNL     1     -33.967  21.627   0.439  0.00  0.00    -0.050 S 
ATOM     14  N   UNL     1     -34.204  19.499   1.876  0.00  0.00    -0.396 NA
ATOM     15  C   UNL     1     -34.763  20.654   1.598  0.00  0.00    +0.197 C 
ATOM     16  C   UNL     1     -32.751  20.416   0.271  0.00  0.00    +0.058 C 
ATOM     17  C   UNL     1     -33.049  19.348   1.123  0.00  0.00    +0.120 C 
ATOM     18  C   UNL     1     -31.615  20.412  -0.555  0.00  0.00    +0.008 C 
ATOM     19  C   UNL     1     -32.177  18.238   1.146  0.00  0.00    +0.085 C 
ATOM     20  C   UNL     1     -30.770  19.301  -0.512  0.00  0.00    -0.004 C 
ATOM     21  C   UNL     1     -31.046  18.226   0.327  0.00  0.00    -0.019 C 
ENDBRANCH  12  15
ENDBRANCH   1  12
BRANCH   1  22
ATOM     22  C   UNL     1     -35.435  21.613   4.675  0.00  0.00    +0.030 C 
BRANCH  22  23
ATOM     23  C   UNL     1     -35.563  22.581   5.861  0.00  0.00    +0.029 C 
BRANCH  23  24
ATOM     24  C   UNL     1     -34.807  23.886   5.626  0.00  0.00    +0.129 C 
BRANCH  24  25
ATOM     25  N   UNL     1     -35.746  25.009   5.623  0.00  0.00    -0.240 NA
BRANCH  25  28
ATOM     26  N   UNL     1     -35.889  27.000   4.286  0.00  0.00    -0.370 N 
ATOM     27  N   UNL     1     -34.084  26.625   5.624  0.00  0.00    -0.370 N 
ATOM     28  C   UNL     1     -35.295  26.144   5.186  0.00  0.00    +0.189 C 
ATOM     29  H   UNL     1     -36.764  26.772   3.895  0.00  0.00    +0.159 HD
ATOM     30  H   UNL     1     -35.440  27.839   4.034  0.00  0.00    +0.159 HD
ATOM     31  H   UNL     1     -33.554  26.107   6.274  0.00  0.00    +0.159 HD
ATOM     32  H   UNL     1     -33.746  27.487   5.290  0.00  0.00    +0.159 HD
ENDBRANCH  25  28
ENDBRANCH  24  25
ENDBRANCH  23  24
ENDBRANCH  22  23
ENDBRANCH   1  22
TORSDOF 9
ENDMDL
MODEL 2
REMARK VINA RESULT:      -6.4      2.037      4.229
REMARK  Name = 5289320
REMARK  9 active torsions:
REMARK  status: ('A' for Active; 'I' for Inactive)
REMARK    1  A    between atoms: C_1  and  N_3
REMARK    2  A    between atoms: C_1  and  C_12
REMARK    3  A    between atoms: C_1  and  C_22
REMARK    4  A    between atoms: C_4  and  C_6
REMARK    5  A    between atoms: C_12  and  C_15
REMARK    6  A    between atoms: C_22  and  C_23
REMARK    7  A    between atoms: C_23  and  C_24
REMARK    8  A    between atoms: C_24  and  N_25
REMARK    9  A    between atoms: N_25  and  C_28
REMARK                            x       y       z     vdW  Elec       q    Type
REMARK                         _______ _______ _______ _____ _____    ______ ____
ROOT
ATOM      1  C   UNL     1     -37.225  23.631   1.158  0.00  0.00    +0.137 C 
ENDROOT
BRANCH   1   3
ATOM      2  O   UNL     1     -37.120  23.216   4.030  0.00  0.00    -0.275 OA
ATOM      3  N   UNL     1     -36.088  23.810   2.029  0.00  0.00    -0.299 N 
ATOM      4  C   UNL     1     -36.136  23.585   3.396  0.00  0.00    +0.222 C 
ATOM      5  H   UNL     1     -35.237  24.105   1.633  0.00  0.00    +0.150 HD
BRANCH   4   6
ATOM      6  C   UNL     1     -34.812  23.821   4.057  0.00  0.00    +0.076 C 
ATOM      7  C   UNL     1     -35.015  24.238   5.519  0.00  0.00    +0.009 C 
ATOM      8  C   UNL     1     -34.070  24.976   3.382  0.00  0.00    +0.009 C 
ATOM      9  C   UNL     1     -34.297  25.574   5.674  0.00  0.00    +0.001 C 
ATOM     10  C   UNL     1     -34.327  26.176   4.281  0.00  0.00    +0.001 C 
ENDBRANCH   4   6
ENDBRANCH   1   3
BRANCH   1  12
ATOM     11  O   UNL     1     -38.241  21.704   0.174  0.00  0.00    -0.286 OA
ATOM     12  C   UNL     1     -37.205  22.189   0.638  0.00  0.00    +0.226 C 
BRANCH  12  15
ATOM     13  S   UNL     1     -35.840  19.962   1.552  0.00  0.00    -0.050 S 
ATOM     14  N   UNL     1     -34.853  21.819   0.059  0.00  0.00    -0.396 NA
ATOM     15  C   UNL     1     -35.943  21.427   0.677  0.00  0.00    +0.197 C 
ATOM     16  C   UNL     1     -34.189  19.808   1.080  0.00  0.00    +0.058 C 
ATOM     17  C   UNL     1     -33.838  20.900   0.280  0.00  0.00    +0.120 C 
ATOM     18  C   UNL     1     -33.271  18.792   1.394  0.00  0.00    +0.008 C 
ATOM     19  C   UNL     1     -32.520  20.976  -0.221  0.00  0.00    +0.085 C 
ATOM     20  C   UNL     1     -31.973  18.893   0.886  0.00  0.00    -0.004 C 
ATOM     21  C   UNL     1     -31.601  19.970   0.089  0.00  0.00    -0.019 C 
ENDBRANCH  12  15
ENDBRANCH   1  12
BRANCH   1  22
ATOM     22  C   UNL     1     -37.247  24.673   0.034  0.00  0.00    +0.030 C 
BRANCH  22  23
ATOM     23  C   UNL     1     -38.526  25.524  -0.019  0.00  0.00    +0.029 C 
BRANCH  23  24
ATOM     24  C   UNL     1     -38.494  26.679   0.978  0.00  0.00    +0.129 C 
BRANCH  24  25
ATOM     25  N   UNL     1     -39.487  26.454   2.029  0.00  0.00    -0.240 NA
BRANCH  25  28
ATOM     26  N   UNL     1     -37.927  26.263   3.847  0.00  0.00    -0.370 N 
ATOM     27  N   UNL     1     -39.757  24.908   3.735  0.00  0.00    -0.370 N 
ATOM     28  C   UNL     1     -39.058  25.929   3.134  0.00  0.00    +0.189 C 
ATOM     29  H   UNL     1     -37.337  26.981   3.523  0.00  0.00    +0.159 HD
ATOM     30  H   UNL     1     -37.711  25.784   4.679  0.00  0.00    +0.159 HD
ATOM     31  H   UNL     1     -40.588  24.574   3.326  0.00  0.00    +0.159 HD
ATOM     32  H   UNL     1     -39.427  24.513   4.574  0.00  0.00    +0.159 HD
ENDBRANCH  25  28
ENDBRANCH  24  25
ENDBRANCH  23  24
ENDBRANCH  22  23
ENDBRANCH   1  22
TORSDOF 9
ENDMDL
MODEL 3
REMARK VINA RESULT:      -6.3      4.660      8.924
REMARK  Name = 5289320
REMARK  9 active torsions:
REMARK  status: ('A' for Active; 'I' for Inactive)
REMARK    1  A    between atoms: C_1  and  N_3
REMARK    2  A    between atoms: C_1  and  C_12
REMARK    3  A    between atoms: C_1  and  C_22
REMARK    4  A    between atoms: C_4  and  C_6
REMARK    5  A    between atoms: C_12  and  C_15
REMARK    6  A    between atoms: C_22  and  C_23
REMARK    7  A    between atoms: C_23  and  C_24
REMARK    8  A    between atoms: C_24  and  N_25
REMARK    9  A    between atoms: N_25  and  C_28
REMARK                            x       y       z     vdW  Elec       q    Type
REMARK                         _______ _______ _______ _____ _____    ______ ____
ROOT
ATOM      1  C   UNL     1     -33.209  26.858   4.333  0.00  0.00    +0.137 C 
ENDROOT
BRANCH   1   3
ATOM      2  O   UNL     1     -31.660  27.096   6.778  0.00  0.00    -0.275 OA
ATOM      3  N   UNL     1     -32.778  28.072   4.983  0.00  0.00    -0.299 N 
ATOM      4  C   UNL     1     -32.038  28.084   6.154  0.00  0.00    +0.222 C 
ATOM      5  H   UNL     1     -33.021  28.933   4.574  0.00  0.00    +0.150 HD
BRANCH   4   6
ATOM      6  C   UNL     1     -31.702  29.475   6.600  0.00  0.00    +0.076 C 
ATOM      7  C   UNL     1     -32.135  30.493   5.537  0.00  0.00    +0.009 C 
ATOM      8  C   UNL     1     -30.190  29.640   6.759  0.00  0.00    +0.009 C 
ATOM      9  C   UNL     1     -30.882  31.286   5.186  0.00  0.00    +0.001 C 
ATOM     10  C   UNL     1     -29.741  30.328   5.478  0.00  0.00    +0.001 C 
ENDBRANCH   4   6
ENDBRANCH   1   3
BRANCH   1  12
ATOM     11  O   UNL     1     -32.650  26.492   2.038  0.00  0.00    -0.286 OA
ATOM     12  C   UNL     1     -33.338  27.139   2.832  0.00  0.00    +0.226 C 
BRANCH  12  15
ATOM     13  S   UNL     1     -35.263  27.876   0.984  0.00  0.00    -0.050 S 
ATOM     14  N   UNL     1     -34.476  29.305   2.981  0.00  0.00    -0.396 NA
ATOM     15  C   UNL     1     -34.303  28.156   2.371  0.00  0.00    +0.197 C 
ATOM     16  C   UNL     1     -35.995  29.424   1.191  0.00  0.00    +0.058 C 
ATOM     17  C   UNL     1     -35.444  30.043   2.317  0.00  0.00    +0.120 C 
ATOM     18  C   UNL     1     -36.986  30.044   0.412  0.00  0.00    +0.008 C 
ATOM     19  C   UNL     1     -35.903  31.330   2.674  0.00  0.00    +0.085 C 
ATOM     20  C   UNL     1     -37.422  31.317   0.788  0.00  0.00    -0.004 C 
ATOM     21  C   UNL     1     -36.888  31.954   1.904  0.00  0.00    -0.019 C 
ENDBRANCH  12  15
ENDBRANCH   1  12
BRANCH   1  22
ATOM     22  C   UNL     1     -34.501  26.311   4.953  0.00  0.00    +0.030 C 
BRANCH  22  23
ATOM     23  C   UNL     1     -34.549  24.781   5.077  0.00  0.00    +0.029 C 
BRANCH  23  24
ATOM     24  C   UNL     1     -35.963  24.231   4.909  0.00  0.00    +0.129 C 
BRANCH  24  25
ATOM     25  N   UNL     1     -36.129  23.030   5.729  0.00  0.00    -0.240 NA
BRANCH  25  28
ATOM     26  N   UNL     1     -35.610  21.327   4.115  0.00  0.00    -0.370 N 
ATOM     27  N   UNL     1     -34.620  21.326   6.167  0.00  0.00    -0.370 N 
ATOM     28  C   UNL     1     -35.507  21.963   5.332  0.00  0.00    +0.189 C 
ATOM     29  H   UNL     1     -36.214  21.684   3.423  0.00  0.00    +0.159 HD
ATOM     30  H   UNL     1     -35.079  20.518   3.936  0.00  0.00    +0.159 HD
ATOM     31  H   UNL     1     -34.454  21.680   7.071  0.00  0.00    +0.159 HD
ATOM     32  H   UNL     1     -34.149  20.517   5.862  0.00  0.00    +0.159 HD
ENDBRANCH  25  28
ENDBRANCH  24  25
ENDBRANCH  23  24
ENDBRANCH  22  23
ENDBRANCH   1  22
TORSDOF 9
ENDMDL
MODEL 4
REMARK VINA RESULT:      -6.3      2.933      3.946
REMARK  Name = 5289320
REMARK  9 active torsions:
REMARK  status: ('A' for Active; 'I' for Inactive)
REMARK    1  A    between atoms: C_1  and  N_3
REMARK    2  A    between atoms: C_1  and  C_12
REMARK    3  A    between atoms: C_1  and  C_22
REMARK    4  A    between atoms: C_4  and  C_6
REMARK    5  A    between atoms: C_12  and  C_15
REMARK    6  A    between atoms: C_22  and  C_23
REMARK    7  A    between atoms: C_23  and  C_24
REMARK    8  A    between atoms: C_24  and  N_25
REMARK    9  A    between atoms: N_25  and  C_28
REMARK                            x       y       z     vdW  Elec       q    Type
REMARK                         _______ _______ _______ _____ _____    ______ ____
ROOT
ATOM      1  C   UNL     1     -36.299  24.893   4.367  0.00  0.00    +0.137 C 
ENDROOT
BRANCH   1   3
ATOM      2  O   UNL     1     -36.938  26.597   2.103  0.00  0.00    -0.275 OA
ATOM      3  N   UNL     1     -37.610  25.240   3.873  0.00  0.00    -0.299 N 
ATOM      4  C   UNL     1     -37.815  26.066   2.779  0.00  0.00    +0.222 C 
ATOM      5  H   UNL     1     -38.397  24.873   4.336  0.00  0.00    +0.150 HD
BRANCH   4   6
ATOM      6  C   UNL     1     -39.270  26.242   2.465  0.00  0.00    +0.076 C 
ATOM      7  C   UNL     1     -40.070  25.028   2.955  0.00  0.00    +0.009 C 
ATOM      8  C   UNL     1     -39.490  26.318   0.954  0.00  0.00    +0.009 C 
ATOM      9  C   UNL     1     -40.810  24.498   1.733  0.00  0.00    +0.001 C 
ATOM     10  C   UNL     1     -39.943  24.920   0.560  0.00  0.00    +0.001 C 
ENDBRANCH   4   6
ENDBRANCH   1   3
BRANCH   1  12
ATOM     11  O   UNL     1     -35.994  22.952   5.728  0.00  0.00    -0.286 OA
ATOM     12  C   UNL     1     -36.263  23.379   4.602  0.00  0.00    +0.226 C 
BRANCH  12  15
ATOM     13  S   UNL     1     -35.480  21.241   3.028  0.00  0.00    -0.050 S 
ATOM     14  N   UNL     1     -37.690  22.548   2.791  0.00  0.00    -0.396 NA
ATOM     15  C   UNL     1     -36.578  22.470   3.484  0.00  0.00    +0.197 C 
ATOM     16  C   UNL     1     -36.566  20.744   1.785  0.00  0.00    +0.058 C 
ATOM     17  C   UNL     1     -37.698  21.564   1.813  0.00  0.00    +0.120 C 
ATOM     18  C   UNL     1     -36.427  19.703   0.853  0.00  0.00    +0.008 C 
ATOM     19  C   UNL     1     -38.725  21.333   0.872  0.00  0.00    +0.085 C 
ATOM     20  C   UNL     1     -37.457  19.496  -0.067  0.00  0.00    -0.004 C 
ATOM     21  C   UNL     1     -38.593  20.299  -0.059  0.00  0.00    -0.019 C 
ENDBRANCH  12  15
ENDBRANCH   1  12
BRANCH   1  22
ATOM     22  C   UNL     1     -35.931  25.702   5.616  0.00  0.00    +0.030 C 
BRANCH  22  23
ATOM     23  C   UNL     1     -34.430  25.986   5.771  0.00  0.00    +0.029 C 
BRANCH  23  24
ATOM     24  C   UNL     1     -33.759  26.299   4.436  0.00  0.00    +0.129 C 
BRANCH  24  25
ATOM     25  N   UNL     1     -33.727  27.747   4.223  0.00  0.00    -0.240 NA
BRANCH  25  28
ATOM     26  N   UNL     1     -35.311  29.169   3.108  0.00  0.00    -0.370 N 
ATOM     27  N   UNL     1     -34.040  27.690   1.927  0.00  0.00    -0.370 N 
ATOM     28  C   UNL     1     -34.339  28.195   3.171  0.00  0.00    +0.189 C 
ATOM     29  H   UNL     1     -35.616  29.613   3.932  0.00  0.00    +0.159 HD
ATOM     30  H   UNL     1     -35.699  29.421   2.239  0.00  0.00    +0.159 HD
ATOM     31  H   UNL     1     -33.359  26.986   1.832  0.00  0.00    +0.159 HD
ATOM     32  H   UNL     1     -34.507  28.034   1.131  0.00  0.00    +0.159 HD
ENDBRANCH  25  28
ENDBRANCH  24  25
ENDBRANCH  23  24
ENDBRANCH  22  23
ENDBRANCH   1  22
TORSDOF 9
ENDMDL
MODEL 5
REMARK VINA RESULT:      -6.3      5.293      9.241
REMARK  Name = 5289320
REMARK  9 active torsions:
REMARK  status: ('A' for Active; 'I' for Inactive)
REMARK    1  A    between atoms: C_1  and  N_3
REMARK    2  A    between atoms: C_1  and  C_12
REMARK    3  A    between atoms: C_1  and  C_22
REMARK    4  A    between atoms: C_4  and  C_6
REMARK    5  A    between atoms: C_12  and  C_15
REMARK    6  A    between atoms: C_22  and  C_23
REMARK    7  A    between atoms: C_23  and  C_24
REMARK    8  A    between atoms: C_24  and  N_25
REMARK    9  A    between atoms: N_25  and  C_28
REMARK                            x       y       z     vdW  Elec       q    Type
REMARK                         _______ _______ _______ _____ _____    ______ ____
ROOT
ATOM      1  C   UNL     1     -33.433  27.062   4.406  0.00  0.00    +0.137 C 
ENDROOT
BRANCH   1   3
ATOM      2  O   UNL     1     -31.676  27.040   6.718  0.00  0.00    -0.275 OA
ATOM      3  N   UNL     1     -32.859  28.201   5.082  0.00  0.00    -0.299 N 
ATOM      4  C   UNL     1     -32.027  28.089   6.185  0.00  0.00    +0.222 C 
ATOM      5  H   UNL     1     -33.069  29.100   4.744  0.00  0.00    +0.150 HD
BRANCH   4   6
ATOM      6  C   UNL     1     -31.553  29.422   6.676  0.00  0.00    +0.076 C 
ATOM      7  C   UNL     1     -32.095  30.543   5.780  0.00  0.00    +0.009 C 
ATOM      8  C   UNL     1     -30.028  29.514   6.599  0.00  0.00    +0.009 C 
ATOM      9  C   UNL     1     -30.874  31.313   5.291  0.00  0.00    +0.001 C 
ATOM     10  C   UNL     1     -29.753  30.290   5.319  0.00  0.00    +0.001 C 
ENDBRANCH   4   6
ENDBRANCH   1   3
BRANCH   1  12
ATOM     11  O   UNL     1     -34.391  26.685   2.249  0.00  0.00    -0.286 OA
ATOM     12  C   UNL     1     -33.890  27.513   3.015  0.00  0.00    +0.226 C 
BRANCH  12  15
ATOM     13  S   UNL     1     -35.119  29.948   2.541  0.00  0.00    -0.050 S 
ATOM     14  N   UNL     1     -32.590  29.483   2.355  0.00  0.00    -0.396 NA
ATOM     15  C   UNL     1     -33.747  28.931   2.635  0.00  0.00    +0.197 C 
ATOM     16  C   UNL     1     -34.102  31.262   2.083  0.00  0.00    +0.058 C 
ATOM     17  C   UNL     1     -32.776  30.820   2.036  0.00  0.00    +0.120 C 
ATOM     18  C   UNL     1     -34.452  32.590   1.787  0.00  0.00    +0.008 C 
ATOM     19  C   UNL     1     -31.767  31.741   1.679  0.00  0.00    +0.085 C 
ATOM     20  C   UNL     1     -33.434  33.480   1.436  0.00  0.00    -0.004 C 
ATOM     21  C   UNL     1     -32.108  33.063   1.383  0.00  0.00    -0.019 C 
ENDBRANCH  12  15
ENDBRANCH   1  12
BRANCH   1  22
ATOM     22  C   UNL     1     -34.558  26.422   5.228  0.00  0.00    +0.030 C 
BRANCH  22  23
ATOM     23  C   UNL     1     -34.519  24.887   5.273  0.00  0.00    +0.029 C 
BRANCH  23  24
ATOM     24  C   UNL     1     -35.797  24.259   4.724  0.00  0.00    +0.129 C 
BRANCH  24  25
ATOM     25  N   UNL     1     -36.161  23.090   5.525  0.00  0.00    -0.240 NA
BRANCH  25  28
ATOM     26  N   UNL     1     -34.641  21.340   6.156  0.00  0.00    -0.370 N 
ATOM     27  N   UNL     1     -35.599  21.360   4.089  0.00  0.00    -0.370 N 
ATOM     28  C   UNL     1     -35.496  22.000   5.302  0.00  0.00    +0.189 C 
ATOM     29  H   UNL     1     -34.479  21.694   7.060  0.00  0.00    +0.159 HD
ATOM     30  H   UNL     1     -34.194  20.513   5.864  0.00  0.00    +0.159 HD
ATOM     31  H   UNL     1     -36.181  21.730   3.386  0.00  0.00    +0.159 HD
ATOM     32  H   UNL     1     -35.093  20.532   3.923  0.00  0.00    +0.159 HD
ENDBRANCH  25  28
ENDBRANCH  24  25
ENDBRANCH  23  24
ENDBRANCH  22  23
ENDBRANCH   1  22
TORSDOF 9
ENDMDL
MODEL 6
REMARK VINA RESULT:      -6.3      1.918      2.845
REMARK  Name = 5289320
REMARK  9 active torsions:
REMARK  status: ('A' for Active; 'I' for Inactive)
REMARK    1  A    between atoms: C_1  and  N_3
REMARK    2  A    between atoms: C_1  and  C_12
REMARK    3  A    between atoms: C_1  and  C_22
REMARK    4  A    between atoms: C_4  and  C_6
REMARK    5  A    between atoms: C_12  and  C_15
REMARK    6  A    between atoms: C_22  and  C_23
REMARK    7  A    between atoms: C_23  and  C_24
REMARK    8  A    between atoms: C_24  and  N_25
REMARK    9  A    between atoms: N_25  and  C_28
REMARK                            x       y       z     vdW  Elec       q    Type
REMARK                         _______ _______ _______ _____ _____    ______ ____
ROOT
ATOM      1  C   UNL     1     -35.439  25.191   1.772  0.00  0.00    +0.137 C 
ENDROOT
BRANCH   1   3
ATOM      2  O   UNL     1     -37.890  26.665   2.277  0.00  0.00    -0.275 OA
ATOM      3  N   UNL     1     -36.697  24.665   2.246  0.00  0.00    -0.299 N 
ATOM      4  C   UNL     1     -37.817  25.452   2.458  0.00  0.00    +0.222 C 
ATOM      5  H   UNL     1     -36.763  23.700   2.427  0.00  0.00    +0.150 HD
BRANCH   4   6
ATOM      6  C   UNL     1     -38.994  24.652   2.925  0.00  0.00    +0.076 C 
ATOM      7  C   UNL     1     -38.811  23.173   2.560  0.00  0.00    +0.009 C 
ATOM      8  C   UNL     1     -40.273  25.111   2.223  0.00  0.00    +0.009 C 
ATOM      9  C   UNL     1     -40.039  22.792   1.741  0.00  0.00    +0.001 C 
ATOM     10  C   UNL     1     -40.483  24.098   1.107  0.00  0.00    +0.001 C 
ENDBRANCH   4   6
ENDBRANCH   1   3
BRANCH   1  12
ATOM     11  O   UNL     1     -35.353  25.059  -0.614  0.00  0.00    -0.286 OA
ATOM     12  C   UNL     1     -35.096  24.491   0.452  0.00  0.00    +0.226 C 
BRANCH  12  15
ATOM     13  S   UNL     1     -32.955  22.916  -0.320  0.00  0.00    -0.050 S 
ATOM     14  N   UNL     1     -34.946  22.139   1.122  0.00  0.00    -0.396 NA
ATOM     15  C   UNL     1     -34.441  23.170   0.487  0.00  0.00    +0.197 C 
ATOM     16  C   UNL     1     -32.958  21.276   0.211  0.00  0.00    +0.058 C 
ATOM     17  C   UNL     1     -34.107  21.045   0.974  0.00  0.00    +0.120 C 
ATOM     18  C   UNL     1     -32.011  20.267  -0.029  0.00  0.00    +0.008 C 
ATOM     19  C   UNL     1     -34.313  19.756   1.513  0.00  0.00    +0.085 C 
ATOM     20  C   UNL     1     -32.240  19.002   0.516  0.00  0.00    -0.004 C 
ATOM     21  C   UNL     1     -33.375  18.747   1.278  0.00  0.00    -0.019 C 
ENDBRANCH  12  15
ENDBRANCH   1  12
BRANCH   1  22
ATOM     22  C   UNL     1     -34.335  25.054   2.827  0.00  0.00    +0.030 C 
BRANCH  22  23
ATOM     23  C   UNL     1     -34.659  25.715   4.176  0.00  0.00    +0.029 C 
BRANCH  23  24
ATOM     24  C   UNL     1     -34.752  24.698   5.310  0.00  0.00    +0.129 C 
BRANCH  24  25
ATOM     25  N   UNL     1     -36.004  23.947   5.202  0.00  0.00    -0.240 NA
BRANCH  25  28
ATOM     26  N   UNL     1     -35.792  21.817   4.111  0.00  0.00    -0.370 N 
ATOM     27  N   UNL     1     -35.919  21.954   6.382  0.00  0.00    -0.370 N 
ATOM     28  C   UNL     1     -35.909  22.654   5.199  0.00  0.00    +0.189 C 
ATOM     29  H   UNL     1     -35.772  22.193   3.201  0.00  0.00    +0.159 HD
ATOM     30  H   UNL     1     -35.727  20.844   4.244  0.00  0.00    +0.159 HD
ATOM     31  H   UNL     1     -35.997  22.436   7.238  0.00  0.00    +0.159 HD
ATOM     32  H   UNL     1     -35.846  20.972   6.375  0.00  0.00    +0.159 HD
ENDBRANCH  25  28
ENDBRANCH  24  25
ENDBRANCH  23  24
ENDBRANCH  22  23
ENDBRANCH   1  22
TORSDOF 9
ENDMDL
MODEL 7
REMARK VINA RESULT:      -6.3      2.116      4.897
REMARK  Name = 5289320
REMARK  9 active torsions:
REMARK  status: ('A' for Active; 'I' for Inactive)
REMARK    1  A    between atoms: C_1  and  N_3
REMARK    2  A    between atoms: C_1  and  C_12
REMARK    3  A    between atoms: C_1  and  C_22
REMARK    4  A    between atoms: C_4  and  C_6
REMARK    5  A    between atoms: C_12  and  C_15
REMARK    6  A    between atoms: C_22  and  C_23
REMARK    7  A    between atoms: C_23  and  C_24
REMARK    8  A    between atoms: C_24  and  N_25
REMARK    9  A    between atoms: N_25  and  C_28
REMARK                            x       y       z     vdW  Elec       q    Type
REMARK                         _______ _______ _______ _____ _____    ______ ____
ROOT
ATOM      1  C   UNL     1     -37.529  24.451   1.394  0.00  0.00    +0.137 C 
ENDROOT
BRANCH   1   3
ATOM      2  O   UNL     1     -37.249  23.150   3.975  0.00  0.00    -0.275 OA
ATOM      3  N   UNL     1     -36.996  25.020   2.609  0.00  0.00    -0.299 N 
ATOM      4  C   UNL     1     -36.903  24.315   3.799  0.00  0.00    +0.222 C 
ATOM      5  H   UNL     1     -36.684  25.952   2.592  0.00  0.00    +0.150 HD
BRANCH   4   6
ATOM      6  C   UNL     1     -36.292  25.132   4.896  0.00  0.00    +0.076 C 
ATOM      7  C   UNL     1     -35.642  26.397   4.319  0.00  0.00    +0.009 C 
ATOM      8  C   UNL     1     -35.171  24.354   5.588  0.00  0.00    +0.009 C 
ATOM      9  C   UNL     1     -34.189  26.365   4.779  0.00  0.00    +0.001 C 
ATOM     10  C   UNL     1     -33.890  24.888   4.965  0.00  0.00    +0.001 C 
ENDBRANCH   4   6
ENDBRANCH   1   3
BRANCH   1  12
ATOM     11  O   UNL     1     -36.220  25.198  -0.462  0.00  0.00    -0.286 OA
ATOM     12  C   UNL     1     -36.381  24.317   0.387  0.00  0.00    +0.226 C 
BRANCH  12  15
ATOM     13  S   UNL     1     -33.999  23.134  -0.383  0.00  0.00    -0.050 S 
ATOM     14  N   UNL     1     -35.751  22.090   1.195  0.00  0.00    -0.396 NA
ATOM     15  C   UNL     1     -35.479  23.152   0.474  0.00  0.00    +0.197 C 
ATOM     16  C   UNL     1     -33.664  21.566   0.250  0.00  0.00    +0.058 C 
ATOM     17  C   UNL     1     -34.720  21.171   1.077  0.00  0.00    +0.120 C 
ATOM     18  C   UNL     1     -32.546  20.744   0.030  0.00  0.00    +0.008 C 
ATOM     19  C   UNL     1     -34.652  19.908   1.705  0.00  0.00    +0.085 C 
ATOM     20  C   UNL     1     -32.505  19.500   0.663  0.00  0.00    -0.004 C 
ATOM     21  C   UNL     1     -33.543  19.085   1.490  0.00  0.00    -0.019 C 
ENDBRANCH  12  15
ENDBRANCH   1  12
BRANCH   1  22
ATOM     22  C   UNL     1     -38.707  25.270   0.854  0.00  0.00    +0.030 C 
BRANCH  22  23
ATOM     23  C   UNL     1     -40.055  24.534   0.872  0.00  0.00    +0.029 C 
BRANCH  23  24
ATOM     24  C   UNL     1     -40.076  23.391   1.884  0.00  0.00    +0.129 C 
BRANCH  24  25
ATOM     25  N   UNL     1     -40.227  22.113   1.188  0.00  0.00    -0.240 NA
BRANCH  25  28
ATOM     26  N   UNL     1     -38.606  20.762   0.038  0.00  0.00    -0.370 N 
ATOM     27  N   UNL     1     -38.508  21.026   2.300  0.00  0.00    -0.370 N 
ATOM     28  C   UNL     1     -39.183  21.346   1.145  0.00  0.00    +0.189 C 
ATOM     29  H   UNL     1     -38.994  20.912  -0.855  0.00  0.00    +0.159 HD
ATOM     30  H   UNL     1     -37.808  20.196   0.140  0.00  0.00    +0.159 HD
ATOM     31  H   UNL     1     -38.818  21.381   3.164  0.00  0.00    +0.159 HD
ATOM     32  H   UNL     1     -37.715  20.444   2.262  0.00  0.00    +0.159 HD
ENDBRANCH  25  28
ENDBRANCH  24  25
ENDBRANCH  23  24
ENDBRANCH  22  23
ENDBRANCH   1  22
TORSDOF 9
ENDMDL
MODEL 8
REMARK VINA RESULT:      -6.2      1.744      3.678
REMARK  Name = 5289320
REMARK  9 active torsions:
REMARK  status: ('A' for Active; 'I' for Inactive)
REMARK    1  A    between atoms: C_1  and  N_3
REMARK    2  A    between atoms: C_1  and  C_12
REMARK    3  A    between atoms: C_1  and  C_22
REMARK    4  A    between atoms: C_4  and  C_6
REMARK    5  A    between atoms: C_12  and  C_15
REMARK    6  A    between atoms: C_22  and  C_23
REMARK    7  A    between atoms: C_23  and  C_24
REMARK    8  A    between atoms: C_24  and  N_25
REMARK    9  A    between atoms: N_25  and  C_28
REMARK                            x       y       z     vdW  Elec       q    Type
REMARK                         _______ _______ _______ _____ _____    ______ ____
ROOT
ATOM      1  C   UNL     1     -37.444  22.628   2.482  0.00  0.00    +0.137 C 
ENDROOT
BRANCH   1   3
ATOM      2  O   UNL     1     -35.593  21.695   4.515  0.00  0.00    -0.275 OA
ATOM      3  N   UNL     1     -36.787  23.416   3.499  0.00  0.00    -0.299 N 
ATOM      4  C   UNL     1     -35.915  22.876   4.430  0.00  0.00    +0.222 C 
ATOM      5  H   UNL     1     -36.968  24.382   3.531  0.00  0.00    +0.150 HD
BRANCH   4   6
ATOM      6  C   UNL     1     -35.356  23.916   5.353  0.00  0.00    +0.076 C 
ATOM      7  C   UNL     1     -36.293  25.129   5.418  0.00  0.00    +0.009 C 
ATOM      8  C   UNL     1     -34.017  24.438   4.830  0.00  0.00    +0.009 C 
ATOM      9  C   UNL     1     -35.444  26.333   5.028  0.00  0.00    +0.001 C 
ATOM     10  C   UNL     1     -34.359  25.751   4.140  0.00  0.00    +0.001 C 
ENDBRANCH   4   6
ENDBRANCH   1   3
BRANCH   1  12
ATOM     11  O   UNL     1     -37.015  23.594   0.337  0.00  0.00    -0.286 OA
ATOM     12  C   UNL     1     -36.647  22.770   1.180  0.00  0.00    +0.226 C 
BRANCH  12  15
ATOM     13  S   UNL     1     -34.131  22.526   0.052  0.00  0.00    -0.050 S 
ATOM     14  N   UNL     1     -35.313  20.737   1.484  0.00  0.00    -0.396 NA
ATOM     15  C   UNL     1     -35.444  21.941   0.978  0.00  0.00    +0.197 C 
ATOM     16  C   UNL     1     -33.287  21.049   0.334  0.00  0.00    +0.058 C 
ATOM     17  C   UNL     1     -34.081  20.212   1.124  0.00  0.00    +0.120 C 
ATOM     18  C   UNL     1     -32.013  20.660  -0.111  0.00  0.00    +0.008 C 
ATOM     19  C   UNL     1     -33.580  18.941   1.479  0.00  0.00    +0.085 C 
ATOM     20  C   UNL     1     -31.541  19.397   0.254  0.00  0.00    -0.004 C 
ATOM     21  C   UNL     1     -32.314  18.547   1.039  0.00  0.00    -0.019 C 
ENDBRANCH  12  15
ENDBRANCH   1  12
BRANCH   1  22
ATOM     22  C   UNL     1     -38.918  23.018   2.327  0.00  0.00    +0.030 C 
BRANCH  22  23
ATOM     23  C   UNL     1     -39.310  24.322   3.040  0.00  0.00    +0.029 C 
BRANCH  23  24
ATOM     24  C   UNL     1     -39.173  25.541   2.132  0.00  0.00    +0.129 C 
BRANCH  24  25
ATOM     25  N   UNL     1     -38.031  26.352   2.557  0.00  0.00    -0.240 NA
BRANCH  25  28
ATOM     26  N   UNL     1     -37.258  26.542   0.291  0.00  0.00    -0.370 N 
ATOM     27  N   UNL     1     -36.513  27.974   1.899  0.00  0.00    -0.370 N 
ATOM     28  C   UNL     1     -37.324  26.900   1.619  0.00  0.00    +0.189 C 
ATOM     29  H   UNL     1     -37.793  25.786  -0.042  0.00  0.00    +0.159 HD
ATOM     30  H   UNL     1     -36.677  27.044  -0.326  0.00  0.00    +0.159 HD
ATOM     31  H   UNL     1     -36.468  28.331   2.816  0.00  0.00    +0.159 HD
ATOM     32  H   UNL     1     -35.977  28.387   1.183  0.00  0.00    +0.159 HD
ENDBRANCH  25  28
ENDBRANCH  24  25
ENDBRANCH  23  24
ENDBRANCH  22  23
ENDBRANCH   1  22
TORSDOF 9
ENDMDL
MODEL 9
REMARK VINA RESULT:      -6.2      2.000      2.782
REMARK  Name = 5289320
REMARK  9 active torsions:
REMARK  status: ('A' for Active; 'I' for Inactive)
REMARK    1  A    between atoms: C_1  and  N_3
REMARK    2  A    between atoms: C_1  and  C_12
REMARK    3  A    between atoms: C_1  and  C_22
REMARK    4  A    between atoms: C_4  and  C_6
REMARK    5  A    between atoms: C_12  and  C_15
REMARK    6  A    between atoms: C_22  and  C_23
REMARK    7  A    between atoms: C_23  and  C_24
REMARK    8  A    between atoms: C_24  and  N_25
REMARK    9  A    between atoms: N_25  and  C_28
REMARK                            x       y       z     vdW  Elec       q    Type
REMARK                         _______ _______ _______ _____ _____    ______ ____
ROOT
ATOM      1  C   UNL     1     -36.518  24.765   4.397  0.00  0.00    +0.137 C 
ENDROOT
BRANCH   1   3
ATOM      2  O   UNL     1     -37.982  25.359   1.961  0.00  0.00    -0.275 OA
ATOM      3  N   UNL     1     -37.948  24.728   4.202  0.00  0.00    -0.299 N 
ATOM      4  C   UNL     1     -38.557  25.031   2.995  0.00  0.00    +0.222 C 
ATOM      5  H   UNL     1     -38.518  24.477   4.964  0.00  0.00    +0.150 HD
BRANCH   4   6
ATOM      6  C   UNL     1     -40.048  24.891   3.060  0.00  0.00    +0.076 C 
ATOM      7  C   UNL     1     -40.575  24.220   1.786  0.00  0.00    +0.009 C 
ATOM      8  C   UNL     1     -40.716  26.265   3.129  0.00  0.00    +0.009 C 
ATOM      9  C   UNL     1     -41.608  25.180   1.208  0.00  0.00    +0.001 C 
ATOM     10  C   UNL     1     -41.165  26.545   1.702  0.00  0.00    +0.001 C 
ENDBRANCH   4   6
ENDBRANCH   1   3
BRANCH   1  12
ATOM     11  O   UNL     1     -36.084  22.760   5.626  0.00  0.00    -0.286 OA
ATOM     12  C   UNL     1     -36.018  23.322   4.528  0.00  0.00    +0.226 C 
BRANCH  12  15
ATOM     13  S   UNL     1     -34.945  23.523   1.985  0.00  0.00    -0.050 S 
ATOM     14  N   UNL     1     -35.426  21.322   3.240  0.00  0.00    -0.396 NA
ATOM     15  C   UNL     1     -35.496  22.630   3.335  0.00  0.00    +0.197 C 
ATOM     16  C   UNL     1     -34.567  22.048   1.175  0.00  0.00    +0.058 C 
ATOM     17  C   UNL     1     -34.895  20.973   2.007  0.00  0.00    +0.120 C 
ATOM     18  C   UNL     1     -34.020  21.857  -0.104  0.00  0.00    +0.008 C 
ATOM     19  C   UNL     1     -34.666  19.661   1.539  0.00  0.00    +0.085 C 
ATOM     20  C   UNL     1     -33.804  20.548  -0.542  0.00  0.00    -0.004 C 
ATOM     21  C   UNL     1     -34.122  19.463   0.267  0.00  0.00    -0.019 C 
ENDBRANCH  12  15
ENDBRANCH   1  12
BRANCH   1  22
ATOM     22  C   UNL     1     -36.131  25.644   5.592  0.00  0.00    +0.030 C 
BRANCH  22  23
ATOM     23  C   UNL     1     -34.635  25.984   5.673  0.00  0.00    +0.029 C 
BRANCH  23  24
ATOM     24  C   UNL     1     -34.060  26.389   4.319  0.00  0.00    +0.129 C 
BRANCH  24  25
ATOM     25  N   UNL     1     -34.516  27.734   3.966  0.00  0.00    -0.240 NA
BRANCH  25  28
ATOM     26  N   UNL     1     -36.275  27.816   2.332  0.00  0.00    -0.370 N 
ATOM     27  N   UNL     1     -34.110  28.196   1.732  0.00  0.00    -0.370 N 
ATOM     28  C   UNL     1     -34.970  27.899   2.763  0.00  0.00    +0.189 C 
ATOM     29  H   UNL     1     -36.993  27.608   2.973  0.00  0.00    +0.159 HD
ATOM     30  H   UNL     1     -36.490  27.964   1.383  0.00  0.00    +0.159 HD
ATOM     31  H   UNL     1     -33.145  28.285   1.906  0.00  0.00    +0.159 HD
ATOM     32  H   UNL     1     -34.459  28.322   0.820  0.00  0.00    +0.159 HD
ENDBRANCH  25  28
ENDBRANCH  24  25
ENDBRANCH  23  24
ENDBRANCH  22  23
ENDBRANCH   1  22
TORSDOF 9
ENDMDL
