MODEL 1
REMARK VINA RESULT:      -5.5      0.000      0.000
REMARK  Name = 198515
REMARK  11 active torsions:
REMARK  status: ('A' for Active; 'I' for Inactive)
REMARK    1  A    between atoms: C_2  and  O_13
REMARK    2  A    between atoms: C_3  and  N_8
REMARK    3  A    between atoms: C_4  and  O_17
REMARK    4  A    between atoms: C_5  and  C_25
REMARK    5  A    between atoms: C_6  and  O_21
REMARK    6  A    between atoms: C_9  and  C_12
REMARK    7  A    between atoms: O_13  and  C_15
REMARK    8  A    between atoms: O_17  and  C_19
REMARK    9  A    between atoms: O_21  and  C_23
REMARK   10  A    between atoms: C_25  and  O_26
REMARK   11  A    between atoms: O_26  and  C_28
REMARK                            x       y       z     vdW  Elec       q    Type
REMARK                         _______ _______ _______ _____ _____    ______ ____
ROOT
ATOM      1  O   UNL     1     -37.665  21.825   2.389  0.00  0.00    -0.314 OA
ATOM      2  C   UNL     1     -36.999  24.592   2.732  0.00  0.00    +0.235 C 
ATOM      3  C   UNL     1     -38.450  24.134   2.558  0.00  0.00    +0.187 C 
ATOM      4  C   UNL     1     -36.123  23.465   3.284  0.00  0.00    +0.241 C 
ATOM      5  C   UNL     1     -36.286  22.211   2.422  0.00  0.00    +0.206 C 
ATOM      6  C   UNL     1     -38.510  22.806   1.789  0.00  0.00    +0.312 C 
ENDROOT
BRANCH   3   8
ATOM      7  O   UNL     1     -40.719  25.587   3.587  0.00  0.00    -0.274 OA
ATOM      8  N   UNL     1     -39.218  25.151   1.869  0.00  0.00    -0.297 N 
ATOM      9  C   UNL     1     -40.296  25.793   2.451  0.00  0.00    +0.234 C 
ATOM     10  H   UNL     1     -38.963  25.393   0.950  0.00  0.00    +0.150 HD
BRANCH   9  12
ATOM     11 BR   UNL     1     -39.830  26.889  -0.052  0.00  0.00    -0.070 Br
ATOM     12  C   UNL     1     -40.944  26.794   1.532  0.00  0.00    +0.152 C 
ENDBRANCH   9  12
ENDBRANCH   3   8
BRANCH   2  13
ATOM     13  O   UNL     1     -36.954  25.711   3.614  0.00  0.00    -0.446 OA
BRANCH  13  15
ATOM     14  O   UNL     1     -35.179  27.097   4.129  0.00  0.00    -0.250 OA
ATOM     15  C   UNL     1     -35.997  26.645   3.339  0.00  0.00    +0.318 C 
ATOM     16  C   UNL     1     -36.084  27.051   1.899  0.00  0.00    +0.121 C 
ENDBRANCH  13  15
ENDBRANCH   2  13
BRANCH   4  17
ATOM     17  O   UNL     1     -36.518  23.164   4.624  0.00  0.00    -0.446 OA
BRANCH  17  19
ATOM     18  O   UNL     1     -34.798  24.259   5.709  0.00  0.00    -0.250 OA
ATOM     19  C   UNL     1     -35.543  23.299   5.569  0.00  0.00    +0.318 C 
ATOM     20  C   UNL     1     -35.510  22.078   6.436  0.00  0.00    +0.121 C 
ENDBRANCH  17  19
ENDBRANCH   4  17
BRANCH   6  21
ATOM     21  O   UNL     1     -39.860  22.342   1.807  0.00  0.00    -0.422 OA
BRANCH  21  23
ATOM     22  O   UNL     1     -41.013  20.748   0.597  0.00  0.00    -0.250 OA
ATOM     23  C   UNL     1     -40.289  21.731   0.663  0.00  0.00    +0.319 C 
ATOM     24  C   UNL     1     -39.737  22.449  -0.530  0.00  0.00    +0.121 C 
ENDBRANCH  21  23
ENDBRANCH   6  21
BRANCH   5  25
ATOM     25  C   UNL     1     -35.494  21.027   2.964  0.00  0.00    +0.242 C 
BRANCH  25  26
ATOM     26  O   UNL     1     -35.835  19.874   2.216  0.00  0.00    -0.446 OA
BRANCH  26  28
ATOM     27  O   UNL     1     -35.499  19.784  -0.067  0.00  0.00    -0.250 OA
ATOM     28  C   UNL     1     -35.099  19.654   1.081  0.00  0.00    +0.318 C 
ATOM     29  C   UNL     1     -33.709  19.226   1.444  0.00  0.00    +0.121 C 
ENDBRANCH  26  28
ENDBRANCH  25  26
ENDBRANCH   5  25
TORSDOF 11
ENDMDL
MODEL 2
REMARK VINA RESULT:      -5.2      2.660      5.980
REMARK  Name = 198515
REMARK  11 active torsions:
REMARK  status: ('A' for Active; 'I' for Inactive)
REMARK    1  A    between atoms: C_2  and  O_13
REMARK    2  A    between atoms: C_3  and  N_8
REMARK    3  A    between atoms: C_4  and  O_17
REMARK    4  A    between atoms: C_5  and  C_25
REMARK    5  A    between atoms: C_6  and  O_21
REMARK    6  A    between atoms: C_9  and  C_12
REMARK    7  A    between atoms: O_13  and  C_15
REMARK    8  A    between atoms: O_17  and  C_19
REMARK    9  A    between atoms: O_21  and  C_23
REMARK   10  A    between atoms: C_25  and  O_26
REMARK   11  A    between atoms: O_26  and  C_28
REMARK                            x       y       z     vdW  Elec       q    Type
REMARK                         _______ _______ _______ _____ _____    ______ ____
ROOT
ATOM      1  O   UNL     1     -39.167  24.223   1.659  0.00  0.00    -0.314 OA
ATOM      2  C   UNL     1     -37.202  25.181   3.515  0.00  0.00    +0.235 C 
ATOM      3  C   UNL     1     -37.139  23.761   2.945  0.00  0.00    +0.187 C 
ATOM      4  C   UNL     1     -37.975  26.118   2.584  0.00  0.00    +0.241 C 
ATOM      5  C   UNL     1     -39.342  25.513   2.256  0.00  0.00    +0.206 C 
ATOM      6  C   UNL     1     -38.538  23.282   2.529  0.00  0.00    +0.312 C 
ENDROOT
BRANCH   3   8
ATOM      7  O   UNL     1     -35.077  21.798   2.482  0.00  0.00    -0.274 OA
ATOM      8  N   UNL     1     -36.565  22.854   3.918  0.00  0.00    -0.297 N 
ATOM      9  C   UNL     1     -35.575  21.943   3.596  0.00  0.00    +0.234 C 
ATOM     10  H   UNL     1     -36.894  22.887   4.845  0.00  0.00    +0.150 HD
BRANCH   9  12
ATOM     11 BR   UNL     1     -35.361  22.209   6.347  0.00  0.00    -0.070 Br
ATOM     12  C   UNL     1     -35.155  21.100   4.770  0.00  0.00    +0.152 C 
ENDBRANCH   9  12
ENDBRANCH   3   8
BRANCH   2  13
ATOM     13  O   UNL     1     -35.879  25.677   3.706  0.00  0.00    -0.446 OA
BRANCH  13  15
ATOM     14  O   UNL     1     -36.266  26.365   5.876  0.00  0.00    -0.250 OA
ATOM     15  C   UNL     1     -35.527  25.942   4.998  0.00  0.00    +0.318 C 
ATOM     16  C   UNL     1     -34.074  25.635   5.200  0.00  0.00    +0.121 C 
ENDBRANCH  13  15
ENDBRANCH   2  13
BRANCH   4  17
ATOM     17  O   UNL     1     -37.242  26.301   1.371  0.00  0.00    -0.446 OA
BRANCH  17  19
ATOM     18  O   UNL     1     -37.414  28.597   1.179  0.00  0.00    -0.250 OA
ATOM     19  C   UNL     1     -36.764  27.560   1.157  0.00  0.00    +0.318 C 
ATOM     20  C   UNL     1     -35.291  27.499   0.885  0.00  0.00    +0.121 C 
ENDBRANCH  17  19
ENDBRANCH   4  17
BRANCH   6  21
ATOM     21  O   UNL     1     -38.398  22.033   1.852  0.00  0.00    -0.422 OA
BRANCH  21  23
ATOM     22  O   UNL     1     -40.445  21.086   2.352  0.00  0.00    -0.250 OA
ATOM     23  C   UNL     1     -39.565  21.388   1.557  0.00  0.00    +0.319 C 
ATOM     24  C   UNL     1     -39.622  21.092   0.090  0.00  0.00    +0.121 C 
ENDBRANCH  21  23
ENDBRANCH   6  21
BRANCH   5  25
ATOM     25  C   UNL     1     -40.134  26.367   1.272  0.00  0.00    +0.242 C 
BRANCH  25  26
ATOM     26  O   UNL     1     -41.510  26.071   1.421  0.00  0.00    -0.446 OA
BRANCH  26  28
ATOM     27  O   UNL     1     -41.838  28.013   2.627  0.00  0.00    -0.250 OA
ATOM     28  C   UNL     1     -42.228  26.932   2.208  0.00  0.00    +0.318 C 
ATOM     29  C   UNL     1     -43.584  26.361   2.492  0.00  0.00    +0.121 C 
ENDBRANCH  26  28
ENDBRANCH  25  26
ENDBRANCH   5  25
TORSDOF 11
ENDMDL
MODEL 3
REMARK VINA RESULT:      -5.1      3.163      5.720
REMARK  Name = 198515
REMARK  11 active torsions:
REMARK  status: ('A' for Active; 'I' for Inactive)
REMARK    1  A    between atoms: C_2  and  O_13
REMARK    2  A    between atoms: C_3  and  N_8
REMARK    3  A    between atoms: C_4  and  O_17
REMARK    4  A    between atoms: C_5  and  C_25
REMARK    5  A    between atoms: C_6  and  O_21
REMARK    6  A    between atoms: C_9  and  C_12
REMARK    7  A    between atoms: O_13  and  C_15
REMARK    8  A    between atoms: O_17  and  C_19
REMARK    9  A    between atoms: O_21  and  C_23
REMARK   10  A    between atoms: C_25  and  O_26
REMARK   11  A    between atoms: O_26  and  C_28
REMARK                            x       y       z     vdW  Elec       q    Type
REMARK                         _______ _______ _______ _____ _____    ______ ____
ROOT
ATOM      1  O   UNL     1     -37.239  24.307   4.169  0.00  0.00    -0.314 OA
ATOM      2  C   UNL     1     -36.442  26.748   2.895  0.00  0.00    +0.235 C 
ATOM      3  C   UNL     1     -35.485  25.970   3.803  0.00  0.00    +0.187 C 
ATOM      4  C   UNL     1     -37.518  25.832   2.308  0.00  0.00    +0.241 C 
ATOM      5  C   UNL     1     -38.210  25.058   3.433  0.00  0.00    +0.206 C 
ATOM      6  C   UNL     1     -36.269  25.128   4.820  0.00  0.00    +0.312 C 
ENDROOT
BRANCH   3   8
ATOM      7  O   UNL     1     -32.638  26.225   3.414  0.00  0.00    -0.274 OA
ATOM      8  N   UNL     1     -34.590  26.881   4.488  0.00  0.00    -0.297 N 
ATOM      9  C   UNL     1     -33.232  26.928   4.230  0.00  0.00    +0.234 C 
ATOM     10  H   UNL     1     -34.964  27.491   5.164  0.00  0.00    +0.150 HD
BRANCH   9  12
ATOM     11 BR   UNL     1     -32.602  27.294   6.904  0.00  0.00    -0.070 Br
ATOM     12  C   UNL     1     -32.512  27.940   5.078  0.00  0.00    +0.152 C 
ENDBRANCH   9  12
ENDBRANCH   3   8
BRANCH   2  13
ATOM     13  O   UNL     1     -35.705  27.362   1.839  0.00  0.00    -0.446 OA
BRANCH  13  15
ATOM     14  O   UNL     1     -37.044  29.062   1.033  0.00  0.00    -0.250 OA
ATOM     15  C   UNL     1     -36.022  28.663   1.575  0.00  0.00    +0.318 C 
ATOM     16  C   UNL     1     -34.919  29.559   2.050  0.00  0.00    +0.121 C 
ENDBRANCH  13  15
ENDBRANCH   2  13
BRANCH   4  17
ATOM     17  O   UNL     1     -36.916  24.903   1.405  0.00  0.00    -0.446 OA
BRANCH  17  19
ATOM     18  O   UNL     1     -38.304  25.583  -0.312  0.00  0.00    -0.250 OA
ATOM     19  C   UNL     1     -37.301  25.017   0.101  0.00  0.00    +0.318 C 
ATOM     20  C   UNL     1     -36.299  24.336  -0.781  0.00  0.00    +0.121 C 
ENDBRANCH  17  19
ENDBRANCH   4  17
BRANCH   6  21
ATOM     21  O   UNL     1     -35.341  24.298   5.520  0.00  0.00    -0.422 OA
BRANCH  21  23
ATOM     22  O   UNL     1     -35.156  22.576   3.992  0.00  0.00    -0.250 OA
ATOM     23  C   UNL     1     -35.312  22.989   5.133  0.00  0.00    +0.319 C 
ATOM     24  C   UNL     1     -35.500  22.105   6.327  0.00  0.00    +0.121 C 
ENDBRANCH  21  23
ENDBRANCH   6  21
BRANCH   5  25
ATOM     25  C   UNL     1     -39.246  24.071   2.905  0.00  0.00    +0.242 C 
BRANCH  25  26
ATOM     26  O   UNL     1     -38.698  22.767   2.964  0.00  0.00    -0.446 OA
BRANCH  26  28
ATOM     27  O   UNL     1     -40.270  21.551   1.786  0.00  0.00    -0.250 OA
ATOM     28  C   UNL     1     -39.115  21.896   1.991  0.00  0.00    +0.318 C 
ATOM     29  C   UNL     1     -37.940  21.415   1.194  0.00  0.00    +0.121 C 
ENDBRANCH  26  28
ENDBRANCH  25  26
ENDBRANCH   5  25
TORSDOF 11
ENDMDL
MODEL 4
REMARK VINA RESULT:      -5.1      4.441      7.712
REMARK  Name = 198515
REMARK  11 active torsions:
REMARK  status: ('A' for Active; 'I' for Inactive)
REMARK    1  A    between atoms: C_2  and  O_13
REMARK    2  A    between atoms: C_3  and  N_8
REMARK    3  A    between atoms: C_4  and  O_17
REMARK    4  A    between atoms: C_5  and  C_25
REMARK    5  A    between atoms: C_6  and  O_21
REMARK    6  A    between atoms: C_9  and  C_12
REMARK    7  A    between atoms: O_13  and  C_15
REMARK    8  A    between atoms: O_17  and  C_19
REMARK    9  A    between atoms: O_21  and  C_23
REMARK   10  A    between atoms: C_25  and  O_26
REMARK   11  A    between atoms: O_26  and  C_28
REMARK                            x       y       z     vdW  Elec       q    Type
REMARK                         _______ _______ _______ _____ _____    ______ ____
ROOT
ATOM      1  O   UNL     1     -32.833  26.630   4.958  0.00  0.00    -0.314 OA
ATOM      2  C   UNL     1     -34.521  28.035   3.115  0.00  0.00    +0.235 C 
ATOM      3  C   UNL     1     -33.050  28.417   3.305  0.00  0.00    +0.187 C 
ATOM      4  C   UNL     1     -34.769  26.576   3.503  0.00  0.00    +0.241 C 
ATOM      5  C   UNL     1     -34.229  26.314   4.912  0.00  0.00    +0.206 C 
ATOM      6  C   UNL     1     -32.559  28.007   4.701  0.00  0.00    +0.312 C 
ENDROOT
BRANCH   3   8
ATOM      7  O   UNL     1     -31.400  29.699   1.316  0.00  0.00    -0.274 OA
ATOM      8  N   UNL     1     -32.871  29.842   3.107  0.00  0.00    -0.297 N 
ATOM      9  C   UNL     1     -32.053  30.361   2.120  0.00  0.00    +0.234 C 
ATOM     10  H   UNL     1     -33.351  30.464   3.699  0.00  0.00    +0.150 HD
BRANCH   9  12
ATOM     11 BR   UNL     1     -30.959  32.386   3.664  0.00  0.00    -0.070 Br
ATOM     12  C   UNL     1     -32.016  31.865   2.125  0.00  0.00    +0.152 C 
ENDBRANCH   9  12
ENDBRANCH   3   8
BRANCH   2  13
ATOM     13  O   UNL     1     -34.896  28.241   1.755  0.00  0.00    -0.446 OA
BRANCH  13  15
ATOM     14  O   UNL     1     -37.182  28.144   1.439  0.00  0.00    -0.250 OA
ATOM     15  C   UNL     1     -36.138  28.772   1.557  0.00  0.00    +0.318 C 
ATOM     16  C   UNL     1     -36.047  30.267   1.503  0.00  0.00    +0.121 C 
ENDBRANCH  13  15
ENDBRANCH   2  13
BRANCH   4  17
ATOM     17  O   UNL     1     -34.101  25.714   2.580  0.00  0.00    -0.446 OA
BRANCH  17  19
ATOM     18  O   UNL     1     -36.137  24.975   1.777  0.00  0.00    -0.250 OA
ATOM     19  C   UNL     1     -34.914  24.944   1.801  0.00  0.00    +0.318 C 
ATOM     20  C   UNL     1     -34.081  24.033   0.951  0.00  0.00    +0.121 C 
ENDBRANCH  17  19
ENDBRANCH   4  17
BRANCH   6  21
ATOM     21  O   UNL     1     -31.150  28.227   4.760  0.00  0.00    -0.422 OA
BRANCH  21  23
ATOM     22  O   UNL     1     -29.741  27.726   6.520  0.00  0.00    -0.250 OA
ATOM     23  C   UNL     1     -30.631  28.393   6.012  0.00  0.00    +0.319 C 
ATOM     24  C   UNL     1     -31.319  29.535   6.696  0.00  0.00    +0.121 C 
ENDBRANCH  21  23
ENDBRANCH   6  21
BRANCH   5  25
ATOM     25  C   UNL     1     -34.381  24.856   5.329  0.00  0.00    +0.242 C 
BRANCH  25  26
ATOM     26  O   UNL     1     -35.753  24.509   5.270  0.00  0.00    -0.446 OA
BRANCH  26  28
ATOM     27  O   UNL     1     -36.723  22.718   4.181  0.00  0.00    -0.250 OA
ATOM     28  C   UNL     1     -36.029  23.181   5.075  0.00  0.00    +0.318 C 
ATOM     29  C   UNL     1     -35.351  22.355   6.126  0.00  0.00    +0.121 C 
ENDBRANCH  26  28
ENDBRANCH  25  26
ENDBRANCH   5  25
TORSDOF 11
ENDMDL
MODEL 5
REMARK VINA RESULT:      -5.0      3.378      6.737
REMARK  Name = 198515
REMARK  11 active torsions:
REMARK  status: ('A' for Active; 'I' for Inactive)
REMARK    1  A    between atoms: C_2  and  O_13
REMARK    2  A    between atoms: C_3  and  N_8
REMARK    3  A    between atoms: C_4  and  O_17
REMARK    4  A    between atoms: C_5  and  C_25
REMARK    5  A    between atoms: C_6  and  O_21
REMARK    6  A    between atoms: C_9  and  C_12
REMARK    7  A    between atoms: O_13  and  C_15
REMARK    8  A    between atoms: O_17  and  C_19
REMARK    9  A    between atoms: O_21  and  C_23
REMARK   10  A    between atoms: C_25  and  O_26
REMARK   11  A    between atoms: O_26  and  C_28
REMARK                            x       y       z     vdW  Elec       q    Type
REMARK                         _______ _______ _______ _____ _____    ______ ____
ROOT
ATOM      1  O   UNL     1     -34.410  27.017   4.501  0.00  0.00    -0.314 OA
ATOM      2  C   UNL     1     -35.132  27.593   1.787  0.00  0.00    +0.235 C 
ATOM      3  C   UNL     1     -36.050  26.779   2.703  0.00  0.00    +0.187 C 
ATOM      4  C   UNL     1     -34.202  28.500   2.596  0.00  0.00    +0.241 C 
ATOM      5  C   UNL     1     -33.462  27.674   3.652  0.00  0.00    +0.206 C 
ATOM      6  C   UNL     1     -35.237  26.084   3.805  0.00  0.00    +0.312 C 
ENDROOT
BRANCH   3   8
ATOM      7  O   UNL     1     -38.911  26.651   2.356  0.00  0.00    -0.274 OA
ATOM      8  N   UNL     1     -36.791  25.802   1.932  0.00  0.00    -0.297 N 
ATOM      9  C   UNL     1     -38.170  25.825   1.826  0.00  0.00    +0.234 C 
ATOM     10  H   UNL     1     -36.292  25.093   1.465  0.00  0.00    +0.150 HD
BRANCH   9  12
ATOM     11 BR   UNL     1     -39.963  23.729   2.106  0.00  0.00    -0.070 Br
ATOM     12  C   UNL     1     -38.709  24.697   0.988  0.00  0.00    +0.152 C 
ENDBRANCH   9  12
ENDBRANCH   3   8
BRANCH   2  13
ATOM     13  O   UNL     1     -35.921  28.384   0.901  0.00  0.00    -0.446 OA
BRANCH  13  15
ATOM     14  O   UNL     1     -36.047  27.019  -0.957  0.00  0.00    -0.250 OA
ATOM     15  C   UNL     1     -35.794  28.092  -0.426  0.00  0.00    +0.318 C 
ATOM     16  C   UNL     1     -35.292  29.296  -1.164  0.00  0.00    +0.121 C 
ENDBRANCH  13  15
ENDBRANCH   2  13
BRANCH   4  17
ATOM     17  O   UNL     1     -34.969  29.513   3.250  0.00  0.00    -0.446 OA
BRANCH  17  19
ATOM     18  O   UNL     1     -33.659  31.364   2.809  0.00  0.00    -0.250 OA
ATOM     19  C   UNL     1     -34.739  30.789   2.827  0.00  0.00    +0.318 C 
ATOM     20  C   UNL     1     -36.027  31.407   2.372  0.00  0.00    +0.121 C 
ENDBRANCH  17  19
ENDBRANCH   4  17
BRANCH   6  21
ATOM     21  O   UNL     1     -36.152  25.486   4.724  0.00  0.00    -0.422 OA
BRANCH  21  23
ATOM     22  O   UNL     1     -36.962  23.408   4.123  0.00  0.00    -0.250 OA
ATOM     23  C   UNL     1     -36.174  24.121   4.729  0.00  0.00    +0.319 C 
ATOM     24  C   UNL     1     -35.072  23.602   5.601  0.00  0.00    +0.121 C 
ENDBRANCH  21  23
ENDBRANCH   6  21
BRANCH   5  25
ATOM     25  C   UNL     1     -32.572  28.534   4.542  0.00  0.00    +0.242 C 
BRANCH  25  26
ATOM     26  O   UNL     1     -31.945  27.698   5.497  0.00  0.00    -0.446 OA
BRANCH  26  28
ATOM     27  O   UNL     1     -29.812  27.832   6.375  0.00  0.00    -0.250 OA
ATOM     28  C   UNL     1     -30.944  28.274   6.235  0.00  0.00    +0.318 C 
ATOM     29  C   UNL     1     -31.432  29.546   6.860  0.00  0.00    +0.121 C 
ENDBRANCH  26  28
ENDBRANCH  25  26
ENDBRANCH   5  25
TORSDOF 11
ENDMDL
MODEL 6
REMARK VINA RESULT:      -5.0      2.314      5.081
REMARK  Name = 198515
REMARK  11 active torsions:
REMARK  status: ('A' for Active; 'I' for Inactive)
REMARK    1  A    between atoms: C_2  and  O_13
REMARK    2  A    between atoms: C_3  and  N_8
REMARK    3  A    between atoms: C_4  and  O_17
REMARK    4  A    between atoms: C_5  and  C_25
REMARK    5  A    between atoms: C_6  and  O_21
REMARK    6  A    between atoms: C_9  and  C_12
REMARK    7  A    between atoms: O_13  and  C_15
REMARK    8  A    between atoms: O_17  and  C_19
REMARK    9  A    between atoms: O_21  and  C_23
REMARK   10  A    between atoms: C_25  and  O_26
REMARK   11  A    between atoms: O_26  and  C_28
REMARK                            x       y       z     vdW  Elec       q    Type
REMARK                         _______ _______ _______ _____ _____    ______ ____
ROOT
ATOM      1  O   UNL     1     -38.802  25.755   3.244  0.00  0.00    -0.314 OA
ATOM      2  C   UNL     1     -39.130  23.253   1.883  0.00  0.00    +0.235 C 
ATOM      3  C   UNL     1     -39.989  24.472   1.534  0.00  0.00    +0.187 C 
ATOM      4  C   UNL     1     -37.801  23.673   2.514  0.00  0.00    +0.241 C 
ATOM      5  C   UNL     1     -38.061  24.615   3.693  0.00  0.00    +0.206 C 
ATOM      6  C   UNL     1     -40.094  25.422   2.737  0.00  0.00    +0.312 C 
ENDROOT
BRANCH   3   8
ATOM      7  O   UNL     1     -41.098  24.667  -1.122  0.00  0.00    -0.274 OA
ATOM      8  N   UNL     1     -41.309  24.052   1.108  0.00  0.00    -0.297 N 
ATOM      9  C   UNL     1     -41.750  24.188  -0.196  0.00  0.00    +0.234 C 
ATOM     10  H   UNL     1     -41.915  23.654   1.774  0.00  0.00    +0.150 HD
BRANCH   9  12
ATOM     11 BR   UNL     1     -44.230  25.252  -0.832  0.00  0.00    -0.070 Br
ATOM     12  C   UNL     1     -43.159  23.697  -0.388  0.00  0.00    +0.152 C 
ENDBRANCH   9  12
ENDBRANCH   3   8
BRANCH   2  13
ATOM     13  O   UNL     1     -38.882  22.492   0.703  0.00  0.00    -0.446 OA
BRANCH  13  15
ATOM     14  O   UNL     1     -40.540  20.943   1.133  0.00  0.00    -0.250 OA
ATOM     15  C   UNL     1     -39.451  21.252   0.668  0.00  0.00    +0.318 C 
ATOM     16  C   UNL     1     -38.537  20.295  -0.036  0.00  0.00    +0.121 C 
ENDBRANCH  13  15
ENDBRANCH   2  13
BRANCH   4  17
ATOM     17  O   UNL     1     -37.002  24.352   1.543  0.00  0.00    -0.446 OA
BRANCH  17  19
ATOM     18  O   UNL     1     -34.734  24.701   1.274  0.00  0.00    -0.250 OA
ATOM     19  C   UNL     1     -35.693  23.972   1.491  0.00  0.00    +0.318 C 
ATOM     20  C   UNL     1     -35.586  22.498   1.744  0.00  0.00    +0.121 C 
ENDBRANCH  17  19
ENDBRANCH   4  17
BRANCH   6  21
ATOM     21  O   UNL     1     -40.755  26.613   2.307  0.00  0.00    -0.422 OA
BRANCH  21  23
ATOM     22  O   UNL     1     -41.597  27.734   4.142  0.00  0.00    -0.250 OA
ATOM     23  C   UNL     1     -41.746  27.066   3.129  0.00  0.00    +0.319 C 
ATOM     24  C   UNL     1     -43.078  26.622   2.606  0.00  0.00    +0.121 C 
ENDBRANCH  21  23
ENDBRANCH   6  21
BRANCH   5  25
ATOM     25  C   UNL     1     -36.770  25.128   4.321  0.00  0.00    +0.242 C 
BRANCH  25  26
ATOM     26  O   UNL     1     -36.444  24.301   5.423  0.00  0.00    -0.446 OA
BRANCH  26  28
ATOM     27  O   UNL     1     -34.249  24.013   4.761  0.00  0.00    -0.250 OA
ATOM     28  C   UNL     1     -35.257  23.622   5.333  0.00  0.00    +0.318 C 
ATOM     29  C   UNL     1     -35.362  22.307   6.045  0.00  0.00    +0.121 C 
ENDBRANCH  26  28
ENDBRANCH  25  26
ENDBRANCH   5  25
TORSDOF 11
ENDMDL
MODEL 7
REMARK VINA RESULT:      -4.9      3.213      6.001
REMARK  Name = 198515
REMARK  11 active torsions:
REMARK  status: ('A' for Active; 'I' for Inactive)
REMARK    1  A    between atoms: C_2  and  O_13
REMARK    2  A    between atoms: C_3  and  N_8
REMARK    3  A    between atoms: C_4  and  O_17
REMARK    4  A    between atoms: C_5  and  C_25
REMARK    5  A    between atoms: C_6  and  O_21
REMARK    6  A    between atoms: C_9  and  C_12
REMARK    7  A    between atoms: O_13  and  C_15
REMARK    8  A    between atoms: O_17  and  C_19
REMARK    9  A    between atoms: O_21  and  C_23
REMARK   10  A    between atoms: C_25  and  O_26
REMARK   11  A    between atoms: O_26  and  C_28
REMARK                            x       y       z     vdW  Elec       q    Type
REMARK                         _______ _______ _______ _____ _____    ______ ____
ROOT
ATOM      1  O   UNL     1     -37.564  22.209   1.990  0.00  0.00    -0.314 OA
ATOM      2  C   UNL     1     -35.073  20.887   1.475  0.00  0.00    +0.235 C 
ATOM      3  C   UNL     1     -36.317  20.609   0.626  0.00  0.00    +0.187 C 
ATOM      4  C   UNL     1     -35.147  22.267   2.132  0.00  0.00    +0.241 C 
ATOM      5  C   UNL     1     -36.469  22.411   2.891  0.00  0.00    +0.206 C 
ATOM      6  C   UNL     1     -37.595  20.897   1.427  0.00  0.00    +0.312 C 
ENDROOT
BRANCH   3   8
ATOM      7  O   UNL     1     -36.069  19.700  -2.100  0.00  0.00    -0.274 OA
ATOM      8  N   UNL     1     -36.312  19.237   0.162  0.00  0.00    -0.297 N 
ATOM      9  C   UNL     1     -36.188  18.901  -1.174  0.00  0.00    +0.234 C 
ATOM     10  H   UNL     1     -36.401  18.514   0.825  0.00  0.00    +0.150 HD
BRANCH   9  12
ATOM     11 BR   UNL     1     -37.686  16.727  -0.331  0.00  0.00    -0.070 Br
ATOM     12  C   UNL     1     -36.228  17.415  -1.408  0.00  0.00    +0.152 C 
ENDBRANCH   9  12
ENDBRANCH   3   8
BRANCH   2  13
ATOM     13  O   UNL     1     -33.908  20.807   0.656  0.00  0.00    -0.446 OA
BRANCH  13  15
ATOM     14  O   UNL     1     -33.378  18.741   1.540  0.00  0.00    -0.250 OA
ATOM     15  C   UNL     1     -33.095  19.735   0.885  0.00  0.00    +0.318 C 
ATOM     16  C   UNL     1     -31.775  19.945   0.208  0.00  0.00    +0.121 C 
ENDBRANCH  13  15
ENDBRANCH   2  13
BRANCH   4  17
ATOM     17  O   UNL     1     -35.072  23.281   1.128  0.00  0.00    -0.446 OA
BRANCH  17  19
ATOM     18  O   UNL     1     -33.780  24.890   2.167  0.00  0.00    -0.250 OA
ATOM     19  C   UNL     1     -34.014  24.135   1.233  0.00  0.00    +0.318 C 
ATOM     20  C   UNL     1     -33.151  24.018   0.013  0.00  0.00    +0.121 C 
ENDBRANCH  17  19
ENDBRANCH   4  17
BRANCH   6  21
ATOM     21  O   UNL     1     -38.709  20.789   0.541  0.00  0.00    -0.422 OA
BRANCH  21  23
ATOM     22  O   UNL     1     -40.420  21.101   2.062  0.00  0.00    -0.250 OA
ATOM     23  C   UNL     1     -39.876  21.337   0.992  0.00  0.00    +0.319 C 
ATOM     24  C   UNL     1     -40.412  22.293  -0.029  0.00  0.00    +0.121 C 
ENDBRANCH  21  23
ENDBRANCH   6  21
BRANCH   5  25
ATOM     25  C   UNL     1     -36.636  23.795   3.509  0.00  0.00    +0.242 C 
BRANCH  25  26
ATOM     26  O   UNL     1     -36.642  23.663   4.918  0.00  0.00    -0.446 OA
BRANCH  26  28
ATOM     27  O   UNL     1     -34.491  24.353   5.401  0.00  0.00    -0.250 OA
ATOM     28  C   UNL     1     -35.415  23.559   5.518  0.00  0.00    +0.318 C 
ATOM     29  C   UNL     1     -35.353  22.317   6.355  0.00  0.00    +0.121 C 
ENDBRANCH  26  28
ENDBRANCH  25  26
ENDBRANCH   5  25
TORSDOF 11
ENDMDL
MODEL 8
REMARK VINA RESULT:      -4.9      3.071      5.984
REMARK  Name = 198515
REMARK  11 active torsions:
REMARK  status: ('A' for Active; 'I' for Inactive)
REMARK    1  A    between atoms: C_2  and  O_13
REMARK    2  A    between atoms: C_3  and  N_8
REMARK    3  A    between atoms: C_4  and  O_17
REMARK    4  A    between atoms: C_5  and  C_25
REMARK    5  A    between atoms: C_6  and  O_21
REMARK    6  A    between atoms: C_9  and  C_12
REMARK    7  A    between atoms: O_13  and  C_15
REMARK    8  A    between atoms: O_17  and  C_19
REMARK    9  A    between atoms: O_21  and  C_23
REMARK   10  A    between atoms: C_25  and  O_26
REMARK   11  A    between atoms: O_26  and  C_28
REMARK                            x       y       z     vdW  Elec       q    Type
REMARK                         _______ _______ _______ _____ _____    ______ ____
ROOT
ATOM      1  O   UNL     1     -34.632  25.694   4.051  0.00  0.00    -0.314 OA
ATOM      2  C   UNL     1     -36.217  26.677   1.873  0.00  0.00    +0.235 C 
ATOM      3  C   UNL     1     -36.840  25.869   3.015  0.00  0.00    +0.187 C 
ATOM      4  C   UNL     1     -34.924  27.363   2.320  0.00  0.00    +0.241 C 
ATOM      5  C   UNL     1     -33.980  26.335   2.948  0.00  0.00    +0.206 C 
ATOM      6  C   UNL     1     -35.792  24.955   3.666  0.00  0.00    +0.312 C 
ENDROOT
BRANCH   3   8
ATOM      7  O   UNL     1     -39.642  26.514   3.240  0.00  0.00    -0.274 OA
ATOM      8  N   UNL     1     -37.956  25.086   2.525  0.00  0.00    -0.297 N 
ATOM      9  C   UNL     1     -39.272  25.482   2.683  0.00  0.00    +0.234 C 
ATOM     10  H   UNL     1     -37.770  24.237   2.062  0.00  0.00    +0.150 HD
BRANCH   9  12
ATOM     11 BR   UNL     1     -39.320  22.798   1.991  0.00  0.00    -0.070 Br
ATOM     12  C   UNL     1     -40.251  24.495   2.108  0.00  0.00    +0.152 C 
ENDBRANCH   9  12
ENDBRANCH   3   8
BRANCH   2  13
ATOM     13  O   UNL     1     -37.148  27.656   1.417  0.00  0.00    -0.446 OA
BRANCH  13  15
ATOM     14  O   UNL     1     -38.144  26.629  -0.395  0.00  0.00    -0.250 OA
ATOM     15  C   UNL     1     -37.522  27.554   0.109  0.00  0.00    +0.318 C 
ATOM     16  C   UNL     1     -37.056  28.761  -0.647  0.00  0.00    +0.121 C 
ENDBRANCH  13  15
ENDBRANCH   2  13
BRANCH   4  17
ATOM     17  O   UNL     1     -35.226  28.371   3.287  0.00  0.00    -0.446 OA
BRANCH  17  19
ATOM     18  O   UNL     1     -35.308  30.671   3.492  0.00  0.00    -0.250 OA
ATOM     19  C   UNL     1     -34.980  29.654   2.895  0.00  0.00    +0.318 C 
ATOM     20  C   UNL     1     -34.229  29.649   1.598  0.00  0.00    +0.121 C 
ENDBRANCH  17  19
ENDBRANCH   4  17
BRANCH   6  21
ATOM     21  O   UNL     1     -36.378  24.360   4.824  0.00  0.00    -0.422 OA
BRANCH  21  23
ATOM     22  O   UNL     1     -35.967  22.516   6.153  0.00  0.00    -0.250 OA
ATOM     23  C   UNL     1     -36.029  23.061   5.060  0.00  0.00    +0.319 C 
ATOM     24  C   UNL     1     -35.726  22.376   3.763  0.00  0.00    +0.121 C 
ENDBRANCH  21  23
ENDBRANCH   6  21
BRANCH   5  25
ATOM     25  C   UNL     1     -32.701  26.970   3.481  0.00  0.00    +0.242 C 
BRANCH  25  26
ATOM     26  O   UNL     1     -32.756  26.978   4.896  0.00  0.00    -0.446 OA
BRANCH  26  28
ATOM     27  O   UNL     1     -32.316  28.340   6.709  0.00  0.00    -0.250 OA
ATOM     28  C   UNL     1     -32.271  28.103   5.510  0.00  0.00    +0.318 C 
ATOM     29  C   UNL     1     -31.665  29.023   4.493  0.00  0.00    +0.121 C 
ENDBRANCH  26  28
ENDBRANCH  25  26
ENDBRANCH   5  25
TORSDOF 11
ENDMDL
MODEL 9
REMARK VINA RESULT:      -4.9      1.976      5.238
REMARK  Name = 198515
REMARK  11 active torsions:
REMARK  status: ('A' for Active; 'I' for Inactive)
REMARK    1  A    between atoms: C_2  and  O_13
REMARK    2  A    between atoms: C_3  and  N_8
REMARK    3  A    between atoms: C_4  and  O_17
REMARK    4  A    between atoms: C_5  and  C_25
REMARK    5  A    between atoms: C_6  and  O_21
REMARK    6  A    between atoms: C_9  and  C_12
REMARK    7  A    between atoms: O_13  and  C_15
REMARK    8  A    between atoms: O_17  and  C_19
REMARK    9  A    between atoms: O_21  and  C_23
REMARK   10  A    between atoms: C_25  and  O_26
REMARK   11  A    between atoms: O_26  and  C_28
REMARK                            x       y       z     vdW  Elec       q    Type
REMARK                         _______ _______ _______ _____ _____    ______ ____
ROOT
ATOM      1  O   UNL     1     -34.902  21.504   2.593  0.00  0.00    -0.314 OA
ATOM      2  C   UNL     1     -37.530  21.264   1.473  0.00  0.00    +0.235 C 
ATOM      3  C   UNL     1     -37.091  22.527   2.219  0.00  0.00    +0.187 C 
ATOM      4  C   UNL     1     -36.327  20.507   0.906  0.00  0.00    +0.241 C 
ATOM      5  C   UNL     1     -35.302  20.256   2.015  0.00  0.00    +0.206 C 
ATOM      6  C   UNL     1     -35.976  22.201   3.224  0.00  0.00    +0.312 C 
ENDROOT
BRANCH   3   8
ATOM      7  O   UNL     1     -38.239  25.124   1.712  0.00  0.00    -0.274 OA
ATOM      8  N   UNL     1     -38.221  23.128   2.899  0.00  0.00    -0.297 N 
ATOM      9  C   UNL     1     -38.699  24.386   2.581  0.00  0.00    +0.234 C 
ATOM     10  H   UNL     1     -38.665  22.620   3.615  0.00  0.00    +0.150 HD
BRANCH   9  12
ATOM     11 BR   UNL     1     -40.945  25.995   2.357  0.00  0.00    -0.070 Br
ATOM     12  C   UNL     1     -39.866  24.799   3.436  0.00  0.00    +0.152 C 
ENDBRANCH   9  12
ENDBRANCH   3   8
BRANCH   2  13
ATOM     13  O   UNL     1     -38.416  21.620   0.413  0.00  0.00    -0.446 OA
BRANCH  13  15
ATOM     14  O   UNL     1     -40.365  21.143   1.557  0.00  0.00    -0.250 OA
ATOM     15  C   UNL     1     -39.696  21.161   0.533  0.00  0.00    +0.318 C 
ATOM     16  C   UNL     1     -40.185  20.672  -0.797  0.00  0.00    +0.121 C 
ENDBRANCH  13  15
ENDBRANCH   2  13
BRANCH   4  17
ATOM     17  O   UNL     1     -35.715  21.284  -0.126  0.00  0.00    -0.446 OA
BRANCH  17  19
ATOM     18  O   UNL     1     -36.673  20.203  -1.929  0.00  0.00    -0.250 OA
ATOM     19  C   UNL     1     -35.716  20.717  -1.367  0.00  0.00    +0.318 C 
ATOM     20  C   UNL     1     -34.345  20.814  -1.965  0.00  0.00    +0.121 C 
ENDBRANCH  17  19
ENDBRANCH   4  17
BRANCH   6  21
ATOM     21  O   UNL     1     -35.489  23.431   3.762  0.00  0.00    -0.422 OA
BRANCH  21  23
ATOM     22  O   UNL     1     -36.370  24.627   5.531  0.00  0.00    -0.250 OA
ATOM     23  C   UNL     1     -35.781  23.656   5.077  0.00  0.00    +0.319 C 
ATOM     24  C   UNL     1     -35.270  22.520   5.909  0.00  0.00    +0.121 C 
ENDBRANCH  21  23
ENDBRANCH   6  21
BRANCH   5  25
ATOM     25  C   UNL     1     -34.044  19.568   1.498  0.00  0.00    +0.242 C 
BRANCH  25  26
ATOM     26  O   UNL     1     -34.425  18.409   0.780  0.00  0.00    -0.446 OA
BRANCH  26  28
ATOM     27  O   UNL     1     -33.582  16.391   0.035  0.00  0.00    -0.250 OA
ATOM     28  C   UNL     1     -33.438  17.483   0.567  0.00  0.00    +0.318 C 
ATOM     29  C   UNL     1     -32.129  17.998   1.084  0.00  0.00    +0.121 C 
ENDBRANCH  26  28
ENDBRANCH  25  26
ENDBRANCH   5  25
TORSDOF 11
ENDMDL
