MODEL 1
REMARK VINA RESULT:      -7.4      0.000      0.000
REMARK  Name = 21150962
REMARK  7 active torsions:
REMARK  status: ('A' for Active; 'I' for Inactive)
REMARK    1  A    between atoms: C_8  and  O_25
REMARK    2  A    between atoms: C_14  and  O_27
REMARK    3  A    between atoms: C_16  and  O_29
REMARK    4  A    between atoms: C_17  and  O_31
REMARK    5  A    between atoms: O_31  and  C_33
REMARK    6  A    between atoms: C_33  and  C_34
REMARK    7  A    between atoms: C_34  and  C_36
REMARK                            x       y       z     vdW  Elec       q    Type
REMARK                         _______ _______ _______ _____ _____    ______ ____
ROOT
ATOM      1  O   UNL     1     -37.422  21.181   0.744  0.00  0.00    -0.332 OA
ATOM      2  O   UNL     1     -33.312  23.768   0.316  0.00  0.00    -0.450 OA
ATOM      3  O   UNL     1     -31.422  23.129  -0.719  0.00  0.00    -0.246 OA
ATOM      4  O   UNL     1     -35.123  22.370   6.697  0.00  0.00    -0.289 OA
ATOM      5  C   UNL     1     -35.372  22.357   0.398  0.00  0.00    +0.076 C 
ATOM      6  C   UNL     1     -35.332  21.648   1.778  0.00  0.00    +0.063 C 
ATOM      7  C   UNL     1     -35.590  22.573   3.052  0.00  0.00    +0.040 C 
ATOM      8  C   UNL     1     -36.346  20.522   1.448  0.00  0.00    +0.213 C 
ATOM      9  C   UNL     1     -34.767  23.756   0.355  0.00  0.00    +0.172 C 
ATOM     10  C   UNL     1     -34.658  21.499  -0.700  0.00  0.00    +0.078 C 
ATOM     11  C   UNL     1     -34.777  23.912   2.875  0.00  0.00    +0.025 C 
ATOM     12  C   UNL     1     -36.883  22.349   0.095  0.00  0.00    +0.149 C 
ATOM     13  C   UNL     1     -35.149  24.621   1.558  0.00  0.00    +0.048 C 
ATOM     14  C   UNL     1     -35.720  19.470   0.496  0.00  0.00    +0.180 C 
ATOM     15  C   UNL     1     -35.237  20.093  -0.790  0.00  0.00    -0.009 C 
ATOM     16  C   UNL     1     -34.969  21.906   4.329  0.00  0.00    +0.172 C 
ATOM     17  C   UNL     1     -33.149  21.478  -0.476  0.00  0.00    +0.270 C 
ATOM     18  C   UNL     1     -37.095  22.850   3.312  0.00  0.00    +0.003 C 
ATOM     19  C   UNL     1     -34.810  24.797   4.119  0.00  0.00    -0.041 C 
ATOM     20  C   UNL     1     -32.562  22.859  -0.344  0.00  0.00    +0.358 C 
ATOM     21  C   UNL     1     -35.022  22.811   5.553  0.00  0.00    +0.199 C 
ATOM     22  C   UNL     1     -34.915  24.275   5.352  0.00  0.00    +0.031 C 
ATOM     23  C   UNL     1     -35.419  19.480  -1.972  0.00  0.00    -0.006 C 
ATOM     24  C   UNL     1     -34.643  26.284   3.964  0.00  0.00    +0.026 C 
ENDROOT
BRANCH   8  25
ATOM     25  O   UNL     1     -36.844  19.812   2.567  0.00  0.00    -0.362 OA
ATOM     26  H   UNL     1     -36.620  18.873   2.481  0.00  0.00    +0.213 HD
ENDBRANCH   8  25
BRANCH  14  27
ATOM     27  O   UNL     1     -34.671  18.753   1.141  0.00  0.00    -0.376 OA
ATOM     28  H   UNL     1     -34.462  17.954   0.631  0.00  0.00    +0.211 HD
ENDBRANCH  14  27
BRANCH  16  29
ATOM     29  O   UNL     1     -35.631  20.710   4.694  0.00  0.00    -0.377 OA
ATOM     30  H   UNL     1     -35.093  19.948   4.428  0.00  0.00    +0.211 HD
ENDBRANCH  16  29
BRANCH  17  31
ATOM     31  O   UNL     1     -32.487  20.855  -1.572  0.00  0.00    -0.440 OA
BRANCH  31  33
ATOM     32  O   UNL     1     -32.065  18.627  -1.991  0.00  0.00    -0.250 OA
ATOM     33  C   UNL     1     -31.923  19.635  -1.313  0.00  0.00    +0.317 C 
BRANCH  33  34
ATOM     34  C   UNL     1     -31.111  19.705  -0.030  0.00  0.00    +0.099 C 
ATOM     35  C   UNL     1     -29.655  19.976  -0.398  0.00  0.00    +0.012 C 
BRANCH  34  36
ATOM     36  C   UNL     1     -31.237  18.410   0.787  0.00  0.00    +0.011 C 
ATOM     37  C   UNL     1     -29.924  17.645   0.875  0.00  0.00    +0.001 C 
ENDBRANCH  34  36
ENDBRANCH  33  34
ENDBRANCH  31  33
ENDBRANCH  17  31
TORSDOF 7
ENDMDL
MODEL 2
REMARK VINA RESULT:      -7.1      0.784      1.002
REMARK  Name = 21150962
REMARK  7 active torsions:
REMARK  status: ('A' for Active; 'I' for Inactive)
REMARK    1  A    between atoms: C_8  and  O_25
REMARK    2  A    between atoms: C_14  and  O_27
REMARK    3  A    between atoms: C_16  and  O_29
REMARK    4  A    between atoms: C_17  and  O_31
REMARK    5  A    between atoms: O_31  and  C_33
REMARK    6  A    between atoms: C_33  and  C_34
REMARK    7  A    between atoms: C_34  and  C_36
REMARK                            x       y       z     vdW  Elec       q    Type
REMARK                         _______ _______ _______ _____ _____    ______ ____
ROOT
ATOM      1  O   UNL     1     -37.328  21.100   0.769  0.00  0.00    -0.332 OA
ATOM      2  O   UNL     1     -33.373  23.929   0.432  0.00  0.00    -0.450 OA
ATOM      3  O   UNL     1     -31.420  23.400  -0.546  0.00  0.00    -0.246 OA
ATOM      4  O   UNL     1     -35.272  22.468   6.773  0.00  0.00    -0.289 OA
ATOM      5  C   UNL     1     -35.345  22.396   0.469  0.00  0.00    +0.076 C 
ATOM      6  C   UNL     1     -35.300  21.700   1.856  0.00  0.00    +0.063 C 
ATOM      7  C   UNL     1     -35.649  22.617   3.115  0.00  0.00    +0.040 C 
ATOM      8  C   UNL     1     -36.234  20.512   1.508  0.00  0.00    +0.213 C 
ATOM      9  C   UNL     1     -34.825  23.829   0.431  0.00  0.00    +0.172 C 
ATOM     10  C   UNL     1     -34.550  21.576  -0.601  0.00  0.00    +0.078 C 
ATOM     11  C   UNL     1     -34.914  24.002   2.948  0.00  0.00    +0.025 C 
ATOM     12  C   UNL     1     -36.843  22.294   0.125  0.00  0.00    +0.149 C 
ATOM     13  C   UNL     1     -35.292  24.678   1.615  0.00  0.00    +0.048 C 
ATOM     14  C   UNL     1     -35.519  19.494   0.582  0.00  0.00    +0.180 C 
ATOM     15  C   UNL     1     -35.040  20.137  -0.695  0.00  0.00    -0.009 C 
ATOM     16  C   UNL     1     -35.025  21.998   4.413  0.00  0.00    +0.172 C 
ATOM     17  C   UNL     1     -33.049  21.648  -0.336  0.00  0.00    +0.270 C 
ATOM     18  C   UNL     1     -37.175  22.803   3.331  0.00  0.00    +0.003 C 
ATOM     19  C   UNL     1     -35.036  24.892   4.183  0.00  0.00    -0.041 C 
ATOM     20  C   UNL     1     -32.551  23.064  -0.200  0.00  0.00    +0.358 C 
ATOM     21  C   UNL     1     -35.166  22.907   5.628  0.00  0.00    +0.199 C 
ATOM     22  C   UNL     1     -35.143  24.373   5.417  0.00  0.00    +0.031 C 
ATOM     23  C   UNL     1     -35.151  19.506  -1.876  0.00  0.00    -0.006 C 
ATOM     24  C   UNL     1     -34.955  26.385   4.020  0.00  0.00    +0.026 C 
ENDROOT
BRANCH   8  25
ATOM     25  O   UNL     1     -36.720  19.781   2.619  0.00  0.00    -0.362 OA
ATOM     26  H   UNL     1     -36.573  18.834   2.472  0.00  0.00    +0.213 HD
ENDBRANCH   8  25
BRANCH  14  27
ATOM     27  O   UNL     1     -34.447  18.847   1.262  0.00  0.00    -0.376 OA
ATOM     28  H   UNL     1     -34.802  18.155   1.843  0.00  0.00    +0.211 HD
ENDBRANCH  14  27
BRANCH  16  29
ATOM     29  O   UNL     1     -35.623  20.766   4.771  0.00  0.00    -0.377 OA
ATOM     30  H   UNL     1     -36.554  20.767   4.498  0.00  0.00    +0.211 HD
ENDBRANCH  16  29
BRANCH  17  31
ATOM     31  O   UNL     1     -32.320  21.060  -1.408  0.00  0.00    -0.440 OA
BRANCH  31  33
ATOM     32  O   UNL     1     -30.064  20.629  -1.200  0.00  0.00    -0.250 OA
ATOM     33  C   UNL     1     -31.235  20.307  -1.049  0.00  0.00    +0.317 C 
BRANCH  33  34
ATOM     34  C   UNL     1     -31.698  18.987  -0.456  0.00  0.00    +0.099 C 
ATOM     35  C   UNL     1     -30.637  18.504   0.529  0.00  0.00    +0.012 C 
BRANCH  34  36
ATOM     36  C   UNL     1     -31.947  17.936  -1.549  0.00  0.00    +0.011 C 
ATOM     37  C   UNL     1     -32.694  16.716  -1.026  0.00  0.00    +0.001 C 
ENDBRANCH  34  36
ENDBRANCH  33  34
ENDBRANCH  31  33
ENDBRANCH  17  31
TORSDOF 7
ENDMDL
MODEL 3
REMARK VINA RESULT:      -7.0      1.593      2.479
REMARK  Name = 21150962
REMARK  7 active torsions:
REMARK  status: ('A' for Active; 'I' for Inactive)
REMARK    1  A    between atoms: C_8  and  O_25
REMARK    2  A    between atoms: C_14  and  O_27
REMARK    3  A    between atoms: C_16  and  O_29
REMARK    4  A    between atoms: C_17  and  O_31
REMARK    5  A    between atoms: O_31  and  C_33
REMARK    6  A    between atoms: C_33  and  C_34
REMARK    7  A    between atoms: C_34  and  C_36
REMARK                            x       y       z     vdW  Elec       q    Type
REMARK                         _______ _______ _______ _____ _____    ______ ____
ROOT
ATOM      1  O   UNL     1     -37.609  23.055   2.258  0.00  0.00    -0.332 OA
ATOM      2  O   UNL     1     -33.375  23.872  -0.015  0.00  0.00    -0.450 OA
ATOM      3  O   UNL     1     -31.910  22.325  -0.727  0.00  0.00    -0.246 OA
ATOM      4  O   UNL     1     -33.795  26.510   6.215  0.00  0.00    -0.289 OA
ATOM      5  C   UNL     1     -35.547  23.301   1.079  0.00  0.00    +0.076 C 
ATOM      6  C   UNL     1     -35.286  23.428   2.604  0.00  0.00    +0.063 C 
ATOM      7  C   UNL     1     -35.086  24.909   3.163  0.00  0.00    +0.040 C 
ATOM      8  C   UNL     1     -36.510  22.603   3.081  0.00  0.00    +0.213 C 
ATOM      9  C   UNL     1     -34.762  24.261   0.192  0.00  0.00    +0.172 C 
ATOM     10  C   UNL     1     -35.257  21.847   0.575  0.00  0.00    +0.078 C 
ATOM     11  C   UNL     1     -34.144  25.697   2.174  0.00  0.00    +0.025 C 
ATOM     12  C   UNL     1     -37.069  23.529   1.011  0.00  0.00    +0.149 C 
ATOM     13  C   UNL     1     -34.708  25.689   0.740  0.00  0.00    +0.048 C 
ATOM     14  C   UNL     1     -36.299  21.089   2.814  0.00  0.00    +0.180 C 
ATOM     15  C   UNL     1     -36.049  20.805   1.354  0.00  0.00    -0.009 C 
ATOM     16  C   UNL     1     -34.287  24.866   4.512  0.00  0.00    +0.172 C 
ATOM     17  C   UNL     1     -33.760  21.554   0.596  0.00  0.00    +0.270 C 
ATOM     18  C   UNL     1     -36.424  25.660   3.397  0.00  0.00    +0.003 C 
ATOM     19  C   UNL     1     -33.741  27.071   2.705  0.00  0.00    -0.041 C 
ATOM     20  C   UNL     1     -32.954  22.595  -0.136  0.00  0.00    +0.358 C 
ATOM     21  C   UNL     1     -33.905  26.251   5.017  0.00  0.00    +0.199 C 
ATOM     22  C   UNL     1     -33.627  27.312   4.021  0.00  0.00    +0.031 C 
ATOM     23  C   UNL     1     -36.601  19.741   0.748  0.00  0.00    -0.006 C 
ATOM     24  C   UNL     1     -33.391  28.159   1.727  0.00  0.00    +0.026 C 
ENDROOT
BRANCH   8  25
ATOM     25  O   UNL     1     -36.828  22.734   4.454  0.00  0.00    -0.362 OA
ATOM     26  H   UNL     1     -37.464  23.455   4.572  0.00  0.00    +0.213 HD
ENDBRANCH   8  25
BRANCH  14  27
ATOM     27  O   UNL     1     -35.248  20.567   3.623  0.00  0.00    -0.376 OA
ATOM     28  H   UNL     1     -35.551  19.757   4.064  0.00  0.00    +0.211 HD
ENDBRANCH  14  27
BRANCH  16  29
ATOM     29  O   UNL     1     -35.017  24.252   5.558  0.00  0.00    -0.377 OA
ATOM     30  H   UNL     1     -35.159  23.316   5.346  0.00  0.00    +0.211 HD
ENDBRANCH  16  29
BRANCH  17  31
ATOM     31  O   UNL     1     -33.483  20.306  -0.033  0.00  0.00    -0.440 OA
BRANCH  31  33
ATOM     32  O   UNL     1     -33.335  18.865   1.762  0.00  0.00    -0.250 OA
ATOM     33  C   UNL     1     -32.865  19.369   0.750  0.00  0.00    +0.317 C 
BRANCH  33  34
ATOM     34  C   UNL     1     -31.485  19.062   0.193  0.00  0.00    +0.099 C 
ATOM     35  C   UNL     1     -31.607  18.874  -1.316  0.00  0.00    +0.012 C 
BRANCH  34  36
ATOM     36  C   UNL     1     -30.877  17.815   0.853  0.00  0.00    +0.011 C 
ATOM     37  C   UNL     1     -29.355  17.844   0.866  0.00  0.00    +0.001 C 
ENDBRANCH  34  36
ENDBRANCH  33  34
ENDBRANCH  31  33
ENDBRANCH  17  31
TORSDOF 7
ENDMDL
MODEL 4
REMARK VINA RESULT:      -6.7      1.689      6.553
REMARK  Name = 21150962
REMARK  7 active torsions:
REMARK  status: ('A' for Active; 'I' for Inactive)
REMARK    1  A    between atoms: C_8  and  O_25
REMARK    2  A    between atoms: C_14  and  O_27
REMARK    3  A    between atoms: C_16  and  O_29
REMARK    4  A    between atoms: C_17  and  O_31
REMARK    5  A    between atoms: O_31  and  C_33
REMARK    6  A    between atoms: C_33  and  C_34
REMARK    7  A    between atoms: C_34  and  C_36
REMARK                            x       y       z     vdW  Elec       q    Type
REMARK                         _______ _______ _______ _____ _____    ______ ____
ROOT
ATOM      1  O   UNL     1     -36.648  21.601  -1.240  0.00  0.00    -0.332 OA
ATOM      2  O   UNL     1     -34.792  20.272   3.066  0.00  0.00    -0.450 OA
ATOM      3  O   UNL     1     -35.167  21.252   5.053  0.00  0.00    -0.246 OA
ATOM      4  O   UNL     1     -30.183  22.092  -1.559  0.00  0.00    -0.289 OA
ATOM      5  C   UNL     1     -35.870  21.025   0.943  0.00  0.00    +0.076 C 
ATOM      6  C   UNL     1     -34.818  21.927   0.243  0.00  0.00    +0.063 C 
ATOM      7  C   UNL     1     -33.540  21.183  -0.355  0.00  0.00    +0.040 C 
ATOM      8  C   UNL     1     -35.792  22.646  -0.726  0.00  0.00    +0.213 C 
ATOM      9  C   UNL     1     -35.309  19.871   1.767  0.00  0.00    +0.172 C 
ATOM     10  C   UNL     1     -36.802  21.864   1.879  0.00  0.00    +0.078 C 
ATOM     11  C   UNL     1     -33.036  20.123   0.699  0.00  0.00    +0.025 C 
ATOM     12  C   UNL     1     -36.711  20.550  -0.258  0.00  0.00    +0.149 C 
ATOM     13  C   UNL     1     -34.157  19.136   1.078  0.00  0.00    +0.048 C 
ATOM     14  C   UNL     1     -36.680  23.667   0.032  0.00  0.00    +0.180 C 
ATOM     15  C   UNL     1     -37.474  23.012   1.134  0.00  0.00    -0.009 C 
ATOM     16  C   UNL     1     -32.349  22.195  -0.490  0.00  0.00    +0.172 C 
ATOM     17  C   UNL     1     -36.040  22.354   3.107  0.00  0.00    +0.270 C 
ATOM     18  C   UNL     1     -33.803  20.530  -1.739  0.00  0.00    +0.003 C 
ATOM     19  C   UNL     1     -31.709  19.477   0.304  0.00  0.00    -0.041 C 
ATOM     20  C   UNL     1     -35.335  21.239   3.835  0.00  0.00    +0.358 C 
ATOM     21  C   UNL     1     -31.043  21.521  -0.889  0.00  0.00    +0.199 C 
ATOM     22  C   UNL     1     -30.793  20.137  -0.423  0.00  0.00    +0.031 C 
ATOM     23  C   UNL     1     -38.753  23.349   1.366  0.00  0.00    -0.006 C 
ATOM     24  C   UNL     1     -31.390  18.096   0.808  0.00  0.00    +0.026 C 
ENDROOT
BRANCH   8  25
ATOM     25  O   UNL     1     -35.175  23.352  -1.787  0.00  0.00    -0.362 OA
ATOM     26  H   UNL     1     -35.168  24.300  -1.584  0.00  0.00    +0.213 HD
ENDBRANCH   8  25
BRANCH  14  27
ATOM     27  O   UNL     1     -35.901  24.749   0.537  0.00  0.00    -0.376 OA
ATOM     28  H   UNL     1     -36.415  25.570   0.484  0.00  0.00    +0.211 HD
ENDBRANCH  14  27
BRANCH  16  29
ATOM     29  O   UNL     1     -32.592  23.193  -1.464  0.00  0.00    -0.377 OA
ATOM     30  H   UNL     1     -31.769  23.386  -1.940  0.00  0.00    +0.211 HD
ENDBRANCH  16  29
BRANCH  17  31
ATOM     31  O   UNL     1     -36.928  22.957   4.043  0.00  0.00    -0.440 OA
BRANCH  31  33
ATOM     32  O   UNL     1     -37.754  25.100   4.256  0.00  0.00    -0.250 OA
ATOM     33  C   UNL     1     -36.819  24.315   4.179  0.00  0.00    +0.317 C 
BRANCH  33  34
ATOM     34  C   UNL     1     -35.353  24.714   4.189  0.00  0.00    +0.099 C 
ATOM     35  C   UNL     1     -34.856  24.679   5.632  0.00  0.00    +0.012 C 
BRANCH  34  36
ATOM     36  C   UNL     1     -35.146  26.106   3.573  0.00  0.00    +0.011 C 
ATOM     37  C   UNL     1     -33.943  26.832   4.161  0.00  0.00    +0.001 C 
ENDBRANCH  34  36
ENDBRANCH  33  34
ENDBRANCH  31  33
ENDBRANCH  17  31
TORSDOF 7
ENDMDL
MODEL 5
REMARK VINA RESULT:      -6.7      3.558      7.166
REMARK  Name = 21150962
REMARK  7 active torsions:
REMARK  status: ('A' for Active; 'I' for Inactive)
REMARK    1  A    between atoms: C_8  and  O_25
REMARK    2  A    between atoms: C_14  and  O_27
REMARK    3  A    between atoms: C_16  and  O_29
REMARK    4  A    between atoms: C_17  and  O_31
REMARK    5  A    between atoms: O_31  and  C_33
REMARK    6  A    between atoms: C_33  and  C_34
REMARK    7  A    between atoms: C_34  and  C_36
REMARK                            x       y       z     vdW  Elec       q    Type
REMARK                         _______ _______ _______ _____ _____    ______ ____
ROOT
ATOM      1  O   UNL     1     -36.797  23.090   4.244  0.00  0.00    -0.332 OA
ATOM      2  O   UNL     1     -33.713  24.664   0.813  0.00  0.00    -0.450 OA
ATOM      3  O   UNL     1     -32.160  26.273   1.036  0.00  0.00    -0.246 OA
ATOM      4  O   UNL     1     -40.271  25.522  -0.670  0.00  0.00    -0.289 OA
ATOM      5  C   UNL     1     -35.183  23.912   2.687  0.00  0.00    +0.076 C 
ATOM      6  C   UNL     1     -36.523  24.672   2.491  0.00  0.00    +0.063 C 
ATOM      7  C   UNL     1     -37.416  24.215   1.250  0.00  0.00    +0.040 C 
ATOM      8  C   UNL     1     -37.073  24.472   3.927  0.00  0.00    +0.213 C 
ATOM      9  C   UNL     1     -34.435  23.550   1.409  0.00  0.00    +0.172 C 
ATOM     10  C   UNL     1     -34.201  24.723   3.597  0.00  0.00    +0.078 C 
ATOM     11  C   UNL     1     -36.476  24.020  -0.001  0.00  0.00    +0.025 C 
ATOM     12  C   UNL     1     -35.649  22.675   3.479  0.00  0.00    +0.149 C 
ATOM     13  C   UNL     1     -35.346  23.016   0.301  0.00  0.00    +0.048 C 
ATOM     14  C   UNL     1     -36.311  25.361   4.944  0.00  0.00    +0.180 C 
ATOM     15  C   UNL     1     -34.830  25.079   4.938  0.00  0.00    -0.009 C 
ATOM     16  C   UNL     1     -38.382  25.378   0.832  0.00  0.00    +0.172 C 
ATOM     17  C   UNL     1     -33.681  25.958   2.868  0.00  0.00    +0.270 C 
ATOM     18  C   UNL     1     -38.257  22.943   1.536  0.00  0.00    +0.003 C 
ATOM     19  C   UNL     1     -37.250  23.755  -1.291  0.00  0.00    -0.041 C 
ATOM     20  C   UNL     1     -33.091  25.631   1.520  0.00  0.00    +0.358 C 
ATOM     21  C   UNL     1     -39.143  25.082  -0.454  0.00  0.00    +0.199 C 
ATOM     22  C   UNL     1     -38.478  24.259  -1.491  0.00  0.00    +0.031 C 
ATOM     23  C   UNL     1     -34.126  25.031   6.081  0.00  0.00    -0.006 C 
ATOM     24  C   UNL     1     -36.588  22.975  -2.394  0.00  0.00    +0.026 C 
ENDROOT
BRANCH   8  25
ATOM     25  O   UNL     1     -38.451  24.755   4.090  0.00  0.00    -0.362 OA
ATOM     26  H   UNL     1     -38.555  25.625   4.506  0.00  0.00    +0.213 HD
ENDBRANCH   8  25
BRANCH  14  27
ATOM     27  O   UNL     1     -36.569  26.744   4.711  0.00  0.00    -0.376 OA
ATOM     28  H   UNL     1     -37.239  27.059   5.338  0.00  0.00    +0.211 HD
ENDBRANCH  14  27
BRANCH  16  29
ATOM     29  O   UNL     1     -39.362  25.650   1.817  0.00  0.00    -0.377 OA
ATOM     30  H   UNL     1     -40.246  25.560   1.426  0.00  0.00    +0.211 HD
ENDBRANCH  16  29
BRANCH  17  31
ATOM     31  O   UNL     1     -32.652  26.591   3.623  0.00  0.00    -0.440 OA
BRANCH  31  33
ATOM     32  O   UNL     1     -34.007  28.427   3.952  0.00  0.00    -0.250 OA
ATOM     33  C   UNL     1     -32.963  27.819   4.141  0.00  0.00    +0.317 C 
BRANCH  33  34
ATOM     34  C   UNL     1     -31.799  28.337   4.970  0.00  0.00    +0.099 C 
ATOM     35  C   UNL     1     -32.074  28.018   6.437  0.00  0.00    +0.012 C 
BRANCH  34  36
ATOM     36  C   UNL     1     -31.594  29.846   4.768  0.00  0.00    +0.011 C 
ATOM     37  C   UNL     1     -31.901  30.651   6.024  0.00  0.00    +0.001 C 
ENDBRANCH  34  36
ENDBRANCH  33  34
ENDBRANCH  31  33
ENDBRANCH  17  31
TORSDOF 7
ENDMDL
MODEL 6
REMARK VINA RESULT:      -6.7      2.311      3.985
REMARK  Name = 21150962
REMARK  7 active torsions:
REMARK  status: ('A' for Active; 'I' for Inactive)
REMARK    1  A    between atoms: C_8  and  O_25
REMARK    2  A    between atoms: C_14  and  O_27
REMARK    3  A    between atoms: C_16  and  O_29
REMARK    4  A    between atoms: C_17  and  O_31
REMARK    5  A    between atoms: O_31  and  C_33
REMARK    6  A    between atoms: C_33  and  C_34
REMARK    7  A    between atoms: C_34  and  C_36
REMARK                            x       y       z     vdW  Elec       q    Type
REMARK                         _______ _______ _______ _____ _____    ______ ____
ROOT
ATOM      1  O   UNL     1     -37.712  25.288   2.381  0.00  0.00    -0.332 OA
ATOM      2  O   UNL     1     -33.470  24.133   0.275  0.00  0.00    -0.450 OA
ATOM      3  O   UNL     1     -32.702  22.066  -0.157  0.00  0.00    -0.246 OA
ATOM      4  O   UNL     1     -32.896  27.548   6.102  0.00  0.00    -0.289 OA
ATOM      5  C   UNL     1     -35.703  24.576   1.302  0.00  0.00    +0.076 C 
ATOM      6  C   UNL     1     -35.425  24.800   2.813  0.00  0.00    +0.063 C 
ATOM      7  C   UNL     1     -34.679  26.157   3.198  0.00  0.00    +0.040 C 
ATOM      8  C   UNL     1     -36.874  24.570   3.314  0.00  0.00    +0.213 C 
ATOM      9  C   UNL     1     -34.605  25.041   0.351  0.00  0.00    +0.172 C 
ATOM     10  C   UNL     1     -35.987  23.068   0.996  0.00  0.00    +0.078 C 
ATOM     11  C   UNL     1     -33.500  26.390   2.177  0.00  0.00    +0.025 C 
ATOM     12  C   UNL     1     -37.022  25.351   1.118  0.00  0.00    +0.149 C 
ATOM     13  C   UNL     1     -34.014  26.402   0.724  0.00  0.00    +0.048 C 
ATOM     14  C   UNL     1     -37.256  23.068   3.247  0.00  0.00    +0.180 C 
ATOM     15  C   UNL     1     -37.123  22.517   1.850  0.00  0.00    -0.009 C 
ATOM     16  C   UNL     1     -33.966  25.998   4.586  0.00  0.00    +0.172 C 
ATOM     17  C   UNL     1     -34.715  22.236   1.140  0.00  0.00    +0.270 C 
ATOM     18  C   UNL     1     -35.630  27.382   3.260  0.00  0.00    +0.003 C 
ATOM     19  C   UNL     1     -32.607  27.569   2.559  0.00  0.00    -0.041 C 
ATOM     20  C   UNL     1     -33.567  22.788   0.335  0.00  0.00    +0.358 C 
ATOM     21  C   UNL     1     -33.088  27.191   4.940  0.00  0.00    +0.199 C 
ATOM     22  C   UNL     1     -32.419  27.923   3.840  0.00  0.00    +0.031 C 
ATOM     23  C   UNL     1     -38.034  21.668   1.346  0.00  0.00    -0.006 C 
ATOM     24  C   UNL     1     -31.861  28.301   1.477  0.00  0.00    +0.026 C 
ENDROOT
BRANCH   8  25
ATOM     25  O   UNL     1     -37.129  24.995   4.641  0.00  0.00    -0.362 OA
ATOM     26  H   UNL     1     -37.272  25.954   4.652  0.00  0.00    +0.213 HD
ENDBRANCH   8  25
BRANCH  14  27
ATOM     27  O   UNL     1     -36.490  22.302   4.173  0.00  0.00    -0.376 OA
ATOM     28  H   UNL     1     -35.903  22.891   4.674  0.00  0.00    +0.211 HD
ENDBRANCH  14  27
BRANCH  16  29
ATOM     29  O   UNL     1     -34.884  25.852   5.655  0.00  0.00    -0.377 OA
ATOM     30  H   UNL     1     -34.432  26.031   6.495  0.00  0.00    +0.211 HD
ENDBRANCH  16  29
BRANCH  17  31
ATOM     31  O   UNL     1     -34.931  20.904   0.685  0.00  0.00    -0.440 OA
BRANCH  31  33
ATOM     32  O   UNL     1     -34.904  19.987   2.801  0.00  0.00    -0.250 OA
ATOM     33  C   UNL     1     -34.685  19.915   1.599  0.00  0.00    +0.317 C 
BRANCH  33  34
ATOM     34  C   UNL     1     -34.067  18.714   0.904  0.00  0.00    +0.099 C 
ATOM     35  C   UNL     1     -32.561  18.740   1.149  0.00  0.00    +0.012 C 
BRANCH  34  36
ATOM     36  C   UNL     1     -34.376  18.715  -0.601  0.00  0.00    +0.011 C 
ATOM     37  C   UNL     1     -35.547  17.808  -0.957  0.00  0.00    +0.001 C 
ENDBRANCH  34  36
ENDBRANCH  33  34
ENDBRANCH  31  33
ENDBRANCH  17  31
TORSDOF 7
ENDMDL
MODEL 7
REMARK VINA RESULT:      -6.6      3.638      7.075
REMARK  Name = 21150962
REMARK  7 active torsions:
REMARK  status: ('A' for Active; 'I' for Inactive)
REMARK    1  A    between atoms: C_8  and  O_25
REMARK    2  A    between atoms: C_14  and  O_27
REMARK    3  A    between atoms: C_16  and  O_29
REMARK    4  A    between atoms: C_17  and  O_31
REMARK    5  A    between atoms: O_31  and  C_33
REMARK    6  A    between atoms: C_33  and  C_34
REMARK    7  A    between atoms: C_34  and  C_36
REMARK                            x       y       z     vdW  Elec       q    Type
REMARK                         _______ _______ _______ _____ _____    ______ ____
ROOT
ATOM      1  O   UNL     1     -35.579  24.623  -0.267  0.00  0.00    -0.332 OA
ATOM      2  O   UNL     1     -38.306  21.429   2.208  0.00  0.00    -0.450 OA
ATOM      3  O   UNL     1     -40.499  21.030   1.925  0.00  0.00    -0.246 OA
ATOM      4  O   UNL     1     -35.517  26.304   6.004  0.00  0.00    -0.289 OA
ATOM      5  C   UNL     1     -37.019  23.054   0.814  0.00  0.00    +0.076 C 
ATOM      6  C   UNL     1     -36.954  24.358   1.655  0.00  0.00    +0.063 C 
ATOM      7  C   UNL     1     -36.020  24.315   2.948  0.00  0.00    +0.040 C 
ATOM      8  C   UNL     1     -36.590  25.320   0.495  0.00  0.00    +0.213 C 
ATOM      9  C   UNL     1     -37.019  21.753   1.609  0.00  0.00    +0.172 C 
ATOM     10  C   UNL     1     -38.280  23.042  -0.113  0.00  0.00    +0.078 C 
ATOM     11  C   UNL     1     -36.263  22.951   3.699  0.00  0.00    +0.025 C 
ATOM     12  C   UNL     1     -35.776  23.208  -0.082  0.00  0.00    +0.149 C 
ATOM     13  C   UNL     1     -36.018  21.748   2.767  0.00  0.00    +0.048 C 
ATOM     14  C   UNL     1     -37.810  25.562  -0.432  0.00  0.00    +0.180 C 
ATOM     15  C   UNL     1     -38.342  24.274  -1.007  0.00  0.00    -0.009 C 
ATOM     16  C   UNL     1     -36.478  25.411   3.972  0.00  0.00    +0.172 C 
ATOM     17  C   UNL     1     -39.556  22.872   0.707  0.00  0.00    +0.270 C 
ATOM     18  C   UNL     1     -34.517  24.528   2.623  0.00  0.00    +0.003 C 
ATOM     19  C   UNL     1     -35.551  22.880   5.049  0.00  0.00    -0.041 C 
ATOM     20  C   UNL     1     -39.499  21.681   1.628  0.00  0.00    +0.358 C 
ATOM     21  C   UNL     1     -35.746  25.318   5.305  0.00  0.00    +0.199 C 
ATOM     22  C   UNL     1     -35.325  23.980   5.784  0.00  0.00    +0.031 C 
ATOM     23  C   UNL     1     -38.743  24.196  -2.287  0.00  0.00    -0.006 C 
ATOM     24  C   UNL     1     -35.161  21.536   5.600  0.00  0.00    +0.026 C 
ENDROOT
BRANCH   8  25
ATOM     25  O   UNL     1     -36.123  26.596   0.894  0.00  0.00    -0.362 OA
ATOM     26  H   UNL     1     -35.927  27.129   0.108  0.00  0.00    +0.213 HD
ENDBRANCH   8  25
BRANCH  14  27
ATOM     27  O   UNL     1     -38.836  26.281   0.247  0.00  0.00    -0.376 OA
ATOM     28  H   UNL     1     -39.497  25.659   0.588  0.00  0.00    +0.211 HD
ENDBRANCH  14  27
BRANCH  16  29
ATOM     29  O   UNL     1     -36.261  26.726   3.495  0.00  0.00    -0.377 OA
ATOM     30  H   UNL     1     -37.060  27.258   3.638  0.00  0.00    +0.211 HD
ENDBRANCH  16  29
BRANCH  17  31
ATOM     31  O   UNL     1     -40.679  22.676  -0.146  0.00  0.00    -0.440 OA
BRANCH  31  33
ATOM     32  O   UNL     1     -41.930  24.240   0.998  0.00  0.00    -0.250 OA
ATOM     33  C   UNL     1     -41.698  23.579  -0.006  0.00  0.00    +0.317 C 
BRANCH  33  34
ATOM     34  C   UNL     1     -42.527  23.621  -1.278  0.00  0.00    +0.099 C 
ATOM     35  C   UNL     1     -42.028  22.524  -2.214  0.00  0.00    +0.012 C 
BRANCH  34  36
ATOM     36  C   UNL     1     -42.447  24.998  -1.956  0.00  0.00    +0.011 C 
ATOM     37  C   UNL     1     -42.240  24.896  -3.461  0.00  0.00    +0.001 C 
ENDBRANCH  34  36
ENDBRANCH  33  34
ENDBRANCH  31  33
ENDBRANCH  17  31
TORSDOF 7
ENDMDL
MODEL 8
REMARK VINA RESULT:      -6.5      1.811      2.657
REMARK  Name = 21150962
REMARK  7 active torsions:
REMARK  status: ('A' for Active; 'I' for Inactive)
REMARK    1  A    between atoms: C_8  and  O_25
REMARK    2  A    between atoms: C_14  and  O_27
REMARK    3  A    between atoms: C_16  and  O_29
REMARK    4  A    between atoms: C_17  and  O_31
REMARK    5  A    between atoms: O_31  and  C_33
REMARK    6  A    between atoms: C_33  and  C_34
REMARK    7  A    between atoms: C_34  and  C_36
REMARK                            x       y       z     vdW  Elec       q    Type
REMARK                         _______ _______ _______ _____ _____    ______ ____
ROOT
ATOM      1  O   UNL     1     -37.832  22.839   0.907  0.00  0.00    -0.332 OA
ATOM      2  O   UNL     1     -33.045  22.734  -0.004  0.00  0.00    -0.450 OA
ATOM      3  O   UNL     1     -31.787  20.910  -0.379  0.00  0.00    -0.246 OA
ATOM      4  O   UNL     1     -34.719  25.346   6.023  0.00  0.00    -0.289 OA
ATOM      5  C   UNL     1     -35.510  22.640   0.384  0.00  0.00    +0.076 C 
ATOM      6  C   UNL     1     -35.688  22.694   1.925  0.00  0.00    +0.063 C 
ATOM      7  C   UNL     1     -35.360  24.091   2.622  0.00  0.00    +0.040 C 
ATOM      8  C   UNL     1     -37.140  22.152   1.973  0.00  0.00    +0.213 C 
ATOM      9  C   UNL     1     -34.320  23.414  -0.173  0.00  0.00    +0.172 C 
ATOM     10  C   UNL     1     -35.391  21.163  -0.121  0.00  0.00    +0.078 C 
ATOM     11  C   UNL     1     -34.028  24.663   2.002  0.00  0.00    +0.025 C 
ATOM     12  C   UNL     1     -36.864  23.196  -0.098  0.00  0.00    +0.149 C 
ATOM     13  C   UNL     1     -34.136  24.790   0.470  0.00  0.00    +0.048 C 
ATOM     14  C   UNL     1     -37.177  20.631   1.669  0.00  0.00    +0.180 C 
ATOM     15  C   UNL     1     -36.575  20.312   0.324  0.00  0.00    -0.009 C 
ATOM     16  C   UNL     1     -35.018  23.863   4.136  0.00  0.00    +0.172 C 
ATOM     17  C   UNL     1     -34.061  20.549   0.304  0.00  0.00    +0.270 C 
ATOM     18  C   UNL     1     -36.523  25.114   2.519  0.00  0.00    +0.003 C 
ATOM     19  C   UNL     1     -33.525  25.912   2.723  0.00  0.00    -0.041 C 
ATOM     20  C   UNL     1     -32.879  21.396  -0.092  0.00  0.00    +0.358 C 
ATOM     21  C   UNL     1     -34.524  25.128   4.828  0.00  0.00    +0.199 C 
ATOM     22  C   UNL     1     -33.754  26.111   4.030  0.00  0.00    +0.031 C 
ATOM     23  C   UNL     1     -37.131  19.399  -0.489  0.00  0.00    -0.006 C 
ATOM     24  C   UNL     1     -32.686  26.905   1.965  0.00  0.00    +0.026 C 
ENDROOT
BRANCH   8  25
ATOM     25  O   UNL     1     -37.813  22.337   3.205  0.00  0.00    -0.362 OA
ATOM     26  H   UNL     1     -38.713  22.655   3.038  0.00  0.00    +0.213 HD
ENDBRANCH   8  25
BRANCH  14  27
ATOM     27  O   UNL     1     -36.541  19.885   2.704  0.00  0.00    -0.376 OA
ATOM     28  H   UNL     1     -36.349  20.470   3.454  0.00  0.00    +0.211 HD
ENDBRANCH  14  27
BRANCH  16  29
ATOM     29  O   UNL     1     -36.133  23.415   4.884  0.00  0.00    -0.377 OA
ATOM     30  H   UNL     1     -35.845  22.744   5.523  0.00  0.00    +0.211 HD
ENDBRANCH  16  29
BRANCH  17  31
ATOM     31  O   UNL     1     -33.875  19.277  -0.308  0.00  0.00    -0.440 OA
BRANCH  31  33
ATOM     32  O   UNL     1     -33.013  18.344   1.617  0.00  0.00    -0.250 OA
ATOM     33  C   UNL     1     -33.589  18.243   0.542  0.00  0.00    +0.317 C 
BRANCH  33  34
ATOM     34  C   UNL     1     -34.067  16.933  -0.061  0.00  0.00    +0.099 C 
ATOM     35  C   UNL     1     -32.937  15.913   0.048  0.00  0.00    +0.012 C 
BRANCH  34  36
ATOM     36  C   UNL     1     -34.502  17.114  -1.524  0.00  0.00    +0.011 C 
ATOM     37  C   UNL     1     -35.504  16.057  -1.969  0.00  0.00    +0.001 C 
ENDBRANCH  34  36
ENDBRANCH  33  34
ENDBRANCH  31  33
ENDBRANCH  17  31
TORSDOF 7
ENDMDL
MODEL 9
REMARK VINA RESULT:      -6.5      3.973      7.466
REMARK  Name = 21150962
REMARK  7 active torsions:
REMARK  status: ('A' for Active; 'I' for Inactive)
REMARK    1  A    between atoms: C_8  and  O_25
REMARK    2  A    between atoms: C_14  and  O_27
REMARK    3  A    between atoms: C_16  and  O_29
REMARK    4  A    between atoms: C_17  and  O_31
REMARK    5  A    between atoms: O_31  and  C_33
REMARK    6  A    between atoms: C_33  and  C_34
REMARK    7  A    between atoms: C_34  and  C_36
REMARK                            x       y       z     vdW  Elec       q    Type
REMARK                         _______ _______ _______ _____ _____    ______ ____
ROOT
ATOM      1  O   UNL     1     -35.226  25.534  -0.005  0.00  0.00    -0.332 OA
ATOM      2  O   UNL     1     -38.194  22.476   2.362  0.00  0.00    -0.450 OA
ATOM      3  O   UNL     1     -40.437  22.413   2.237  0.00  0.00    -0.246 OA
ATOM      4  O   UNL     1     -34.456  26.461   6.374  0.00  0.00    -0.289 OA
ATOM      5  C   UNL     1     -36.794  24.061   1.033  0.00  0.00    +0.076 C 
ATOM      6  C   UNL     1     -36.479  25.239   1.994  0.00  0.00    +0.063 C 
ATOM      7  C   UNL     1     -35.467  24.922   3.187  0.00  0.00    +0.040 C 
ATOM      8  C   UNL     1     -36.066  26.270   0.912  0.00  0.00    +0.213 C 
ATOM      9  C   UNL     1     -36.923  22.690   1.687  0.00  0.00    +0.172 C 
ATOM     10  C   UNL     1     -38.109  24.326   0.226  0.00  0.00    +0.078 C 
ATOM     11  C   UNL     1     -35.848  23.526   3.813  0.00  0.00    +0.025 C 
ATOM     12  C   UNL     1     -35.611  24.147   0.049  0.00  0.00    +0.149 C 
ATOM     13  C   UNL     1     -35.850  22.417   2.743  0.00  0.00    +0.048 C 
ATOM     14  C   UNL     1     -37.304  26.779   0.127  0.00  0.00    +0.180 C 
ATOM     15  C   UNL     1     -38.058  25.649  -0.527  0.00  0.00    -0.009 C 
ATOM     16  C   UNL     1     -35.684  25.946   4.355  0.00  0.00    +0.172 C 
ATOM     17  C   UNL     1     -39.331  24.238   1.136  0.00  0.00    +0.270 C 
ATOM     18  C   UNL     1     -33.977  24.965   2.753  0.00  0.00    +0.003 C 
ATOM     19  C   UNL     1     -35.055  23.206   5.078  0.00  0.00    -0.041 C 
ATOM     20  C   UNL     1     -39.378  22.952   1.920  0.00  0.00    +0.358 C 
ATOM     21  C   UNL     1     -34.877  25.602   5.601  0.00  0.00    +0.199 C 
ATOM     22  C   UNL     1     -34.619  24.174   5.900  0.00  0.00    +0.031 C 
ATOM     23  C   UNL     1     -38.560  25.774  -1.767  0.00  0.00    -0.006 C 
ATOM     24  C   UNL     1     -34.825  21.767   5.452  0.00  0.00    +0.026 C 
ENDROOT
BRANCH   8  25
ATOM     25  O   UNL     1     -35.391  27.416   1.396  0.00  0.00    -0.362 OA
ATOM     26  H   UNL     1     -35.713  28.203   0.929  0.00  0.00    +0.213 HD
ENDBRANCH   8  25
BRANCH  14  27
ATOM     27  O   UNL     1     -38.162  27.548   0.966  0.00  0.00    -0.376 OA
ATOM     28  H   UNL     1     -38.495  26.991   1.688  0.00  0.00    +0.211 HD
ENDBRANCH  14  27
BRANCH  16  29
ATOM     29  O   UNL     1     -35.316  27.265   3.999  0.00  0.00    -0.377 OA
ATOM     30  H   UNL     1     -34.554  27.237   3.398  0.00  0.00    +0.211 HD
ENDBRANCH  16  29
BRANCH  17  31
ATOM     31  O   UNL     1     -40.531  24.295   0.371  0.00  0.00    -0.440 OA
BRANCH  31  33
ATOM     32  O   UNL     1     -42.735  24.490   1.023  0.00  0.00    -0.250 OA
ATOM     33  C   UNL     1     -41.590  24.920   0.972  0.00  0.00    +0.317 C 
BRANCH  33  34
ATOM     34  C   UNL     1     -41.143  26.254   1.546  0.00  0.00    +0.099 C 
ATOM     35  C   UNL     1     -41.396  26.239   3.051  0.00  0.00    +0.012 C 
BRANCH  34  36
ATOM     36  C   UNL     1     -41.877  27.427   0.879  0.00  0.00    +0.011 C 
ATOM     37  C   UNL     1     -41.391  27.688  -0.541  0.00  0.00    +0.001 C 
ENDBRANCH  34  36
ENDBRANCH  33  34
ENDBRANCH  31  33
ENDBRANCH  17  31
TORSDOF 7
ENDMDL
