MODEL 1
REMARK VINA RESULT:      -6.0      0.000      0.000
REMARK  Name = 195200
REMARK  6 active torsions:
REMARK  status: ('A' for Active; 'I' for Inactive)
REMARK    1  A    between atoms: C_2  and  O_16
REMARK    2  A    between atoms: C_4  and  C_22
REMARK    3  A    between atoms: C_5  and  N_8
REMARK    4  A    between atoms: O_16  and  P_18
REMARK    5  A    between atoms: P_18  and  O_20
REMARK    6  A    between atoms: C_22  and  O_23
REMARK                            x       y       z     vdW  Elec       q    Type
REMARK                         _______ _______ _______ _____ _____    ______ ____
ROOT
ATOM      1  O   UNL     1     -36.243  24.200   5.046  0.00  0.00    -0.335 OA
ATOM      2  C   UNL     1     -35.731  22.441   3.539  0.00  0.00    +0.155 C 
ATOM      3  C   UNL     1     -35.011  23.685   3.073  0.00  0.00    +0.084 C 
ATOM      4  C   UNL     1     -36.087  22.769   4.983  0.00  0.00    +0.174 C 
ATOM      5  C   UNL     1     -35.725  24.785   3.843  0.00  0.00    +0.202 C 
ENDROOT
BRANCH   5   8
ATOM      6  O   UNL     1     -35.123  26.993   2.147  0.00  0.00    -0.252 OA
ATOM      7  O   UNL     1     -32.380  28.892   5.313  0.00  0.00    -0.270 OA
ATOM      8  N   UNL     1     -34.860  25.877   4.181  0.00  0.00    -0.219 N 
ATOM      9  N   UNL     1     -33.757  27.929   3.735  0.00  0.00    -0.236 N 
ATOM     10  C   UNL     1     -34.256  25.880   5.432  0.00  0.00    +0.071 C 
ATOM     11  C   UNL     1     -34.622  26.931   3.272  0.00  0.00    +0.315 C 
ATOM     12  C   UNL     1     -33.430  26.838   5.871  0.00  0.00    +0.047 C 
ATOM     13  C   UNL     1     -33.129  27.981   4.970  0.00  0.00    +0.250 C 
ATOM     14  C   UNL     1     -32.788  26.821   7.223  0.00  0.00    +0.037 C 
ATOM     15  H   UNL     1     -33.576  28.675   3.117  0.00  0.00    +0.159 HD
ENDBRANCH   5   8
BRANCH   2  16
ATOM     16  O   UNL     1     -36.922  22.261   2.776  0.00  0.00    -0.317 OA
BRANCH  16  18
ATOM     17  S   UNL     1     -35.813  21.243   0.164  0.00  0.00    -0.008 S 
ATOM     18  P   UNL     1     -37.046  21.091   1.654  0.00  0.00    +0.179 P 
ATOM     19  C   UNL     1     -38.790  21.075   1.239  0.00  0.00    +0.091 C 
BRANCH  18  20
ATOM     20  O   UNL     1     -36.897  19.734   2.532  0.00  0.00    -0.346 OA
ATOM     21  H   UNL     1     -36.263  19.882   3.251  0.00  0.00    +0.217 HD
ENDBRANCH  18  20
ENDBRANCH  16  18
ENDBRANCH   2  16
BRANCH   4  22
ATOM     22  C   UNL     1     -34.994  22.374   5.967  0.00  0.00    +0.169 C 
BRANCH  22  23
ATOM     23  O   UNL     1     -34.861  20.962   5.963  0.00  0.00    -0.379 OA
ATOM     24  H   UNL     1     -34.040  20.713   6.416  0.00  0.00    +0.211 HD
ENDBRANCH  22  23
ENDBRANCH   4  22
TORSDOF 6
ENDMDL
MODEL 2
REMARK VINA RESULT:      -5.9      3.520      7.012
REMARK  Name = 195200
REMARK  6 active torsions:
REMARK  status: ('A' for Active; 'I' for Inactive)
REMARK    1  A    between atoms: C_2  and  O_16
REMARK    2  A    between atoms: C_4  and  C_22
REMARK    3  A    between atoms: C_5  and  N_8
REMARK    4  A    between atoms: O_16  and  P_18
REMARK    5  A    between atoms: P_18  and  O_20
REMARK    6  A    between atoms: C_22  and  O_23
REMARK                            x       y       z     vdW  Elec       q    Type
REMARK                         _______ _______ _______ _____ _____    ______ ____
ROOT
ATOM      1  O   UNL     1     -35.823  25.827   4.256  0.00  0.00    -0.335 OA
ATOM      2  C   UNL     1     -33.898  27.038   3.584  0.00  0.00    +0.155 C 
ATOM      3  C   UNL     1     -33.572  25.563   3.523  0.00  0.00    +0.084 C 
ATOM      4  C   UNL     1     -35.420  27.054   3.617  0.00  0.00    +0.174 C 
ATOM      5  C   UNL     1     -34.694  24.945   4.342  0.00  0.00    +0.202 C 
ENDROOT
BRANCH   5   8
ATOM      6  O   UNL     1     -35.880  22.902   5.934  0.00  0.00    -0.252 OA
ATOM      7  O   UNL     1     -36.082  20.006   2.368  0.00  0.00    -0.270 OA
ATOM      8  N   UNL     1     -35.072  23.644   3.872  0.00  0.00    -0.219 N 
ATOM      9  N   UNL     1     -35.974  21.468   4.147  0.00  0.00    -0.236 N 
ATOM     10  C   UNL     1     -34.852  23.332   2.537  0.00  0.00    +0.071 C 
ATOM     11  C   UNL     1     -35.656  22.695   4.739  0.00  0.00    +0.315 C 
ATOM     12  C   UNL     1     -35.158  22.157   1.973  0.00  0.00    +0.047 C 
ATOM     13  C   UNL     1     -35.777  21.105   2.823  0.00  0.00    +0.250 C 
ATOM     14  C   UNL     1     -34.912  21.841   0.532  0.00  0.00    +0.037 C 
ATOM     15  H   UNL     1     -36.383  20.790   4.732  0.00  0.00    +0.159 HD
ENDBRANCH   5   8
BRANCH   2  16
ATOM     16  O   UNL     1     -33.381  27.594   4.791  0.00  0.00    -0.317 OA
BRANCH  16  18
ATOM     17  S   UNL     1     -30.751  28.331   3.517  0.00  0.00    -0.008 S 
ATOM     18  P   UNL     1     -32.180  28.688   4.780  0.00  0.00    +0.179 P 
ATOM     19  C   UNL     1     -31.699  28.819   6.502  0.00  0.00    +0.091 C 
BRANCH  18  20
ATOM     20  O   UNL     1     -32.970  30.086   4.544  0.00  0.00    -0.346 OA
ATOM     21  H   UNL     1     -33.410  30.068   3.680  0.00  0.00    +0.217 HD
ENDBRANCH  18  20
ENDBRANCH  16  18
ENDBRANCH   2  16
BRANCH   4  22
ATOM     22  C   UNL     1     -36.043  27.084   2.228  0.00  0.00    +0.169 C 
BRANCH  22  23
ATOM     23  O   UNL     1     -37.455  27.096   2.359  0.00  0.00    -0.379 OA
ATOM     24  H   UNL     1     -37.855  26.643   1.600  0.00  0.00    +0.211 HD
ENDBRANCH  22  23
ENDBRANCH   4  22
TORSDOF 6
ENDMDL
MODEL 3
REMARK VINA RESULT:      -5.8      3.545      6.534
REMARK  Name = 195200
REMARK  6 active torsions:
REMARK  status: ('A' for Active; 'I' for Inactive)
REMARK    1  A    between atoms: C_2  and  O_16
REMARK    2  A    between atoms: C_4  and  C_22
REMARK    3  A    between atoms: C_5  and  N_8
REMARK    4  A    between atoms: O_16  and  P_18
REMARK    5  A    between atoms: P_18  and  O_20
REMARK    6  A    between atoms: C_22  and  O_23
REMARK                            x       y       z     vdW  Elec       q    Type
REMARK                         _______ _______ _______ _____ _____    ______ ____
ROOT
ATOM      1  O   UNL     1     -35.121  23.469   4.387  0.00  0.00    -0.335 OA
ATOM      2  C   UNL     1     -34.359  25.515   3.462  0.00  0.00    +0.155 C 
ATOM      3  C   UNL     1     -35.230  24.829   2.435  0.00  0.00    +0.084 C 
ATOM      4  C   UNL     1     -34.729  24.805   4.757  0.00  0.00    +0.174 C 
ATOM      5  C   UNL     1     -35.304  23.406   2.965  0.00  0.00    +0.202 C 
ENDROOT
BRANCH   5   8
ATOM      6  O   UNL     1     -35.711  20.595   2.753  0.00  0.00    -0.252 OA
ATOM      7  O   UNL     1     -40.186  21.141   1.847  0.00  0.00    -0.270 OA
ATOM      8  N   UNL     1     -36.556  22.770   2.676  0.00  0.00    -0.219 N 
ATOM      9  N   UNL     1     -37.941  20.881   2.302  0.00  0.00    -0.236 N 
ATOM     10  C   UNL     1     -37.675  23.570   2.478  0.00  0.00    +0.071 C 
ATOM     11  C   UNL     1     -36.660  21.365   2.591  0.00  0.00    +0.315 C 
ATOM     12  C   UNL     1     -38.899  23.104   2.203  0.00  0.00    +0.047 C 
ATOM     13  C   UNL     1     -39.089  21.632   2.097  0.00  0.00    +0.250 C 
ATOM     14  C   UNL     1     -40.091  23.983   1.993  0.00  0.00    +0.037 C 
ATOM     15  H   UNL     1     -38.038  19.904   2.238  0.00  0.00    +0.159 HD
ENDBRANCH   5   8
BRANCH   2  16
ATOM     16  O   UNL     1     -32.985  25.285   3.158  0.00  0.00    -0.317 OA
BRANCH  16  18
ATOM     17  S   UNL     1     -32.793  28.068   2.017  0.00  0.00    -0.008 S 
ATOM     18  P   UNL     1     -32.172  26.232   2.118  0.00  0.00    +0.179 P 
ATOM     19  C   UNL     1     -32.190  25.305   0.584  0.00  0.00    +0.091 C 
BRANCH  18  20
ATOM     20  O   UNL     1     -30.632  26.055   2.600  0.00  0.00    -0.346 OA
ATOM     21  H   UNL     1     -30.226  26.929   2.713  0.00  0.00    +0.217 HD
ENDBRANCH  18  20
ENDBRANCH  16  18
ENDBRANCH   2  16
BRANCH   4  22
ATOM     22  C   UNL     1     -35.902  25.455   5.476  0.00  0.00    +0.169 C 
BRANCH  22  23
ATOM     23  O   UNL     1     -35.982  26.816   5.086  0.00  0.00    -0.379 OA
ATOM     24  H   UNL     1     -36.851  27.173   5.330  0.00  0.00    +0.211 HD
ENDBRANCH  22  23
ENDBRANCH   4  22
TORSDOF 6
ENDMDL
MODEL 4
REMARK VINA RESULT:      -5.7      2.819      4.022
REMARK  Name = 195200
REMARK  6 active torsions:
REMARK  status: ('A' for Active; 'I' for Inactive)
REMARK    1  A    between atoms: C_2  and  O_16
REMARK    2  A    between atoms: C_4  and  C_22
REMARK    3  A    between atoms: C_5  and  N_8
REMARK    4  A    between atoms: O_16  and  P_18
REMARK    5  A    between atoms: P_18  and  O_20
REMARK    6  A    between atoms: C_22  and  O_23
REMARK                            x       y       z     vdW  Elec       q    Type
REMARK                         _______ _______ _______ _____ _____    ______ ____
ROOT
ATOM      1  O   UNL     1     -38.482  22.187   2.523  0.00  0.00    -0.335 OA
ATOM      2  C   UNL     1     -38.192  22.264   0.170  0.00  0.00    +0.155 C 
ATOM      3  C   UNL     1     -37.811  23.613   0.736  0.00  0.00    +0.084 C 
ATOM      4  C   UNL     1     -38.158  21.356   1.391  0.00  0.00    +0.174 C 
ATOM      5  C   UNL     1     -38.415  23.566   2.131  0.00  0.00    +0.202 C 
ENDROOT
BRANCH   5   8
ATOM      6  O   UNL     1     -38.654  26.355   2.655  0.00  0.00    -0.252 OA
ATOM      7  O   UNL     1     -35.371  26.203   5.872  0.00  0.00    -0.270 OA
ATOM      8  N   UNL     1     -37.644  24.296   3.094  0.00  0.00    -0.219 N 
ATOM      9  N   UNL     1     -37.015  26.265   4.257  0.00  0.00    -0.236 N 
ATOM     10  C   UNL     1     -36.699  23.609   3.844  0.00  0.00    +0.071 C 
ATOM     11  C   UNL     1     -37.835  25.682   3.284  0.00  0.00    +0.315 C 
ATOM     12  C   UNL     1     -35.916  24.170   4.774  0.00  0.00    +0.047 C 
ATOM     13  C   UNL     1     -36.058  25.628   5.032  0.00  0.00    +0.250 C 
ATOM     14  C   UNL     1     -34.903  23.411   5.571  0.00  0.00    +0.037 C 
ATOM     15  H   UNL     1     -37.130  27.232   4.407  0.00  0.00    +0.159 HD
ENDBRANCH   5   8
BRANCH   2  16
ATOM     16  O   UNL     1     -39.517  22.321  -0.355  0.00  0.00    -0.317 OA
BRANCH  16  18
ATOM     17  S   UNL     1     -39.074  19.544  -1.440  0.00  0.00    -0.008 S 
ATOM     18  P   UNL     1     -40.257  21.000  -0.945  0.00  0.00    +0.179 P 
ATOM     19  C   UNL     1     -41.310  21.640  -2.247  0.00  0.00    +0.091 C 
BRANCH  18  20
ATOM     20  O   UNL     1     -41.335  20.644   0.215  0.00  0.00    -0.346 OA
ATOM     21  H   UNL     1     -41.952  21.385   0.321  0.00  0.00    +0.217 HD
ENDBRANCH  18  20
ENDBRANCH  16  18
ENDBRANCH   2  16
BRANCH   4  22
ATOM     22  C   UNL     1     -36.786  20.744   1.637  0.00  0.00    +0.169 C 
BRANCH  22  23
ATOM     23  O   UNL     1     -36.880  19.825   2.713  0.00  0.00    -0.379 OA
ATOM     24  H   UNL     1     -37.244  20.274   3.492  0.00  0.00    +0.211 HD
ENDBRANCH  22  23
ENDBRANCH   4  22
TORSDOF 6
ENDMDL
MODEL 5
REMARK VINA RESULT:      -5.6      5.247      7.515
REMARK  Name = 195200
REMARK  6 active torsions:
REMARK  status: ('A' for Active; 'I' for Inactive)
REMARK    1  A    between atoms: C_2  and  O_16
REMARK    2  A    between atoms: C_4  and  C_22
REMARK    3  A    between atoms: C_5  and  N_8
REMARK    4  A    between atoms: O_16  and  P_18
REMARK    5  A    between atoms: P_18  and  O_20
REMARK    6  A    between atoms: C_22  and  O_23
REMARK                            x       y       z     vdW  Elec       q    Type
REMARK                         _______ _______ _______ _____ _____    ______ ____
ROOT
ATOM      1  O   UNL     1     -40.179  24.332   0.979  0.00  0.00    -0.335 OA
ATOM      2  C   UNL     1     -40.501  26.110   2.515  0.00  0.00    +0.155 C 
ATOM      3  C   UNL     1     -39.849  24.963   3.252  0.00  0.00    +0.084 C 
ATOM      4  C   UNL     1     -40.247  25.770   1.053  0.00  0.00    +0.174 C 
ATOM      5  C   UNL     1     -40.074  23.794   2.304  0.00  0.00    +0.202 C 
ENDROOT
BRANCH   5   8
ATOM      6  O   UNL     1     -40.290  21.065   1.520  0.00  0.00    -0.252 OA
ATOM      7  O   UNL     1     -35.876  20.253   2.521  0.00  0.00    -0.270 OA
ATOM      8  N   UNL     1     -39.009  22.835   2.344  0.00  0.00    -0.219 N 
ATOM      9  N   UNL     1     -38.087  20.673   2.024  0.00  0.00    -0.236 N 
ATOM     10  C   UNL     1     -37.763  23.247   2.798  0.00  0.00    +0.071 C 
ATOM     11  C   UNL     1     -39.212  21.500   1.932  0.00  0.00    +0.315 C 
ATOM     12  C   UNL     1     -36.688  22.454   2.883  0.00  0.00    +0.047 C 
ATOM     13  C   UNL     1     -36.823  21.032   2.468  0.00  0.00    +0.250 C 
ATOM     14  C   UNL     1     -35.354  22.918   3.376  0.00  0.00    +0.037 C 
ATOM     15  H   UNL     1     -38.205  19.737   1.742  0.00  0.00    +0.159 HD
ENDBRANCH   5   8
BRANCH   2  16
ATOM     16  O   UNL     1     -41.903  26.113   2.776  0.00  0.00    -0.317 OA
BRANCH  16  18
ATOM     17  S   UNL     1     -44.351  27.001   4.293  0.00  0.00    -0.008 S 
ATOM     18  P   UNL     1     -42.639  27.387   3.465  0.00  0.00    +0.179 P 
ATOM     19  C   UNL     1     -42.647  28.632   2.175  0.00  0.00    +0.091 C 
BRANCH  18  20
ATOM     20  O   UNL     1     -41.502  27.956   4.474  0.00  0.00    -0.346 OA
ATOM     21  H   UNL     1     -41.899  28.607   5.075  0.00  0.00    +0.217 HD
ENDBRANCH  18  20
ENDBRANCH  16  18
ENDBRANCH   2  16
BRANCH   4  22
ATOM     22  C   UNL     1     -38.929  26.328   0.534  0.00  0.00    +0.169 C 
BRANCH  22  23
ATOM     23  O   UNL     1     -38.680  27.575   1.161  0.00  0.00    -0.379 OA
ATOM     24  H   UNL     1     -39.508  28.078   1.223  0.00  0.00    +0.211 HD
ENDBRANCH  22  23
ENDBRANCH   4  22
TORSDOF 6
ENDMDL
MODEL 6
REMARK VINA RESULT:      -5.6      1.875      2.284
REMARK  Name = 195200
REMARK  6 active torsions:
REMARK  status: ('A' for Active; 'I' for Inactive)
REMARK    1  A    between atoms: C_2  and  O_16
REMARK    2  A    between atoms: C_4  and  C_22
REMARK    3  A    between atoms: C_5  and  N_8
REMARK    4  A    between atoms: O_16  and  P_18
REMARK    5  A    between atoms: P_18  and  O_20
REMARK    6  A    between atoms: C_22  and  O_23
REMARK                            x       y       z     vdW  Elec       q    Type
REMARK                         _______ _______ _______ _____ _____    ______ ____
ROOT
ATOM      1  O   UNL     1     -36.274  23.623   4.700  0.00  0.00    -0.335 OA
ATOM      2  C   UNL     1     -36.798  22.386   2.746  0.00  0.00    +0.155 C 
ATOM      3  C   UNL     1     -36.120  23.669   2.324  0.00  0.00    +0.084 C 
ATOM      4  C   UNL     1     -36.438  22.274   4.221  0.00  0.00    +0.174 C 
ATOM      5  C   UNL     1     -36.213  24.519   3.581  0.00  0.00    +0.202 C 
ENDROOT
BRANCH   5   8
ATOM      6  O   UNL     1     -35.917  26.442   5.661  0.00  0.00    -0.252 OA
ATOM      7  O   UNL     1     -31.843  27.822   4.034  0.00  0.00    -0.270 OA
ATOM      8  N   UNL     1     -35.094  25.401   3.740  0.00  0.00    -0.219 N 
ATOM      9  N   UNL     1     -33.886  27.121   4.839  0.00  0.00    -0.236 N 
ATOM     10  C   UNL     1     -34.059  25.330   2.816  0.00  0.00    +0.071 C 
ATOM     11  C   UNL     1     -35.036  26.323   4.807  0.00  0.00    +0.315 C 
ATOM     12  C   UNL     1     -32.960  26.094   2.850  0.00  0.00    +0.047 C 
ATOM     13  C   UNL     1     -32.826  27.091   3.945  0.00  0.00    +0.250 C 
ATOM     14  C   UNL     1     -31.857  26.002   1.845  0.00  0.00    +0.037 C 
ATOM     15  H   UNL     1     -33.823  27.772   5.574  0.00  0.00    +0.159 HD
ENDBRANCH   5   8
BRANCH   2  16
ATOM     16  O   UNL     1     -38.211  22.520   2.602  0.00  0.00    -0.317 OA
BRANCH  16  18
ATOM     17  S   UNL     1     -37.945  20.608   0.286  0.00  0.00    -0.008 S 
ATOM     18  P   UNL     1     -39.021  21.768   1.411  0.00  0.00    +0.179 P 
ATOM     19  C   UNL     1     -39.891  23.094   0.575  0.00  0.00    +0.091 C 
BRANCH  18  20
ATOM     20  O   UNL     1     -40.225  21.026   2.208  0.00  0.00    -0.346 OA
ATOM     21  H   UNL     1     -39.866  20.573   2.986  0.00  0.00    +0.217 HD
ENDBRANCH  18  20
ENDBRANCH  16  18
ENDBRANCH   2  16
BRANCH   4  22
ATOM     22  C   UNL     1     -35.129  21.533   4.456  0.00  0.00    +0.169 C 
BRANCH  22  23
ATOM     23  O   UNL     1     -35.280  20.681   5.580  0.00  0.00    -0.379 OA
ATOM     24  H   UNL     1     -34.554  20.836   6.205  0.00  0.00    +0.211 HD
ENDBRANCH  22  23
ENDBRANCH   4  22
TORSDOF 6
ENDMDL
MODEL 7
REMARK VINA RESULT:      -5.4      2.780      4.224
REMARK  Name = 195200
REMARK  6 active torsions:
REMARK  status: ('A' for Active; 'I' for Inactive)
REMARK    1  A    between atoms: C_2  and  O_16
REMARK    2  A    between atoms: C_4  and  C_22
REMARK    3  A    between atoms: C_5  and  N_8
REMARK    4  A    between atoms: O_16  and  P_18
REMARK    5  A    between atoms: P_18  and  O_20
REMARK    6  A    between atoms: C_22  and  O_23
REMARK                            x       y       z     vdW  Elec       q    Type
REMARK                         _______ _______ _______ _____ _____    ______ ____
ROOT
ATOM      1  O   UNL     1     -37.117  22.557   0.995  0.00  0.00    -0.335 OA
ATOM      2  C   UNL     1     -37.419  20.205   1.027  0.00  0.00    +0.155 C 
ATOM      3  C   UNL     1     -36.271  20.544   1.949  0.00  0.00    +0.084 C 
ATOM      4  C   UNL     1     -38.128  21.541   0.852  0.00  0.00    +0.174 C 
ATOM      5  C   UNL     1     -35.925  21.965   1.532  0.00  0.00    +0.202 C 
ENDROOT
BRANCH   5   8
ATOM      6  O   UNL     1     -34.674  24.512   1.285  0.00  0.00    -0.252 OA
ATOM      7  O   UNL     1     -34.163  24.891   5.839  0.00  0.00    -0.270 OA
ATOM      8  N   UNL     1     -35.450  22.764   2.624  0.00  0.00    -0.219 N 
ATOM      9  N   UNL     1     -34.425  24.688   3.558  0.00  0.00    -0.236 N 
ATOM     10  C   UNL     1     -35.600  22.276   3.916  0.00  0.00    +0.071 C 
ATOM     11  C   UNL     1     -34.841  24.018   2.402  0.00  0.00    +0.315 C 
ATOM     12  C   UNL     1     -35.202  22.920   5.020  0.00  0.00    +0.047 C 
ATOM     13  C   UNL     1     -34.551  24.249   4.867  0.00  0.00    +0.250 C 
ATOM     14  C   UNL     1     -35.373  22.376   6.402  0.00  0.00    +0.037 C 
ATOM     15  H   UNL     1     -33.998  25.566   3.428  0.00  0.00    +0.159 HD
ENDBRANCH   5   8
BRANCH   2  16
ATOM     16  O   UNL     1     -36.911  19.759  -0.229  0.00  0.00    -0.317 OA
BRANCH  16  18
ATOM     17  S   UNL     1     -35.991  17.622  -2.146  0.00  0.00    -0.008 S 
ATOM     18  P   UNL     1     -37.225  18.268  -0.794  0.00  0.00    +0.179 P 
ATOM     19  C   UNL     1     -38.952  18.341  -1.271  0.00  0.00    +0.091 C 
BRANCH  18  20
ATOM     20  O   UNL     1     -37.288  17.375   0.559  0.00  0.00    -0.346 OA
ATOM     21  H   UNL     1     -38.185  17.406   0.926  0.00  0.00    +0.217 HD
ENDBRANCH  18  20
ENDBRANCH  16  18
ENDBRANCH   2  16
BRANCH   4  22
ATOM     22  C   UNL     1     -39.194  21.789   1.911  0.00  0.00    +0.169 C 
BRANCH  22  23
ATOM     23  O   UNL     1     -40.279  20.904   1.687  0.00  0.00    -0.379 OA
ATOM     24  H   UNL     1     -40.787  21.202   0.916  0.00  0.00    +0.211 HD
ENDBRANCH  22  23
ENDBRANCH   4  22
TORSDOF 6
ENDMDL
MODEL 8
REMARK VINA RESULT:      -5.3      2.627      4.306
REMARK  Name = 195200
REMARK  6 active torsions:
REMARK  status: ('A' for Active; 'I' for Inactive)
REMARK    1  A    between atoms: C_2  and  O_16
REMARK    2  A    between atoms: C_4  and  C_22
REMARK    3  A    between atoms: C_5  and  N_8
REMARK    4  A    between atoms: O_16  and  P_18
REMARK    5  A    between atoms: P_18  and  O_20
REMARK    6  A    between atoms: C_22  and  O_23
REMARK                            x       y       z     vdW  Elec       q    Type
REMARK                         _______ _______ _______ _____ _____    ______ ____
ROOT
ATOM      1  O   UNL     1     -33.708  26.703   2.628  0.00  0.00    -0.335 OA
ATOM      2  C   UNL     1     -35.351  25.426   3.765  0.00  0.00    +0.155 C 
ATOM      3  C   UNL     1     -34.569  26.210   4.793  0.00  0.00    +0.084 C 
ATOM      4  C   UNL     1     -35.025  26.144   2.463  0.00  0.00    +0.174 C 
ATOM      5  C   UNL     1     -33.336  26.638   4.013  0.00  0.00    +0.202 C 
ENDROOT
BRANCH   5   8
ATOM      6  O   UNL     1     -31.916  27.134   6.431  0.00  0.00    -0.252 OA
ATOM      7  O   UNL     1     -31.464  31.603   5.447  0.00  0.00    -0.270 OA
ATOM      8  N   UNL     1     -32.830  27.913   4.429  0.00  0.00    -0.219 N 
ATOM      9  N   UNL     1     -31.698  29.361   5.928  0.00  0.00    -0.236 N 
ATOM     10  C   UNL     1     -33.038  29.010   3.602  0.00  0.00    +0.071 C 
ATOM     11  C   UNL     1     -32.136  28.061   5.648  0.00  0.00    +0.315 C 
ATOM     12  C   UNL     1     -32.617  30.251   3.872  0.00  0.00    +0.047 C 
ATOM     13  C   UNL     1     -31.877  30.488   5.140  0.00  0.00    +0.250 C 
ATOM     14  C   UNL     1     -32.852  31.419   2.967  0.00  0.00    +0.037 C 
ATOM     15  H   UNL     1     -31.211  29.488   6.774  0.00  0.00    +0.159 HD
ENDBRANCH   5   8
BRANCH   2  16
ATOM     16  O   UNL     1     -34.866  24.086   3.713  0.00  0.00    -0.317 OA
BRANCH  16  18
ATOM     17  S   UNL     1     -35.376  22.243   6.043  0.00  0.00    -0.008 S 
ATOM     18  P   UNL     1     -35.762  22.835   4.236  0.00  0.00    +0.179 P 
ATOM     19  C   UNL     1     -35.580  21.604   2.946  0.00  0.00    +0.091 C 
BRANCH  18  20
ATOM     20  O   UNL     1     -37.281  23.353   3.994  0.00  0.00    -0.346 OA
ATOM     21  H   UNL     1     -37.878  22.591   3.940  0.00  0.00    +0.217 HD
ENDBRANCH  18  20
ENDBRANCH  16  18
ENDBRANCH   2  16
BRANCH   4  22
ATOM     22  C   UNL     1     -35.984  27.288   2.161  0.00  0.00    +0.169 C 
BRANCH  22  23
ATOM     23  O   UNL     1     -37.274  26.943   2.638  0.00  0.00    -0.379 OA
ATOM     24  H   UNL     1     -37.455  27.423   3.461  0.00  0.00    +0.211 HD
ENDBRANCH  22  23
ENDBRANCH   4  22
TORSDOF 6
ENDMDL
MODEL 9
REMARK VINA RESULT:      -5.2      3.323      7.173
REMARK  Name = 195200
REMARK  6 active torsions:
REMARK  status: ('A' for Active; 'I' for Inactive)
REMARK    1  A    between atoms: C_2  and  O_16
REMARK    2  A    between atoms: C_4  and  C_22
REMARK    3  A    between atoms: C_5  and  N_8
REMARK    4  A    between atoms: O_16  and  P_18
REMARK    5  A    between atoms: P_18  and  O_20
REMARK    6  A    between atoms: C_22  and  O_23
REMARK                            x       y       z     vdW  Elec       q    Type
REMARK                         _______ _______ _______ _____ _____    ______ ____
ROOT
ATOM      1  O   UNL     1     -36.930  23.447   3.931  0.00  0.00    -0.335 OA
ATOM      2  C   UNL     1     -36.060  25.474   3.059  0.00  0.00    +0.155 C 
ATOM      3  C   UNL     1     -35.741  24.365   2.083  0.00  0.00    +0.084 C 
ATOM      4  C   UNL     1     -37.161  24.869   3.919  0.00  0.00    +0.174 C 
ATOM      5  C   UNL     1     -35.969  23.116   2.919  0.00  0.00    +0.202 C 
ENDROOT
BRANCH   5   8
ATOM      6  O   UNL     1     -35.291  20.383   3.345  0.00  0.00    -0.252 OA
ATOM      7  O   UNL     1     -37.941  19.005  -0.152  0.00  0.00    -0.270 OA
ATOM      8  N   UNL     1     -36.457  22.012   2.145  0.00  0.00    -0.219 N 
ATOM      9  N   UNL     1     -36.616  19.709   1.598  0.00  0.00    -0.236 N 
ATOM     10  C   UNL     1     -37.331  22.272   1.098  0.00  0.00    +0.071 C 
ATOM     11  C   UNL     1     -36.063  20.687   2.433  0.00  0.00    +0.315 C 
ATOM     12  C   UNL     1     -37.859  21.334   0.302  0.00  0.00    +0.047 C 
ATOM     13  C   UNL     1     -37.491  19.913   0.542  0.00  0.00    +0.250 C 
ATOM     14  C   UNL     1     -38.799  21.636  -0.822  0.00  0.00    +0.037 C 
ATOM     15  H   UNL     1     -36.356  18.777   1.780  0.00  0.00    +0.159 HD
ENDBRANCH   5   8
BRANCH   2  16
ATOM     16  O   UNL     1     -34.915  25.750   3.862  0.00  0.00    -0.317 OA
BRANCH  16  18
ATOM     17  S   UNL     1     -32.902  26.973   1.981  0.00  0.00    -0.008 S 
ATOM     18  P   UNL     1     -33.979  27.051   3.593  0.00  0.00    +0.179 P 
ATOM     19  C   UNL     1     -33.084  27.265   5.132  0.00  0.00    +0.091 C 
BRANCH  18  20
ATOM     20  O   UNL     1     -35.041  28.277   3.649  0.00  0.00    -0.346 OA
ATOM     21  H   UNL     1     -35.708  28.159   2.955  0.00  0.00    +0.217 HD
ENDBRANCH  18  20
ENDBRANCH  16  18
ENDBRANCH   2  16
BRANCH   4  22
ATOM     22  C   UNL     1     -38.554  25.112   3.355  0.00  0.00    +0.169 C 
BRANCH  22  23
ATOM     23  O   UNL     1     -38.622  26.436   2.852  0.00  0.00    -0.379 OA
ATOM     24  H   UNL     1     -37.800  26.646   2.381  0.00  0.00    +0.211 HD
ENDBRANCH  22  23
ENDBRANCH   4  22
TORSDOF 6
ENDMDL
