MODEL 1
REMARK VINA RESULT:      -6.0      0.000      0.000
REMARK  Name = 196433
REMARK  7 active torsions:
REMARK  status: ('A' for Active; 'I' for Inactive)
REMARK    1  A    between atoms: C_3  and  O_19
REMARK    2  A    between atoms: C_4  and  N_7
REMARK    3  A    between atoms: C_5  and  C_21
REMARK    4  A    between atoms: C_21  and  O_22
REMARK    5  A    between atoms: O_22  and  P_23
REMARK    6  A    between atoms: P_23  and  O_25
REMARK    7  A    between atoms: P_23  and  O_27
REMARK                            x       y       z     vdW  Elec       q    Type
REMARK                         _______ _______ _______ _____ _____    ______ ____
ROOT
ATOM      1 CL   UNL     1     -34.951  21.908   5.974  0.00  0.00    -0.108 Cl
ATOM      2  O   UNL     1     -35.458  23.553   2.423  0.00  0.00    -0.334 OA
ATOM      3  C   UNL     1     -36.383  21.711   3.620  0.00  0.00    +0.159 C 
ATOM      4  C   UNL     1     -34.806  23.460   3.706  0.00  0.00    +0.212 C 
ATOM      5  C   UNL     1     -36.516  22.569   2.363  0.00  0.00    +0.175 C 
ATOM      6  C   UNL     1     -35.762  22.685   4.605  0.00  0.00    +0.156 C 
ENDROOT
BRANCH   4   7
ATOM      7  N   UNL     1     -34.469  24.798   4.180  0.00  0.00    -0.248 N 
ATOM      8  N   UNL     1     -34.491  26.626   5.461  0.00  0.00    -0.242 NA
ATOM      9  N   UNL     1     -32.844  25.485   2.510  0.00  0.00    -0.228 NA
ATOM     10  N   UNL     1     -32.009  27.735   2.955  0.00  0.00    -0.229 NA
ATOM     11  C   UNL     1     -33.583  25.673   3.613  0.00  0.00    +0.152 C 
ATOM     12  C   UNL     1     -34.988  25.418   5.288  0.00  0.00    +0.223 C 
ATOM     13  C   UNL     1     -33.612  26.797   4.422  0.00  0.00    +0.140 C 
ATOM     14  C   UNL     1     -32.785  27.855   4.058  0.00  0.00    +0.143 C 
ATOM     15  C   UNL     1     -32.086  26.575   2.258  0.00  0.00    +0.253 C 
ATOM     16  N   UNL     1     -32.749  29.034   4.823  0.00  0.00    -0.342 N 
ATOM     17  H   UNL     1     -32.160  29.776   4.556  0.00  0.00    +0.144 HD
ATOM     18  H   UNL     1     -33.313  29.118   5.625  0.00  0.00    +0.144 HD
ENDBRANCH   4   7
BRANCH   3  19
ATOM     19  O   UNL     1     -35.479  20.643   3.337  0.00  0.00    -0.380 OA
ATOM     20  H   UNL     1     -34.909  20.490   4.107  0.00  0.00    +0.210 HD
ENDBRANCH   3  19
BRANCH   5  21
ATOM     21  C   UNL     1     -37.847  23.302   2.281  0.00  0.00    +0.186 C 
BRANCH  21  22
ATOM     22  O   UNL     1     -37.605  24.641   1.888  0.00  0.00    -0.271 OA
BRANCH  22  23
ATOM     23  P   UNL     1     -38.172  25.836   2.823  0.00  0.00    +0.473 P 
ATOM     24  O   UNL     1     -39.418  26.500   2.316  0.00  0.00    -0.227 OA
BRANCH  23  25
ATOM     25  O   UNL     1     -36.897  26.811   3.015  0.00  0.00    -0.303 OA
ATOM     26  H   UNL     1     -36.656  26.849   3.955  0.00  0.00    +0.222 HD
ENDBRANCH  23  25
BRANCH  23  27
ATOM     27  O   UNL     1     -38.318  25.125   4.269  0.00  0.00    -0.303 OA
ATOM     28  H   UNL     1     -37.631  24.447   4.367  0.00  0.00    +0.222 HD
ENDBRANCH  23  27
ENDBRANCH  22  23
ENDBRANCH  21  22
ENDBRANCH   5  21
TORSDOF 7
ENDMDL
MODEL 2
REMARK VINA RESULT:      -5.7      3.420      4.943
REMARK  Name = 196433
REMARK  7 active torsions:
REMARK  status: ('A' for Active; 'I' for Inactive)
REMARK    1  A    between atoms: C_3  and  O_19
REMARK    2  A    between atoms: C_4  and  N_7
REMARK    3  A    between atoms: C_5  and  C_21
REMARK    4  A    between atoms: C_21  and  O_22
REMARK    5  A    between atoms: O_22  and  P_23
REMARK    6  A    between atoms: P_23  and  O_25
REMARK    7  A    between atoms: P_23  and  O_27
REMARK                            x       y       z     vdW  Elec       q    Type
REMARK                         _______ _______ _______ _____ _____    ______ ____
ROOT
ATOM      1 CL   UNL     1     -40.714  23.875   1.519  0.00  0.00    -0.108 Cl
ATOM      2  O   UNL     1     -37.325  22.076   2.443  0.00  0.00    -0.334 OA
ATOM      3  C   UNL     1     -39.305  21.515   1.241  0.00  0.00    +0.159 C 
ATOM      4  C   UNL     1     -38.232  23.198   2.495  0.00  0.00    +0.212 C 
ATOM      5  C   UNL     1     -37.891  21.056   1.589  0.00  0.00    +0.175 C 
ATOM      6  C   UNL     1     -39.174  23.026   1.310  0.00  0.00    +0.156 C 
ENDROOT
BRANCH   4   7
ATOM      7  N   UNL     1     -37.469  24.441   2.496  0.00  0.00    -0.248 N 
ATOM      8  N   UNL     1     -36.567  26.337   1.739  0.00  0.00    -0.242 NA
ATOM      9  N   UNL     1     -36.659  24.486   4.786  0.00  0.00    -0.228 NA
ATOM     10  N   UNL     1     -35.301  26.468   5.211  0.00  0.00    -0.229 NA
ATOM     11  C   UNL     1     -36.779  24.982   3.546  0.00  0.00    +0.152 C 
ATOM     12  C   UNL     1     -37.310  25.294   1.433  0.00  0.00    +0.223 C 
ATOM     13  C   UNL     1     -36.229  26.155   3.056  0.00  0.00    +0.140 C 
ATOM     14  C   UNL     1     -35.465  26.909   3.940  0.00  0.00    +0.143 C 
ATOM     15  C   UNL     1     -35.899  25.301   5.550  0.00  0.00    +0.253 C 
ATOM     16  N   UNL     1     -34.870  28.114   3.529  0.00  0.00    -0.342 N 
ATOM     17  H   UNL     1     -34.331  28.640   4.163  0.00  0.00    +0.144 HD
ATOM     18  H   UNL     1     -34.992  28.433   2.605  0.00  0.00    +0.144 HD
ENDBRANCH   4   7
BRANCH   3  19
ATOM     19  O   UNL     1     -40.189  21.045   2.258  0.00  0.00    -0.380 OA
ATOM     20  H   UNL     1     -40.438  20.126   2.070  0.00  0.00    +0.210 HD
ENDBRANCH   3  19
BRANCH   5  21
ATOM     21  C   UNL     1     -36.996  20.906   0.367  0.00  0.00    +0.186 C 
BRANCH  21  22
ATOM     22  O   UNL     1     -35.664  21.209   0.740  0.00  0.00    -0.271 OA
BRANCH  22  23
ATOM     23  P   UNL     1     -34.703  19.997   1.224  0.00  0.00    +0.473 P 
ATOM     24  O   UNL     1     -33.267  20.122   0.809  0.00  0.00    -0.227 OA
BRANCH  23  25
ATOM     25  O   UNL     1     -35.463  18.671   0.696  0.00  0.00    -0.303 OA
ATOM     26  H   UNL     1     -35.315  18.571  -0.258  0.00  0.00    +0.222 HD
ENDBRANCH  23  25
BRANCH  23  27
ATOM     27  O   UNL     1     -34.951  19.957   2.822  0.00  0.00    -0.303 OA
ATOM     28  H   UNL     1     -34.102  20.038   3.284  0.00  0.00    +0.222 HD
ENDBRANCH  23  27
ENDBRANCH  22  23
ENDBRANCH  21  22
ENDBRANCH   5  21
TORSDOF 7
ENDMDL
MODEL 3
REMARK VINA RESULT:      -5.6      3.507      5.194
REMARK  Name = 196433
REMARK  7 active torsions:
REMARK  status: ('A' for Active; 'I' for Inactive)
REMARK    1  A    between atoms: C_3  and  O_19
REMARK    2  A    between atoms: C_4  and  N_7
REMARK    3  A    between atoms: C_5  and  C_21
REMARK    4  A    between atoms: C_21  and  O_22
REMARK    5  A    between atoms: O_22  and  P_23
REMARK    6  A    between atoms: P_23  and  O_25
REMARK    7  A    between atoms: P_23  and  O_27
REMARK                            x       y       z     vdW  Elec       q    Type
REMARK                         _______ _______ _______ _____ _____    ______ ____
ROOT
ATOM      1 CL   UNL     1     -35.374  20.688   2.702  0.00  0.00    -0.108 Cl
ATOM      2  O   UNL     1     -36.687  23.697   4.891  0.00  0.00    -0.334 OA
ATOM      3  C   UNL     1     -34.923  22.100   5.032  0.00  0.00    +0.159 C 
ATOM      4  C   UNL     1     -36.765  22.818   3.749  0.00  0.00    +0.212 C 
ATOM      5  C   UNL     1     -35.504  23.369   5.655  0.00  0.00    +0.175 C 
ATOM      6  C   UNL     1     -35.373  22.221   3.587  0.00  0.00    +0.156 C 
ENDROOT
BRANCH   4   7
ATOM      7  N   UNL     1     -37.250  23.565   2.593  0.00  0.00    -0.248 N 
ATOM      8  N   UNL     1     -37.323  24.380   0.517  0.00  0.00    -0.242 NA
ATOM      9  N   UNL     1     -39.275  24.556   3.498  0.00  0.00    -0.228 NA
ATOM     10  N   UNL     1     -40.418  25.921   1.829  0.00  0.00    -0.229 NA
ATOM     11  C   UNL     1     -38.381  24.331   2.523  0.00  0.00    +0.152 C 
ATOM     12  C   UNL     1     -36.650  23.627   1.361  0.00  0.00    +0.223 C 
ATOM     13  C   UNL     1     -38.407  24.826   1.230  0.00  0.00    +0.140 C 
ATOM     14  C   UNL     1     -39.476  25.650   0.894  0.00  0.00    +0.143 C 
ATOM     15  C   UNL     1     -40.261  25.366   3.055  0.00  0.00    +0.253 C 
ATOM     16  N   UNL     1     -39.585  26.196  -0.397  0.00  0.00    -0.342 N 
ATOM     17  H   UNL     1     -40.345  26.778  -0.624  0.00  0.00    +0.144 HD
ATOM     18  H   UNL     1     -38.899  25.996  -1.074  0.00  0.00    +0.144 HD
ENDBRANCH   4   7
BRANCH   3  19
ATOM     19  O   UNL     1     -35.543  20.975   5.654  0.00  0.00    -0.380 OA
ATOM     20  H   UNL     1     -36.246  20.634   5.080  0.00  0.00    +0.210 HD
ENDBRANCH   3  19
BRANCH   5  21
ATOM     21  C   UNL     1     -34.549  24.553   5.591  0.00  0.00    +0.186 C 
BRANCH  21  22
ATOM     22  O   UNL     1     -35.285  25.709   5.236  0.00  0.00    -0.271 OA
BRANCH  22  23
ATOM     23  P   UNL     1     -34.798  26.572   3.953  0.00  0.00    +0.473 P 
ATOM     24  O   UNL     1     -33.923  27.746   4.275  0.00  0.00    -0.227 OA
BRANCH  23  25
ATOM     25  O   UNL     1     -36.176  26.925   3.184  0.00  0.00    -0.303 OA
ATOM     26  H   UNL     1     -36.894  26.374   3.534  0.00  0.00    +0.222 HD
ENDBRANCH  23  25
BRANCH  23  27
ATOM     27  O   UNL     1     -34.118  25.453   3.003  0.00  0.00    -0.303 OA
ATOM     28  H   UNL     1     -33.334  25.088   3.443  0.00  0.00    +0.222 HD
ENDBRANCH  23  27
ENDBRANCH  22  23
ENDBRANCH  21  22
ENDBRANCH   5  21
TORSDOF 7
ENDMDL
MODEL 4
REMARK VINA RESULT:      -5.6      4.106      5.820
REMARK  Name = 196433
REMARK  7 active torsions:
REMARK  status: ('A' for Active; 'I' for Inactive)
REMARK    1  A    between atoms: C_3  and  O_19
REMARK    2  A    between atoms: C_4  and  N_7
REMARK    3  A    between atoms: C_5  and  C_21
REMARK    4  A    between atoms: C_21  and  O_22
REMARK    5  A    between atoms: O_22  and  P_23
REMARK    6  A    between atoms: P_23  and  O_25
REMARK    7  A    between atoms: P_23  and  O_27
REMARK                            x       y       z     vdW  Elec       q    Type
REMARK                         _______ _______ _______ _____ _____    ______ ____
ROOT
ATOM      1 CL   UNL     1     -37.349  21.793   0.456  0.00  0.00    -0.108 Cl
ATOM      2  O   UNL     1     -37.204  23.273   4.111  0.00  0.00    -0.334 OA
ATOM      3  C   UNL     1     -35.876  21.797   2.792  0.00  0.00    +0.159 C 
ATOM      4  C   UNL     1     -37.834  23.108   2.823  0.00  0.00    +0.212 C 
ATOM      5  C   UNL     1     -35.937  22.576   4.105  0.00  0.00    +0.175 C 
ATOM      6  C   UNL     1     -36.732  22.652   1.875  0.00  0.00    +0.156 C 
ENDROOT
BRANCH   4   7
ATOM      7  N   UNL     1     -38.495  24.352   2.442  0.00  0.00    -0.248 N 
ATOM      8  N   UNL     1     -38.861  26.544   2.242  0.00  0.00    -0.242 NA
ATOM      9  N   UNL     1     -40.450  23.500   1.278  0.00  0.00    -0.228 NA
ATOM     10  N   UNL     1     -41.857  25.316   0.457  0.00  0.00    -0.229 NA
ATOM     11  C   UNL     1     -39.667  24.482   1.749  0.00  0.00    +0.152 C 
ATOM     12  C   UNL     1     -38.051  25.620   2.715  0.00  0.00    +0.223 C 
ATOM     13  C   UNL     1     -39.874  25.847   1.635  0.00  0.00    +0.140 C 
ATOM     14  C   UNL     1     -41.020  26.255   0.960  0.00  0.00    +0.143 C 
ATOM     15  C   UNL     1     -41.526  24.016   0.645  0.00  0.00    +0.253 C 
ATOM     16  N   UNL     1     -41.309  27.620   0.796  0.00  0.00    -0.342 N 
ATOM     17  H   UNL     1     -42.123  27.898   0.317  0.00  0.00    +0.144 HD
ATOM     18  H   UNL     1     -40.699  28.300   1.162  0.00  0.00    +0.144 HD
ENDBRANCH   4   7
BRANCH   3  19
ATOM     19  O   UNL     1     -36.487  20.524   3.001  0.00  0.00    -0.380 OA
ATOM     20  H   UNL     1     -37.245  20.624   3.598  0.00  0.00    +0.210 HD
ENDBRANCH   3  19
BRANCH   5  21
ATOM     21  C   UNL     1     -34.824  23.606   4.237  0.00  0.00    +0.186 C 
BRANCH  21  22
ATOM     22  O   UNL     1     -35.058  24.380   5.399  0.00  0.00    -0.271 OA
BRANCH  22  23
ATOM     23  P   UNL     1     -34.907  25.991   5.299  0.00  0.00    +0.473 P 
ATOM     24  O   UNL     1     -33.846  26.583   6.179  0.00  0.00    -0.227 OA
BRANCH  23  25
ATOM     25  O   UNL     1     -36.407  26.534   5.561  0.00  0.00    -0.303 OA
ATOM     26  H   UNL     1     -36.407  27.129   6.327  0.00  0.00    +0.222 HD
ENDBRANCH  23  25
BRANCH  23  27
ATOM     27  O   UNL     1     -34.694  26.235   3.714  0.00  0.00    -0.303 OA
ATOM     28  H   UNL     1     -33.785  26.001   3.470  0.00  0.00    +0.222 HD
ENDBRANCH  23  27
ENDBRANCH  22  23
ENDBRANCH  21  22
ENDBRANCH   5  21
TORSDOF 7
ENDMDL
MODEL 5
REMARK VINA RESULT:      -5.6      3.461      5.479
REMARK  Name = 196433
REMARK  7 active torsions:
REMARK  status: ('A' for Active; 'I' for Inactive)
REMARK    1  A    between atoms: C_3  and  O_19
REMARK    2  A    between atoms: C_4  and  N_7
REMARK    3  A    between atoms: C_5  and  C_21
REMARK    4  A    between atoms: C_21  and  O_22
REMARK    5  A    between atoms: O_22  and  P_23
REMARK    6  A    between atoms: P_23  and  O_25
REMARK    7  A    between atoms: P_23  and  O_27
REMARK                            x       y       z     vdW  Elec       q    Type
REMARK                         _______ _______ _______ _____ _____    ______ ____
ROOT
ATOM      1 CL   UNL     1     -34.034  25.153   4.220  0.00  0.00    -0.108 Cl
ATOM      2  O   UNL     1     -37.812  24.062   3.900  0.00  0.00    -0.334 OA
ATOM      3  C   UNL     1     -36.596  26.110   3.836  0.00  0.00    +0.159 C 
ATOM      4  C   UNL     1     -36.414  23.778   4.116  0.00  0.00    +0.212 C 
ATOM      5  C   UNL     1     -37.964  25.470   3.610  0.00  0.00    +0.175 C 
ATOM      6  C   UNL     1     -35.653  24.960   3.531  0.00  0.00    +0.156 C 
ENDROOT
BRANCH   4   7
ATOM      7  N   UNL     1     -36.083  22.484   3.528  0.00  0.00    -0.248 N 
ATOM      8  N   UNL     1     -35.243  20.424   3.355  0.00  0.00    -0.242 NA
ATOM      9  N   UNL     1     -37.088  22.705   1.327  0.00  0.00    -0.228 NA
ATOM     10  N   UNL     1     -36.750  20.693  -0.012  0.00  0.00    -0.229 NA
ATOM     11  C   UNL     1     -36.406  22.044   2.273  0.00  0.00    +0.152 C 
ATOM     12  C   UNL     1     -35.385  21.474   4.137  0.00  0.00    +0.223 C 
ATOM     13  C   UNL     1     -35.877  20.767   2.187  0.00  0.00    +0.140 C 
ATOM     14  C   UNL     1     -36.068  20.086   0.990  0.00  0.00    +0.143 C 
ATOM     15  C   UNL     1     -37.210  21.947   0.216  0.00  0.00    +0.253 C 
ATOM     16  N   UNL     1     -35.567  18.784   0.815  0.00  0.00    -0.342 N 
ATOM     17  H   UNL     1     -35.709  18.312  -0.037  0.00  0.00    +0.144 HD
ATOM     18  H   UNL     1     -35.073  18.345   1.544  0.00  0.00    +0.144 HD
ENDBRANCH   4   7
BRANCH   3  19
ATOM     19  O   UNL     1     -36.500  26.482   5.211  0.00  0.00    -0.380 OA
ATOM     20  H   UNL     1     -37.283  26.995   5.463  0.00  0.00    +0.210 HD
ENDBRANCH   3  19
BRANCH   5  21
ATOM     21  C   UNL     1     -38.459  25.613   2.178  0.00  0.00    +0.186 C 
BRANCH  21  22
ATOM     22  O   UNL     1     -39.871  25.515   2.174  0.00  0.00    -0.271 OA
BRANCH  22  23
ATOM     23  P   UNL     1     -40.559  24.295   1.360  0.00  0.00    +0.473 P 
ATOM     24  O   UNL     1     -42.039  24.427   1.151  0.00  0.00    -0.227 OA
BRANCH  23  25
ATOM     25  O   UNL     1     -40.090  22.979   2.174  0.00  0.00    -0.303 OA
ATOM     26  H   UNL     1     -39.813  22.292   1.547  0.00  0.00    +0.222 HD
ENDBRANCH  23  25
BRANCH  23  27
ATOM     27  O   UNL     1     -39.681  24.226   0.003  0.00  0.00    -0.303 OA
ATOM     28  H   UNL     1     -38.783  23.927   0.213  0.00  0.00    +0.222 HD
ENDBRANCH  23  27
ENDBRANCH  22  23
ENDBRANCH  21  22
ENDBRANCH   5  21
TORSDOF 7
ENDMDL
MODEL 6
REMARK VINA RESULT:      -5.5      4.371      6.077
REMARK  Name = 196433
REMARK  7 active torsions:
REMARK  status: ('A' for Active; 'I' for Inactive)
REMARK    1  A    between atoms: C_3  and  O_19
REMARK    2  A    between atoms: C_4  and  N_7
REMARK    3  A    between atoms: C_5  and  C_21
REMARK    4  A    between atoms: C_21  and  O_22
REMARK    5  A    between atoms: O_22  and  P_23
REMARK    6  A    between atoms: P_23  and  O_25
REMARK    7  A    between atoms: P_23  and  O_27
REMARK                            x       y       z     vdW  Elec       q    Type
REMARK                         _______ _______ _______ _____ _____    ______ ____
ROOT
ATOM      1 CL   UNL     1     -35.942  22.368   3.427  0.00  0.00    -0.108 Cl
ATOM      2  O   UNL     1     -36.081  25.875   5.228  0.00  0.00    -0.334 OA
ATOM      3  C   UNL     1     -34.603  24.006   5.203  0.00  0.00    +0.159 C 
ATOM      4  C   UNL     1     -36.628  24.864   4.357  0.00  0.00    +0.212 C 
ATOM      5  C   UNL     1     -34.779  25.443   5.687  0.00  0.00    +0.175 C 
ATOM      6  C   UNL     1     -35.452  23.988   3.944  0.00  0.00    +0.156 C 
ENDROOT
BRANCH   4   7
ATOM      7  N   UNL     1     -37.333  25.504   3.251  0.00  0.00    -0.248 N 
ATOM      8  N   UNL     1     -37.789  26.986   1.645  0.00  0.00    -0.242 NA
ATOM      9  N   UNL     1     -39.220  23.999   2.972  0.00  0.00    -0.228 NA
ATOM     10  N   UNL     1     -40.685  24.737   1.165  0.00  0.00    -0.229 NA
ATOM     11  C   UNL     1     -38.493  25.082   2.660  0.00  0.00    +0.152 C 
ATOM     12  C   UNL     1     -36.951  26.652   2.605  0.00  0.00    +0.223 C 
ATOM     13  C   UNL     1     -38.756  26.013   1.669  0.00  0.00    +0.140 C 
ATOM     14  C   UNL     1     -39.902  25.811   0.906  0.00  0.00    +0.143 C 
ATOM     15  C   UNL     1     -40.302  23.910   2.167  0.00  0.00    +0.253 C 
ATOM     16  N   UNL     1     -40.247  26.705  -0.123  0.00  0.00    -0.342 N 
ATOM     17  H   UNL     1     -41.060  26.553  -0.656  0.00  0.00    +0.144 HD
ATOM     18  H   UNL     1     -39.675  27.485  -0.309  0.00  0.00    +0.144 HD
ENDBRANCH   4   7
BRANCH   3  19
ATOM     19  O   UNL     1     -35.155  23.132   6.188  0.00  0.00    -0.380 OA
ATOM     20  H   UNL     1     -35.985  23.507   6.524  0.00  0.00    +0.210 HD
ENDBRANCH   3  19
BRANCH   5  21
ATOM     21  C   UNL     1     -33.733  26.394   5.122  0.00  0.00    +0.186 C 
BRANCH  21  22
ATOM     22  O   UNL     1     -33.194  27.158   6.186  0.00  0.00    -0.271 OA
BRANCH  22  23
ATOM     23  P   UNL     1     -31.949  28.147   5.873  0.00  0.00    +0.473 P 
ATOM     24  O   UNL     1     -32.223  29.603   6.106  0.00  0.00    -0.227 OA
BRANCH  23  25
ATOM     25  O   UNL     1     -31.519  27.756   4.364  0.00  0.00    -0.303 OA
ATOM     26  H   UNL     1     -32.091  27.043   4.038  0.00  0.00    +0.222 HD
ENDBRANCH  23  25
BRANCH  23  27
ATOM     27  O   UNL     1     -30.758  27.524   6.772  0.00  0.00    -0.303 OA
ATOM     28  H   UNL     1     -30.547  26.632   6.457  0.00  0.00    +0.222 HD
ENDBRANCH  23  27
ENDBRANCH  22  23
ENDBRANCH  21  22
ENDBRANCH   5  21
TORSDOF 7
ENDMDL
MODEL 7
REMARK VINA RESULT:      -5.4      4.113      6.191
REMARK  Name = 196433
REMARK  7 active torsions:
REMARK  status: ('A' for Active; 'I' for Inactive)
REMARK    1  A    between atoms: C_3  and  O_19
REMARK    2  A    between atoms: C_4  and  N_7
REMARK    3  A    between atoms: C_5  and  C_21
REMARK    4  A    between atoms: C_21  and  O_22
REMARK    5  A    between atoms: O_22  and  P_23
REMARK    6  A    between atoms: P_23  and  O_25
REMARK    7  A    between atoms: P_23  and  O_27
REMARK                            x       y       z     vdW  Elec       q    Type
REMARK                         _______ _______ _______ _____ _____    ______ ____
ROOT
ATOM      1 CL   UNL     1     -36.320  27.780   1.821  0.00  0.00    -0.108 Cl
ATOM      2  O   UNL     1     -32.638  26.781   2.827  0.00  0.00    -0.334 OA
ATOM      3  C   UNL     1     -33.723  28.712   1.948  0.00  0.00    +0.159 C 
ATOM      4  C   UNL     1     -34.039  26.486   2.653  0.00  0.00    +0.212 C 
ATOM      5  C   UNL     1     -32.410  28.174   2.513  0.00  0.00    +0.175 C 
ATOM      6  C   UNL     1     -34.750  27.833   2.638  0.00  0.00    +0.156 C 
ENDROOT
BRANCH   4   7
ATOM      7  N   UNL     1     -34.478  25.572   3.703  0.00  0.00    -0.248 N 
ATOM      8  N   UNL     1     -35.019  24.841   5.741  0.00  0.00    -0.242 NA
ATOM      9  N   UNL     1     -34.883  23.550   2.418  0.00  0.00    -0.228 NA
ATOM     10  N   UNL     1     -35.657  21.729   3.848  0.00  0.00    -0.229 NA
ATOM     11  C   UNL     1     -34.848  24.264   3.554  0.00  0.00    +0.152 C 
ATOM     12  C   UNL     1     -34.598  25.871   5.036  0.00  0.00    +0.223 C 
ATOM     13  C   UNL     1     -35.180  23.831   4.827  0.00  0.00    +0.140 C 
ATOM     14  C   UNL     1     -35.596  22.510   4.953  0.00  0.00    +0.143 C 
ATOM     15  C   UNL     1     -35.301  22.289   2.666  0.00  0.00    +0.253 C 
ATOM     16  N   UNL     1     -35.954  21.986   6.208  0.00  0.00    -0.342 N 
ATOM     17  H   UNL     1     -36.247  21.049   6.285  0.00  0.00    +0.144 HD
ATOM     18  H   UNL     1     -35.910  22.555   7.009  0.00  0.00    +0.144 HD
ENDBRANCH   4   7
BRANCH   3  19
ATOM     19  O   UNL     1     -33.731  28.476   0.540  0.00  0.00    -0.380 OA
ATOM     20  H   UNL     1     -33.954  27.547   0.369  0.00  0.00    +0.210 HD
ENDBRANCH   3  19
BRANCH   5  21
ATOM     21  C   UNL     1     -31.975  28.886   3.786  0.00  0.00    +0.186 C 
BRANCH  21  22
ATOM     22  O   UNL     1     -31.566  27.915   4.732  0.00  0.00    -0.271 OA
BRANCH  22  23
ATOM     23  P   UNL     1     -31.484  28.343   6.293  0.00  0.00    +0.473 P 
ATOM     24  O   UNL     1     -32.081  29.681   6.615  0.00  0.00    -0.227 OA
BRANCH  23  25
ATOM     25  O   UNL     1     -29.915  28.180   6.653  0.00  0.00    -0.303 OA
ATOM     26  H   UNL     1     -29.527  29.055   6.812  0.00  0.00    +0.222 HD
ENDBRANCH  23  25
BRANCH  23  27
ATOM     27  O   UNL     1     -32.171  27.088   7.048  0.00  0.00    -0.303 OA
ATOM     28  H   UNL     1     -32.653  27.404   7.828  0.00  0.00    +0.222 HD
ENDBRANCH  23  27
ENDBRANCH  22  23
ENDBRANCH  21  22
ENDBRANCH   5  21
TORSDOF 7
ENDMDL
MODEL 8
REMARK VINA RESULT:      -5.4      4.026      5.752
REMARK  Name = 196433
REMARK  7 active torsions:
REMARK  status: ('A' for Active; 'I' for Inactive)
REMARK    1  A    between atoms: C_3  and  O_19
REMARK    2  A    between atoms: C_4  and  N_7
REMARK    3  A    between atoms: C_5  and  C_21
REMARK    4  A    between atoms: C_21  and  O_22
REMARK    5  A    between atoms: O_22  and  P_23
REMARK    6  A    between atoms: P_23  and  O_25
REMARK    7  A    between atoms: P_23  and  O_27
REMARK                            x       y       z     vdW  Elec       q    Type
REMARK                         _______ _______ _______ _____ _____    ______ ____
ROOT
ATOM      1 CL   UNL     1     -35.861  26.037   2.988  0.00  0.00    -0.108 Cl
ATOM      2  O   UNL     1     -38.822  23.429   3.020  0.00  0.00    -0.334 OA
ATOM      3  C   UNL     1     -38.501  25.667   2.265  0.00  0.00    +0.159 C 
ATOM      4  C   UNL     1     -37.475  23.837   3.338  0.00  0.00    +0.212 C 
ATOM      5  C   UNL     1     -39.461  24.479   2.258  0.00  0.00    +0.175 C 
ATOM      6  C   UNL     1     -37.151  24.983   2.388  0.00  0.00    +0.156 C 
ENDROOT
BRANCH   4   7
ATOM      7  N   UNL     1     -36.583  22.687   3.238  0.00  0.00    -0.248 N 
ATOM      8  N   UNL     1     -35.188  21.066   3.878  0.00  0.00    -0.242 NA
ATOM      9  N   UNL     1     -36.657  22.248   0.850  0.00  0.00    -0.228 NA
ATOM     10  N   UNL     1     -35.255  20.342   0.252  0.00  0.00    -0.229 NA
ATOM     11  C   UNL     1     -36.243  22.005   2.102  0.00  0.00    +0.152 C 
ATOM     12  C   UNL     1     -35.922  22.084   4.278  0.00  0.00    +0.223 C 
ATOM     13  C   UNL     1     -35.380  21.005   2.521  0.00  0.00    +0.140 C 
ATOM     14  C   UNL     1     -34.879  20.155   1.540  0.00  0.00    +0.143 C 
ATOM     15  C   UNL     1     -36.107  21.363  -0.010  0.00  0.00    +0.253 C 
ATOM     16  N   UNL     1     -33.999  19.112   1.875  0.00  0.00    -0.342 N 
ATOM     17  H   UNL     1     -33.650  18.516   1.173  0.00  0.00    +0.144 HD
ATOM     18  H   UNL     1     -33.728  18.978   2.812  0.00  0.00    +0.144 HD
ENDBRANCH   4   7
BRANCH   3  19
ATOM     19  O   UNL     1     -38.770  26.451   3.427  0.00  0.00    -0.380 OA
ATOM     20  H   UNL     1     -38.897  25.866   4.190  0.00  0.00    +0.210 HD
ENDBRANCH   3  19
BRANCH   5  21
ATOM     21  C   UNL     1     -39.744  23.951   0.859  0.00  0.00    +0.186 C 
BRANCH  21  22
ATOM     22  O   UNL     1     -40.727  22.935   0.948  0.00  0.00    -0.271 OA
BRANCH  22  23
ATOM     23  P   UNL     1     -40.371  21.464   0.369  0.00  0.00    +0.473 P 
ATOM     24  O   UNL     1     -41.559  20.625  -0.000  0.00  0.00    -0.227 OA
BRANCH  23  25
ATOM     25  O   UNL     1     -39.402  20.832   1.499  0.00  0.00    -0.303 OA
ATOM     26  H   UNL     1     -38.808  20.182   1.089  0.00  0.00    +0.222 HD
ENDBRANCH  23  25
BRANCH  23  27
ATOM     27  O   UNL     1     -39.360  21.790  -0.850  0.00  0.00    -0.303 OA
ATOM     28  H   UNL     1     -39.489  22.706  -1.142  0.00  0.00    +0.222 HD
ENDBRANCH  23  27
ENDBRANCH  22  23
ENDBRANCH  21  22
ENDBRANCH   5  21
TORSDOF 7
ENDMDL
MODEL 9
REMARK VINA RESULT:      -5.4      3.688      5.259
REMARK  Name = 196433
REMARK  7 active torsions:
REMARK  status: ('A' for Active; 'I' for Inactive)
REMARK    1  A    between atoms: C_3  and  O_19
REMARK    2  A    between atoms: C_4  and  N_7
REMARK    3  A    between atoms: C_5  and  C_21
REMARK    4  A    between atoms: C_21  and  O_22
REMARK    5  A    between atoms: O_22  and  P_23
REMARK    6  A    between atoms: P_23  and  O_25
REMARK    7  A    between atoms: P_23  and  O_27
REMARK                            x       y       z     vdW  Elec       q    Type
REMARK                         _______ _______ _______ _____ _____    ______ ____
ROOT
ATOM      1 CL   UNL     1     -36.719  21.023   0.156  0.00  0.00    -0.108 Cl
ATOM      2  O   UNL     1     -37.085  22.561   3.772  0.00  0.00    -0.334 OA
ATOM      3  C   UNL     1     -35.336  21.585   2.480  0.00  0.00    +0.159 C 
ATOM      4  C   UNL     1     -37.622  22.159   2.494  0.00  0.00    +0.212 C 
ATOM      5  C   UNL     1     -35.657  22.332   3.773  0.00  0.00    +0.175 C 
ATOM      6  C   UNL     1     -36.430  22.078   1.549  0.00  0.00    +0.156 C 
ENDROOT
BRANCH   4   7
ATOM      7  N   UNL     1     -38.663  23.097   2.087  0.00  0.00    -0.248 N 
ATOM      8  N   UNL     1     -40.673  23.841   1.463  0.00  0.00    -0.242 NA
ATOM      9  N   UNL     1     -37.429  25.189   2.087  0.00  0.00    -0.228 NA
ATOM     10  N   UNL     1     -38.856  27.062   1.442  0.00  0.00    -0.229 NA
ATOM     11  C   UNL     1     -38.534  24.448   1.917  0.00  0.00    +0.152 C 
ATOM     12  C   UNL     1     -39.967  22.782   1.802  0.00  0.00    +0.223 C 
ATOM     13  C   UNL     1     -39.789  24.889   1.532  0.00  0.00    +0.140 C 
ATOM     14  C   UNL     1     -39.930  26.251   1.290  0.00  0.00    +0.143 C 
ATOM     15  C   UNL     1     -37.689  26.489   1.825  0.00  0.00    +0.253 C 
ATOM     16  N   UNL     1     -41.169  26.787   0.897  0.00  0.00    -0.342 N 
ATOM     17  H   UNL     1     -41.257  27.753   0.729  0.00  0.00    +0.144 HD
ATOM     18  H   UNL     1     -41.948  26.196   0.788  0.00  0.00    +0.144 HD
ENDBRANCH   4   7
BRANCH   3  19
ATOM     19  O   UNL     1     -35.482  20.187   2.725  0.00  0.00    -0.380 OA
ATOM     20  H   UNL     1     -34.739  19.873   3.264  0.00  0.00    +0.210 HD
ENDBRANCH   3  19
BRANCH   5  21
ATOM     21  C   UNL     1     -34.957  23.680   3.871  0.00  0.00    +0.186 C 
BRANCH  21  22
ATOM     22  O   UNL     1     -35.509  24.399   4.959  0.00  0.00    -0.271 OA
BRANCH  22  23
ATOM     23  P   UNL     1     -35.182  25.982   5.085  0.00  0.00    +0.473 P 
ATOM     24  O   UNL     1     -34.137  26.334   6.101  0.00  0.00    -0.227 OA
BRANCH  23  25
ATOM     25  O   UNL     1     -36.633  26.655   5.322  0.00  0.00    -0.303 OA
ATOM     26  H   UNL     1     -37.315  25.964   5.317  0.00  0.00    +0.222 HD
ENDBRANCH  23  25
BRANCH  23  27
ATOM     27  O   UNL     1     -34.823  26.398   3.563  0.00  0.00    -0.303 OA
ATOM     28  H   UNL     1     -34.208  25.749   3.187  0.00  0.00    +0.222 HD
ENDBRANCH  23  27
ENDBRANCH  22  23
ENDBRANCH  21  22
ENDBRANCH   5  21
TORSDOF 7
ENDMDL
