MODEL 1
REMARK VINA RESULT:      -5.8      0.000      0.000
REMARK  Name = 5287441
REMARK  5 active torsions:
REMARK  status: ('A' for Active; 'I' for Inactive)
REMARK    1  A    between atoms: C_3  and  C_8
REMARK    2  A    between atoms: C_5  and  C_17
REMARK    3  A    between atoms: C_9  and  C_14
REMARK    4  A    between atoms: C_14  and  O_15
REMARK    5  A    between atoms: C_18  and  O_23
REMARK                            x       y       z     vdW  Elec       q    Type
REMARK                         _______ _______ _______ _____ _____    ______ ____
ROOT
ATOM      1  S   UNL     1     -32.611  26.357   2.642  0.00  0.00    -0.093 S 
ATOM      2  N   UNL     1     -33.848  25.926   4.887  0.00  0.00    -0.266 NA
ATOM      3  C   UNL     1     -34.082  24.741   4.033  0.00  0.00    +0.106 C 
ATOM      4  C   UNL     1     -33.932  25.136   2.570  0.00  0.00    +0.087 C 
ATOM      5  C   UNL     1     -33.067  26.766   4.283  0.00  0.00    +0.104 C 
ENDROOT
BRANCH   3   8
ATOM      6  S   UNL     1     -36.709  25.511   4.066  0.00  0.00    -0.162 S 
ATOM      7  N   UNL     1     -35.809  23.074   3.429  0.00  0.00    +0.403 N 
ATOM      8  C   UNL     1     -35.473  24.193   4.329  0.00  0.00    +0.017 C 
ATOM      9  C   UNL     1     -37.270  23.077   3.251  0.00  0.00    +0.055 C 
ATOM     10  C   UNL     1     -37.692  24.508   2.938  0.00  0.00    +0.046 C 
ATOM     11  C   UNL     1     -35.318  21.800   3.959  0.00  0.00    -0.098 C 
ATOM     12  H   UNL     1     -35.351  23.190   2.525  0.00  0.00    -0.077 HD
BRANCH   9  14
ATOM     13  O   UNL     1     -37.153  22.319   0.961  0.00  0.00    -0.253 OA
ATOM     14  C   UNL     1     -37.609  22.198   2.088  0.00  0.00    +0.295 C 
BRANCH  14  15
ATOM     15  O   UNL     1     -38.499  21.243   2.453  0.00  0.00    -0.482 OA
ATOM     16  H   UNL     1     -38.560  20.447   1.962  0.00  0.00    +0.295 HD
ENDBRANCH  14  15
ENDBRANCH   9  14
ENDBRANCH   3   8
BRANCH   5  17
ATOM     17  C   UNL     1     -32.602  28.024   4.913  0.00  0.00    +0.057 C 
ATOM     18  C   UNL     1     -32.174  28.055   6.246  0.00  0.00    +0.136 C 
ATOM     19  C   UNL     1     -32.588  29.206   4.163  0.00  0.00    +0.005 C 
ATOM     20  C   UNL     1     -31.740  29.250   6.820  0.00  0.00    +0.037 C 
ATOM     21  C   UNL     1     -32.155  30.402   4.737  0.00  0.00    +0.000 C 
ATOM     22  C   UNL     1     -31.730  30.423   6.066  0.00  0.00    +0.003 C 
BRANCH  18  23
ATOM     23  O   UNL     1     -32.176  26.920   7.000  0.00  0.00    -0.505 OA
ATOM     24  H   UNL     1     -32.758  26.217   6.788  0.00  0.00    +0.292 HD
ENDBRANCH  18  23
ENDBRANCH   5  17
TORSDOF 5
ENDMDL
MODEL 2
REMARK VINA RESULT:      -5.6      2.344      2.903
REMARK  Name = 5287441
REMARK  5 active torsions:
REMARK  status: ('A' for Active; 'I' for Inactive)
REMARK    1  A    between atoms: C_3  and  C_8
REMARK    2  A    between atoms: C_5  and  C_17
REMARK    3  A    between atoms: C_9  and  C_14
REMARK    4  A    between atoms: C_14  and  O_15
REMARK    5  A    between atoms: C_18  and  O_23
REMARK                            x       y       z     vdW  Elec       q    Type
REMARK                         _______ _______ _______ _____ _____    ______ ____
ROOT
ATOM      1  S   UNL     1     -32.988  29.492   3.275  0.00  0.00    -0.093 S 
ATOM      2  N   UNL     1     -32.097  27.222   4.176  0.00  0.00    -0.266 NA
ATOM      3  C   UNL     1     -33.256  26.916   3.309  0.00  0.00    +0.106 C 
ATOM      4  C   UNL     1     -34.168  28.133   3.237  0.00  0.00    +0.087 C 
ATOM      5  C   UNL     1     -31.857  28.496   4.169  0.00  0.00    +0.104 C 
ENDROOT
BRANCH   3   8
ATOM      6  S   UNL     1     -34.265  25.946   5.661  0.00  0.00    -0.162 S 
ATOM      7  N   UNL     1     -35.295  25.516   3.231  0.00  0.00    +0.403 N 
ATOM      8  C   UNL     1     -33.982  25.701   3.874  0.00  0.00    +0.017 C 
ATOM      9  C   UNL     1     -36.181  24.876   4.217  0.00  0.00    +0.055 C 
ATOM     10  C   UNL     1     -36.036  25.638   5.529  0.00  0.00    +0.046 C 
ATOM     11  C   UNL     1     -35.178  24.730   2.000  0.00  0.00    -0.098 C 
ATOM     12  H   UNL     1     -35.687  26.414   2.947  0.00  0.00    -0.077 HD
BRANCH   9  14
ATOM     13  O   UNL     1     -38.330  24.051   3.484  0.00  0.00    -0.253 OA
ATOM     14  C   UNL     1     -37.593  24.993   3.734  0.00  0.00    +0.295 C 
BRANCH  14  15
ATOM     15  O   UNL     1     -37.949  26.295   3.608  0.00  0.00    -0.482 OA
ATOM     16  H   UNL     1     -38.728  26.524   3.141  0.00  0.00    +0.295 HD
ENDBRANCH  14  15
ENDBRANCH   9  14
ENDBRANCH   3   8
BRANCH   5  17
ATOM     17  C   UNL     1     -30.718  29.101   4.898  0.00  0.00    +0.057 C 
ATOM     18  C   UNL     1     -30.307  28.608   6.143  0.00  0.00    +0.136 C 
ATOM     19  C   UNL     1     -30.037  30.186   4.334  0.00  0.00    +0.005 C 
ATOM     20  C   UNL     1     -29.231  29.193   6.813  0.00  0.00    +0.037 C 
ATOM     21  C   UNL     1     -28.962  30.771   5.004  0.00  0.00    +0.000 C 
ATOM     22  C   UNL     1     -28.558  30.273   6.243  0.00  0.00    +0.003 C 
BRANCH  18  23
ATOM     23  O   UNL     1     -30.950  27.553   6.716  0.00  0.00    -0.505 OA
ATOM     24  H   UNL     1     -31.765  27.252   6.363  0.00  0.00    +0.292 HD
ENDBRANCH  18  23
ENDBRANCH   5  17
TORSDOF 5
ENDMDL
MODEL 3
REMARK VINA RESULT:      -5.6      3.753      7.788
REMARK  Name = 5287441
REMARK  5 active torsions:
REMARK  status: ('A' for Active; 'I' for Inactive)
REMARK    1  A    between atoms: C_3  and  C_8
REMARK    2  A    between atoms: C_5  and  C_17
REMARK    3  A    between atoms: C_9  and  C_14
REMARK    4  A    between atoms: C_14  and  O_15
REMARK    5  A    between atoms: C_18  and  O_23
REMARK                            x       y       z     vdW  Elec       q    Type
REMARK                         _______ _______ _______ _____ _____    ______ ____
ROOT
ATOM      1  S   UNL     1     -34.172  22.455   0.166  0.00  0.00    -0.093 S 
ATOM      2  N   UNL     1     -35.401  21.093   2.007  0.00  0.00    -0.266 NA
ATOM      3  C   UNL     1     -36.017  22.437   1.984  0.00  0.00    +0.106 C 
ATOM      4  C   UNL     1     -35.022  23.438   1.411  0.00  0.00    +0.087 C 
ATOM      5  C   UNL     1     -34.498  20.997   1.081  0.00  0.00    +0.104 C 
ENDROOT
BRANCH   3   8
ATOM      6  S   UNL     1     -35.284  22.035   4.591  0.00  0.00    -0.162 S 
ATOM      7  N   UNL     1     -36.385  24.267   3.610  0.00  0.00    +0.403 N 
ATOM      8  C   UNL     1     -36.434  22.808   3.402  0.00  0.00    +0.017 C 
ATOM      9  C   UNL     1     -36.086  24.498   5.033  0.00  0.00    +0.055 C 
ATOM     10  C   UNL     1     -34.915  23.598   5.409  0.00  0.00    +0.046 C 
ATOM     11  C   UNL     1     -37.636  24.905   3.196  0.00  0.00    -0.098 C 
ATOM     12  H   UNL     1     -35.657  24.688   3.032  0.00  0.00    -0.077 HD
BRANCH   9  14
ATOM     13  O   UNL     1     -34.551  26.362   5.053  0.00  0.00    -0.253 OA
ATOM     14  C   UNL     1     -35.683  25.928   5.207  0.00  0.00    +0.295 C 
BRANCH  14  15
ATOM     15  O   UNL     1     -36.749  26.686   5.564  0.00  0.00    -0.482 OA
ATOM     16  H   UNL     1     -37.444  26.834   4.954  0.00  0.00    +0.295 HD
ENDBRANCH  14  15
ENDBRANCH   9  14
ENDBRANCH   3   8
BRANCH   5  17
ATOM     17  C   UNL     1     -33.748  19.747   0.818  0.00  0.00    +0.057 C 
ATOM     18  C   UNL     1     -34.411  18.529   0.623  0.00  0.00    +0.136 C 
ATOM     19  C   UNL     1     -32.350  19.781   0.761  0.00  0.00    +0.005 C 
ATOM     20  C   UNL     1     -33.686  17.362   0.376  0.00  0.00    +0.037 C 
ATOM     21  C   UNL     1     -31.625  18.614   0.515  0.00  0.00    +0.000 C 
ATOM     22  C   UNL     1     -32.293  17.405   0.322  0.00  0.00    +0.003 C 
BRANCH  18  23
ATOM     23  O   UNL     1     -35.772  18.466   0.672  0.00  0.00    -0.505 OA
ATOM     24  H   UNL     1     -36.225  17.777   0.227  0.00  0.00    +0.292 HD
ENDBRANCH  18  23
ENDBRANCH   5  17
TORSDOF 5
ENDMDL
MODEL 4
REMARK VINA RESULT:      -5.6     11.049     11.976
REMARK  Name = 5287441
REMARK  5 active torsions:
REMARK  status: ('A' for Active; 'I' for Inactive)
REMARK    1  A    between atoms: C_3  and  C_8
REMARK    2  A    between atoms: C_5  and  C_17
REMARK    3  A    between atoms: C_9  and  C_14
REMARK    4  A    between atoms: C_14  and  O_15
REMARK    5  A    between atoms: C_18  and  O_23
REMARK                            x       y       z     vdW  Elec       q    Type
REMARK                         _______ _______ _______ _____ _____    ______ ____
ROOT
ATOM      1  S   UNL     1     -43.632  34.797   0.189  0.00  0.00    -0.093 S 
ATOM      2  N   UNL     1     -43.025  33.248   2.186  0.00  0.00    -0.266 NA
ATOM      3  C   UNL     1     -44.354  32.819   1.698  0.00  0.00    +0.106 C 
ATOM      4  C   UNL     1     -45.028  33.982   0.981  0.00  0.00    +0.087 C 
ATOM      5  C   UNL     1     -42.563  34.205   1.444  0.00  0.00    +0.104 C 
ENDROOT
BRANCH   3   8
ATOM      6  S   UNL     1     -45.781  30.644   2.551  0.00  0.00    -0.162 S 
ATOM      7  N   UNL     1     -44.368  32.291   4.116  0.00  0.00    +0.403 N 
ATOM      8  C   UNL     1     -45.178  32.335   2.885  0.00  0.00    +0.017 C 
ATOM      9  C   UNL     1     -44.918  31.221   4.965  0.00  0.00    +0.055 C 
ATOM     10  C   UNL     1     -45.106  29.988   4.088  0.00  0.00    +0.046 C 
ATOM     11  C   UNL     1     -44.361  33.588   4.795  0.00  0.00    -0.098 C 
ATOM     12  H   UNL     1     -43.392  32.090   3.897  0.00  0.00    -0.077 HD
BRANCH   9  14
ATOM     13  O   UNL     1     -42.900  30.265   5.886  0.00  0.00    -0.253 OA
ATOM     14  C   UNL     1     -43.925  30.912   6.041  0.00  0.00    +0.295 C 
BRANCH  14  15
ATOM     15  O   UNL     1     -44.319  31.446   7.224  0.00  0.00    -0.482 OA
ATOM     16  H   UNL     1     -45.181  31.277   7.550  0.00  0.00    +0.295 HD
ENDBRANCH  14  15
ENDBRANCH   9  14
ENDBRANCH   3   8
BRANCH   5  17
ATOM     17  C   UNL     1     -41.223  34.804   1.649  0.00  0.00    +0.057 C 
ATOM     18  C   UNL     1     -40.884  35.431   2.855  0.00  0.00    +0.136 C 
ATOM     19  C   UNL     1     -40.275  34.742   0.621  0.00  0.00    +0.005 C 
ATOM     20  C   UNL     1     -39.617  35.988   3.028  0.00  0.00    +0.037 C 
ATOM     21  C   UNL     1     -39.008  35.299   0.794  0.00  0.00    +0.000 C 
ATOM     22  C   UNL     1     -38.679  35.922   1.999  0.00  0.00    +0.003 C 
BRANCH  18  23
ATOM     23  O   UNL     1     -41.786  35.505   3.874  0.00  0.00    -0.505 OA
ATOM     24  H   UNL     1     -41.604  36.038   4.623  0.00  0.00    +0.292 HD
ENDBRANCH  18  23
ENDBRANCH   5  17
TORSDOF 5
ENDMDL
MODEL 5
REMARK VINA RESULT:      -5.3      3.236      7.116
REMARK  Name = 5287441
REMARK  5 active torsions:
REMARK  status: ('A' for Active; 'I' for Inactive)
REMARK    1  A    between atoms: C_3  and  C_8
REMARK    2  A    between atoms: C_5  and  C_17
REMARK    3  A    between atoms: C_9  and  C_14
REMARK    4  A    between atoms: C_14  and  O_15
REMARK    5  A    between atoms: C_18  and  O_23
REMARK                            x       y       z     vdW  Elec       q    Type
REMARK                         _______ _______ _______ _____ _____    ______ ____
ROOT
ATOM      1  S   UNL     1     -36.092  22.454  -0.823  0.00  0.00    -0.093 S 
ATOM      2  N   UNL     1     -35.556  22.853   1.689  0.00  0.00    -0.266 NA
ATOM      3  C   UNL     1     -36.658  23.772   1.334  0.00  0.00    +0.106 C 
ATOM      4  C   UNL     1     -36.628  24.042  -0.165  0.00  0.00    +0.087 C 
ATOM      5  C   UNL     1     -35.247  22.109   0.673  0.00  0.00    +0.104 C 
ENDROOT
BRANCH   3   8
ATOM      6  S   UNL     1     -37.641  25.016   3.566  0.00  0.00    -0.162 S 
ATOM      7  N   UNL     1     -35.131  25.197   2.661  0.00  0.00    +0.403 N 
ATOM      8  C   UNL     1     -36.502  25.056   2.139  0.00  0.00    +0.017 C 
ATOM      9  C   UNL     1     -35.215  25.960   3.917  0.00  0.00    +0.055 C 
ATOM     10  C   UNL     1     -36.329  25.344   4.756  0.00  0.00    +0.046 C 
ATOM     11  C   UNL     1     -34.252  25.839   1.681  0.00  0.00    -0.098 C 
ATOM     12  H   UNL     1     -34.719  24.281   2.841  0.00  0.00    -0.077 HD
BRANCH   9  14
ATOM     13  O   UNL     1     -33.217  26.750   5.021  0.00  0.00    -0.253 OA
ATOM     14  C   UNL     1     -33.915  25.820   4.647  0.00  0.00    +0.295 C 
BRANCH  14  15
ATOM     15  O   UNL     1     -33.612  24.512   4.837  0.00  0.00    -0.482 OA
ATOM     16  H   UNL     1     -33.003  24.265   5.505  0.00  0.00    +0.295 HD
ENDBRANCH  14  15
ENDBRANCH   9  14
ENDBRANCH   3   8
BRANCH   5  17
ATOM     17  C   UNL     1     -34.217  21.047   0.740  0.00  0.00    +0.057 C 
ATOM     18  C   UNL     1     -34.418  19.886   1.497  0.00  0.00    +0.136 C 
ATOM     19  C   UNL     1     -33.019  21.202   0.032  0.00  0.00    +0.005 C 
ATOM     20  C   UNL     1     -33.435  18.897   1.547  0.00  0.00    +0.037 C 
ATOM     21  C   UNL     1     -32.036  20.214   0.082  0.00  0.00    +0.000 C 
ATOM     22  C   UNL     1     -32.244  19.060   0.839  0.00  0.00    +0.003 C 
BRANCH  18  23
ATOM     23  O   UNL     1     -35.574  19.706   2.195  0.00  0.00    -0.505 OA
ATOM     24  H   UNL     1     -35.809  18.853   2.502  0.00  0.00    +0.292 HD
ENDBRANCH  18  23
ENDBRANCH   5  17
TORSDOF 5
ENDMDL
MODEL 6
REMARK VINA RESULT:      -5.3      3.985      7.457
REMARK  Name = 5287441
REMARK  5 active torsions:
REMARK  status: ('A' for Active; 'I' for Inactive)
REMARK    1  A    between atoms: C_3  and  C_8
REMARK    2  A    between atoms: C_5  and  C_17
REMARK    3  A    between atoms: C_9  and  C_14
REMARK    4  A    between atoms: C_14  and  O_15
REMARK    5  A    between atoms: C_18  and  O_23
REMARK                            x       y       z     vdW  Elec       q    Type
REMARK                         _______ _______ _______ _____ _____    ______ ____
ROOT
ATOM      1  S   UNL     1     -36.375  19.750   0.689  0.00  0.00    -0.093 S 
ATOM      2  N   UNL     1     -35.027  21.671   1.806  0.00  0.00    -0.266 NA
ATOM      3  C   UNL     1     -36.460  21.987   1.992  0.00  0.00    +0.106 C 
ATOM      4  C   UNL     1     -37.275  21.294   0.908  0.00  0.00    +0.087 C 
ATOM      5  C   UNL     1     -34.894  20.529   1.207  0.00  0.00    +0.104 C 
ENDROOT
BRANCH   3   8
ATOM      6  S   UNL     1     -38.404  23.907   2.164  0.00  0.00    -0.162 S 
ATOM      7  N   UNL     1     -35.887  24.158   3.033  0.00  0.00    +0.403 N 
ATOM      8  C   UNL     1     -36.637  23.500   1.948  0.00  0.00    +0.017 C 
ATOM      9  C   UNL     1     -36.610  25.391   3.383  0.00  0.00    +0.055 C 
ATOM     10  C   UNL     1     -38.084  25.032   3.536  0.00  0.00    +0.046 C 
ATOM     11  C   UNL     1     -34.502  24.422   2.637  0.00  0.00    -0.098 C 
ATOM     12  H   UNL     1     -35.827  23.549   3.850  0.00  0.00    -0.077 HD
BRANCH   9  14
ATOM     13  O   UNL     1     -35.973  25.220   5.707  0.00  0.00    -0.253 OA
ATOM     14  C   UNL     1     -36.089  25.893   4.693  0.00  0.00    +0.295 C 
BRANCH  14  15
ATOM     15  O   UNL     1     -35.761  27.206   4.606  0.00  0.00    -0.482 OA
ATOM     16  H   UNL     1     -35.728  27.626   3.769  0.00  0.00    +0.295 HD
ENDBRANCH  14  15
ENDBRANCH   9  14
ENDBRANCH   3   8
BRANCH   5  17
ATOM     17  C   UNL     1     -33.573  19.915   0.934  0.00  0.00    +0.057 C 
ATOM     18  C   UNL     1     -32.607  20.581   0.170  0.00  0.00    +0.136 C 
ATOM     19  C   UNL     1     -33.283  18.647   1.449  0.00  0.00    +0.005 C 
ATOM     20  C   UNL     1     -31.369  19.986  -0.076  0.00  0.00    +0.037 C 
ATOM     21  C   UNL     1     -32.045  18.051   1.203  0.00  0.00    +0.000 C 
ATOM     22  C   UNL     1     -31.088  18.721   0.441  0.00  0.00    +0.003 C 
BRANCH  18  23
ATOM     23  O   UNL     1     -32.861  21.818  -0.344  0.00  0.00    -0.505 OA
ATOM     24  H   UNL     1     -32.797  22.575   0.204  0.00  0.00    +0.292 HD
ENDBRANCH  18  23
ENDBRANCH   5  17
TORSDOF 5
ENDMDL
MODEL 7
REMARK VINA RESULT:      -5.2      4.868      7.087
REMARK  Name = 5287441
REMARK  5 active torsions:
REMARK  status: ('A' for Active; 'I' for Inactive)
REMARK    1  A    between atoms: C_3  and  C_8
REMARK    2  A    between atoms: C_5  and  C_17
REMARK    3  A    between atoms: C_9  and  C_14
REMARK    4  A    between atoms: C_14  and  O_15
REMARK    5  A    between atoms: C_18  and  O_23
REMARK                            x       y       z     vdW  Elec       q    Type
REMARK                         _______ _______ _______ _____ _____    ______ ____
ROOT
ATOM      1  S   UNL     1     -34.354  23.043  -0.306  0.00  0.00    -0.093 S 
ATOM      2  N   UNL     1     -35.586  21.587   1.460  0.00  0.00    -0.266 NA
ATOM      3  C   UNL     1     -36.450  22.756   1.189  0.00  0.00    +0.106 C 
ATOM      4  C   UNL     1     -35.596  23.906   0.672  0.00  0.00    +0.087 C 
ATOM      5  C   UNL     1     -34.533  21.623   0.704  0.00  0.00    +0.104 C 
ENDROOT
BRANCH   3   8
ATOM      6  S   UNL     1     -36.077  24.139   3.522  0.00  0.00    -0.162 S 
ATOM      7  N   UNL     1     -38.386  23.931   2.188  0.00  0.00    +0.403 N 
ATOM      8  C   UNL     1     -37.180  23.132   2.473  0.00  0.00    +0.017 C 
ATOM      9  C   UNL     1     -38.609  24.816   3.343  0.00  0.00    +0.055 C 
ATOM     10  C   UNL     1     -37.277  25.474   3.683  0.00  0.00    +0.046 C 
ATOM     11  C   UNL     1     -39.541  23.073   1.916  0.00  0.00    -0.098 C 
ATOM     12  H   UNL     1     -38.255  24.491   1.345  0.00  0.00    -0.077 HD
BRANCH   9  14
ATOM     13  O   UNL     1     -39.460  26.639   2.006  0.00  0.00    -0.253 OA
ATOM     14  C   UNL     1     -39.593  25.873   2.949  0.00  0.00    +0.295 C 
BRANCH  14  15
ATOM     15  O   UNL     1     -40.659  25.870   3.786  0.00  0.00    -0.482 OA
ATOM     16  H   UNL     1     -41.349  26.493   3.668  0.00  0.00    +0.295 HD
ENDBRANCH  14  15
ENDBRANCH   9  14
ENDBRANCH   3   8
BRANCH   5  17
ATOM     17  C   UNL     1     -33.508  20.553   0.705  0.00  0.00    +0.057 C 
ATOM     18  C   UNL     1     -33.694  19.368   1.428  0.00  0.00    +0.136 C 
ATOM     19  C   UNL     1     -32.331  20.726  -0.032  0.00  0.00    +0.005 C 
ATOM     20  C   UNL     1     -32.717  18.373   1.415  0.00  0.00    +0.037 C 
ATOM     21  C   UNL     1     -31.353  19.730  -0.045  0.00  0.00    +0.000 C 
ATOM     22  C   UNL     1     -31.547  18.553   0.678  0.00  0.00    +0.003 C 
BRANCH  18  23
ATOM     23  O   UNL     1     -34.831  19.172   2.154  0.00  0.00    -0.505 OA
ATOM     24  H   UNL     1     -35.657  19.457   1.817  0.00  0.00    +0.292 HD
ENDBRANCH  18  23
ENDBRANCH   5  17
TORSDOF 5
ENDMDL
MODEL 8
REMARK VINA RESULT:      -5.1      2.567      3.075
REMARK  Name = 5287441
REMARK  5 active torsions:
REMARK  status: ('A' for Active; 'I' for Inactive)
REMARK    1  A    between atoms: C_3  and  C_8
REMARK    2  A    between atoms: C_5  and  C_17
REMARK    3  A    between atoms: C_9  and  C_14
REMARK    4  A    between atoms: C_14  and  O_15
REMARK    5  A    between atoms: C_18  and  O_23
REMARK                            x       y       z     vdW  Elec       q    Type
REMARK                         _______ _______ _______ _____ _____    ______ ____
ROOT
ATOM      1  S   UNL     1     -32.920  26.486   2.198  0.00  0.00    -0.093 S 
ATOM      2  N   UNL     1     -35.184  26.521   3.474  0.00  0.00    -0.266 NA
ATOM      3  C   UNL     1     -34.725  25.115   3.451  0.00  0.00    +0.106 C 
ATOM      4  C   UNL     1     -33.786  24.909   2.270  0.00  0.00    +0.087 C 
ATOM      5  C   UNL     1     -34.303  27.289   2.912  0.00  0.00    +0.104 C 
ENDROOT
BRANCH   3   8
ATOM      6  S   UNL     1     -36.811  24.503   1.787  0.00  0.00    -0.162 S 
ATOM      7  N   UNL     1     -35.553  22.783   3.404  0.00  0.00    +0.403 N 
ATOM      8  C   UNL     1     -35.944  24.204   3.366  0.00  0.00    +0.017 C 
ATOM      9  C   UNL     1     -36.560  22.030   2.639  0.00  0.00    +0.055 C 
ATOM     10  C   UNL     1     -36.778  22.762   1.320  0.00  0.00    +0.046 C 
ATOM     11  C   UNL     1     -35.431  22.302   4.782  0.00  0.00    -0.098 C 
ATOM     12  H   UNL     1     -34.632  22.652   2.985  0.00  0.00    -0.077 HD
BRANCH   9  14
ATOM     13  O   UNL     1     -34.919  20.428   1.879  0.00  0.00    -0.253 OA
ATOM     14  C   UNL     1     -36.018  20.663   2.358  0.00  0.00    +0.295 C 
BRANCH  14  15
ATOM     15  O   UNL     1     -36.919  19.711   2.706  0.00  0.00    -0.482 OA
ATOM     16  H   UNL     1     -37.511  19.370   2.065  0.00  0.00    +0.295 HD
ENDBRANCH  14  15
ENDBRANCH   9  14
ENDBRANCH   3   8
BRANCH   5  17
ATOM     17  C   UNL     1     -34.454  28.761   2.837  0.00  0.00    +0.057 C 
ATOM     18  C   UNL     1     -35.605  29.346   2.294  0.00  0.00    +0.136 C 
ATOM     19  C   UNL     1     -33.430  29.585   3.318  0.00  0.00    +0.005 C 
ATOM     20  C   UNL     1     -35.728  30.735   2.232  0.00  0.00    +0.037 C 
ATOM     21  C   UNL     1     -33.552  30.973   3.255  0.00  0.00    +0.000 C 
ATOM     22  C   UNL     1     -34.702  31.548   2.713  0.00  0.00    +0.003 C 
BRANCH  18  23
ATOM     23  O   UNL     1     -36.619  28.569   1.819  0.00  0.00    -0.505 OA
ATOM     24  H   UNL     1     -36.438  27.710   1.493  0.00  0.00    +0.292 HD
ENDBRANCH  18  23
ENDBRANCH   5  17
TORSDOF 5
ENDMDL
MODEL 9
REMARK VINA RESULT:      -5.1      4.637      6.900
REMARK  Name = 5287441
REMARK  5 active torsions:
REMARK  status: ('A' for Active; 'I' for Inactive)
REMARK    1  A    between atoms: C_3  and  C_8
REMARK    2  A    between atoms: C_5  and  C_17
REMARK    3  A    between atoms: C_9  and  C_14
REMARK    4  A    between atoms: C_14  and  O_15
REMARK    5  A    between atoms: C_18  and  O_23
REMARK                            x       y       z     vdW  Elec       q    Type
REMARK                         _______ _______ _______ _____ _____    ______ ____
ROOT
ATOM      1  S   UNL     1     -37.532  21.157   1.689  0.00  0.00    -0.093 S 
ATOM      2  N   UNL     1     -34.994  21.551   1.292  0.00  0.00    -0.266 NA
ATOM      3  C   UNL     1     -35.500  20.797   0.124  0.00  0.00    +0.106 C 
ATOM      4  C   UNL     1     -36.752  20.028   0.524  0.00  0.00    +0.087 C 
ATOM      5  C   UNL     1     -35.966  21.825   2.104  0.00  0.00    +0.104 C 
ENDROOT
BRANCH   3   8
ATOM      6  S   UNL     1     -33.215  19.559   0.986  0.00  0.00    -0.162 S 
ATOM      7  N   UNL     1     -34.951  18.563  -0.788  0.00  0.00    +0.403 N 
ATOM      8  C   UNL     1     -34.400  19.864  -0.369  0.00  0.00    +0.017 C 
ATOM      9  C   UNL     1     -33.908  17.550  -0.559  0.00  0.00    +0.055 C 
ATOM     10  C   UNL     1     -33.356  17.768   0.845  0.00  0.00    +0.046 C 
ATOM     11  C   UNL     1     -35.392  18.597  -2.185  0.00  0.00    -0.098 C 
ATOM     12  H   UNL     1     -35.782  18.332  -0.244  0.00  0.00    -0.077 HD
BRANCH   9  14
ATOM     13  O   UNL     1     -34.291  15.352  -1.485  0.00  0.00    -0.253 OA
ATOM     14  C   UNL     1     -34.538  16.194  -0.634  0.00  0.00    +0.295 C 
BRANCH  14  15
ATOM     15  O   UNL     1     -35.428  16.023   0.374  0.00  0.00    -0.482 OA
ATOM     16  H   UNL     1     -36.329  16.242   0.245  0.00  0.00    +0.295 HD
ENDBRANCH  14  15
ENDBRANCH   9  14
ENDBRANCH   3   8
BRANCH   5  17
ATOM     17  C   UNL     1     -35.780  22.624   3.337  0.00  0.00    +0.057 C 
ATOM     18  C   UNL     1     -35.430  22.019   4.551  0.00  0.00    +0.136 C 
ATOM     19  C   UNL     1     -35.957  24.012   3.292  0.00  0.00    +0.005 C 
ATOM     20  C   UNL     1     -35.259  22.790   5.701  0.00  0.00    +0.037 C 
ATOM     21  C   UNL     1     -35.787  24.784   4.442  0.00  0.00    +0.000 C 
ATOM     22  C   UNL     1     -35.437  24.172   5.647  0.00  0.00    +0.003 C 
BRANCH  18  23
ATOM     23  O   UNL     1     -35.250  20.670   4.624  0.00  0.00    -0.505 OA
ATOM     24  H   UNL     1     -35.991  20.097   4.613  0.00  0.00    +0.292 HD
ENDBRANCH  18  23
ENDBRANCH   5  17
TORSDOF 5
ENDMDL
