MODEL 1
REMARK VINA RESULT:      -5.5      0.000      0.000
REMARK  Name = 57416896
REMARK  5 active torsions:
REMARK  status: ('A' for Active; 'I' for Inactive)
REMARK    1  A    between atoms: C2*_2  and  O2*_15
REMARK    2  A    between atoms: C3*_3  and  O3*_17
REMARK    3  A    between atoms: C1*_4  and  N1_8
REMARK    4  A    between atoms: C4*_5  and  C5*_19
REMARK    5  A    between atoms: C5*_19  and  O5*_20
REMARK                            x       y       z     vdW  Elec       q    Type
REMARK                         _______ _______ _______ _____ _____    ______ ____
ROOT
ATOM      1  O4* U   A   1     -36.322  23.658   5.093  0.00  0.00    -0.333 OA
ATOM      2  C2* U   A   1     -34.745  23.713   3.335  0.00  0.00    +0.187 C 
ATOM      3  C3* U   A   1     -34.170  24.483   4.506  0.00  0.00    +0.171 C 
ATOM      4  C1* U   A   1     -35.763  22.841   4.052  0.00  0.00    +0.229 C 
ATOM      5  C4* U   A   1     -35.386  24.711   5.405  0.00  0.00    +0.175 C 
ENDROOT
BRANCH   4   8
ATOM      6  O2  U   A   1     -35.741  20.307   2.811  0.00  0.00    -0.252 OA
ATOM      7  O4  U   A   1     -39.839  21.044   0.835  0.00  0.00    -0.270 OA
ATOM      8  N1  U   A   1     -36.810  22.345   3.211  0.00  0.00    -0.217 N 
ATOM      9  N3  U   A   1     -37.782  20.675   1.829  0.00  0.00    -0.236 N 
ATOM     10  C2  U   A   1     -36.701  21.058   2.634  0.00  0.00    +0.315 C 
ATOM     11  C6  U   A   1     -37.929  23.131   2.962  0.00  0.00    +0.076 C 
ATOM     12  C5  U   A   1     -38.950  22.752   2.192  0.00  0.00    +0.074 C 
ATOM     13  C4  U   A   1     -38.916  21.423   1.551  0.00  0.00    +0.254 C 
ATOM     14  H3  U   A   1     -37.729  19.783   1.415  0.00  0.00    +0.159 HD
ENDBRANCH   4   8
BRANCH   2  15
ATOM     15  O2* U   A   1     -35.392  24.615   2.440  0.00  0.00    -0.378 OA
ATOM     16  H2* U   A   1     -35.285  24.298   1.530  0.00  0.00    +0.211 HD
ENDBRANCH   2  15
BRANCH   3  17
ATOM     17  O3* U   A   1     -33.505  25.670   4.130  0.00  0.00    -0.379 OA
ATOM     18  H3* U   A   1     -33.264  26.170   4.925  0.00  0.00    +0.211 HD
ENDBRANCH   3  17
BRANCH   5  19
ATOM     19  C5* U   A   1     -36.089  26.051   5.245  0.00  0.00    +0.169 C 
BRANCH  19  20
ATOM     20  O5* U   A   1     -37.298  25.852   4.530  0.00  0.00    -0.379 OA
ATOM     21  H5* U   A   1     -38.014  25.657   5.153  0.00  0.00    +0.211 HD
ENDBRANCH  19  20
ENDBRANCH   5  19
TORSDOF 5
ENDMDL
MODEL 2
REMARK VINA RESULT:      -5.4      1.880      2.964
REMARK  Name = 57416896
REMARK  5 active torsions:
REMARK  status: ('A' for Active; 'I' for Inactive)
REMARK    1  A    between atoms: C2*_2  and  O2*_15
REMARK    2  A    between atoms: C3*_3  and  O3*_17
REMARK    3  A    between atoms: C1*_4  and  N1_8
REMARK    4  A    between atoms: C4*_5  and  C5*_19
REMARK    5  A    between atoms: C5*_19  and  O5*_20
REMARK                            x       y       z     vdW  Elec       q    Type
REMARK                         _______ _______ _______ _____ _____    ______ ____
ROOT
ATOM      1  O4* U   A   1     -35.970  23.769   3.076  0.00  0.00    -0.333 OA
ATOM      2  C2* U   A   1     -37.487  25.557   3.360  0.00  0.00    +0.187 C 
ATOM      3  C3* U   A   1     -36.196  25.920   4.064  0.00  0.00    +0.171 C 
ATOM      4  C1* U   A   1     -36.981  24.514   2.378  0.00  0.00    +0.229 C 
ATOM      5  C4* U   A   1     -35.457  24.584   4.151  0.00  0.00    +0.175 C 
ENDROOT
BRANCH   4   8
ATOM      6  O2  U   A   1     -38.975  25.232   0.514  0.00  0.00    -0.252 OA
ATOM      7  O4  U   A   1     -40.817  21.008   0.593  0.00  0.00    -0.270 OA
ATOM      8  N1  U   A   1     -37.992  23.623   1.894  0.00  0.00    -0.217 N 
ATOM      9  N3  U   A   1     -39.890  23.128   0.555  0.00  0.00    -0.236 N 
ATOM     10  C2  U   A   1     -38.948  24.083   0.959  0.00  0.00    +0.315 C 
ATOM     11  C6  U   A   1     -38.030  22.309   2.345  0.00  0.00    +0.076 C 
ATOM     12  C5  U   A   1     -38.934  21.411   1.951  0.00  0.00    +0.074 C 
ATOM     13  C4  U   A   1     -39.970  21.809   0.976  0.00  0.00    +0.254 C 
ATOM     14  H3  U   A   1     -40.568  23.424  -0.096  0.00  0.00    +0.159 HD
ENDBRANCH   4   8
BRANCH   2  15
ATOM     15  O2* U   A   1     -38.394  24.977   4.294  0.00  0.00    -0.378 OA
ATOM     16  H2* U   A   1     -38.789  24.180   3.907  0.00  0.00    +0.211 HD
ENDBRANCH   2  15
BRANCH   3  17
ATOM     17  O3* U   A   1     -36.390  26.549   5.313  0.00  0.00    -0.379 OA
ATOM     18  H3* U   A   1     -35.940  27.408   5.316  0.00  0.00    +0.211 HD
ENDBRANCH   3  17
BRANCH   5  19
ATOM     19  C5* U   A   1     -35.615  23.821   5.458  0.00  0.00    +0.169 C 
BRANCH  19  20
ATOM     20  O5* U   A   1     -36.386  22.654   5.218  0.00  0.00    -0.379 OA
ATOM     21  H5* U   A   1     -36.151  21.972   5.866  0.00  0.00    +0.211 HD
ENDBRANCH  19  20
ENDBRANCH   5  19
TORSDOF 5
ENDMDL
MODEL 3
REMARK VINA RESULT:      -5.4      2.628      4.276
REMARK  Name = 57416896
REMARK  5 active torsions:
REMARK  status: ('A' for Active; 'I' for Inactive)
REMARK    1  A    between atoms: C2*_2  and  O2*_15
REMARK    2  A    between atoms: C3*_3  and  O3*_17
REMARK    3  A    between atoms: C1*_4  and  N1_8
REMARK    4  A    between atoms: C4*_5  and  C5*_19
REMARK    5  A    between atoms: C5*_19  and  O5*_20
REMARK                            x       y       z     vdW  Elec       q    Type
REMARK                         _______ _______ _______ _____ _____    ______ ____
ROOT
ATOM      1  O4* U   A   1     -34.961  26.081   2.115  0.00  0.00    -0.333 OA
ATOM      2  C2* U   A   1     -37.310  25.826   2.070  0.00  0.00    +0.187 C 
ATOM      3  C3* U   A   1     -36.937  26.923   1.093  0.00  0.00    +0.171 C 
ATOM      4  C1* U   A   1     -35.990  25.078   2.160  0.00  0.00    +0.229 C 
ATOM      5  C4* U   A   1     -35.497  27.261   1.481  0.00  0.00    +0.175 C 
ENDROOT
BRANCH   4   8
ATOM      6  O2  U   A   1     -37.266  22.597   2.583  0.00  0.00    -0.252 OA
ATOM      7  O4  U   A   1     -35.354  22.125   6.750  0.00  0.00    -0.270 OA
ATOM      8  N1  U   A   1     -35.842  24.286   3.344  0.00  0.00    -0.217 N 
ATOM      9  N3  U   A   1     -36.312  22.364   4.657  0.00  0.00    -0.236 N 
ATOM     10  C2  U   A   1     -36.528  23.055   3.458  0.00  0.00    +0.315 C 
ATOM     11  C6  U   A   1     -35.027  24.731   4.377  0.00  0.00    +0.076 C 
ATOM     12  C5  U   A   1     -34.831  24.061   5.515  0.00  0.00    +0.074 C 
ATOM     13  C4  U   A   1     -35.511  22.766   5.715  0.00  0.00    +0.254 C 
ATOM     14  H3  U   A   1     -36.780  21.503   4.761  0.00  0.00    +0.159 HD
ENDBRANCH   4   8
BRANCH   2  15
ATOM     15  O2* U   A   1     -37.653  26.402   3.328  0.00  0.00    -0.378 OA
ATOM     16  H2* U   A   1     -37.422  27.344   3.326  0.00  0.00    +0.211 HD
ENDBRANCH   2  15
BRANCH   3  17
ATOM     17  O3* U   A   1     -37.813  28.029   1.125  0.00  0.00    -0.379 OA
ATOM     18  H3* U   A   1     -37.735  28.527   0.296  0.00  0.00    +0.211 HD
ENDBRANCH   3  17
BRANCH   5  19
ATOM     19  C5* U   A   1     -35.322  28.442   2.424  0.00  0.00    +0.169 C 
BRANCH  19  20
ATOM     20  O5* U   A   1     -35.187  27.955   3.750  0.00  0.00    -0.379 OA
ATOM     21  H5* U   A   1     -35.189  28.700   4.370  0.00  0.00    +0.211 HD
ENDBRANCH  19  20
ENDBRANCH   5  19
TORSDOF 5
ENDMDL
MODEL 4
REMARK VINA RESULT:      -5.4      2.501      4.209
REMARK  Name = 57416896
REMARK  5 active torsions:
REMARK  status: ('A' for Active; 'I' for Inactive)
REMARK    1  A    between atoms: C2*_2  and  O2*_15
REMARK    2  A    between atoms: C3*_3  and  O3*_17
REMARK    3  A    between atoms: C1*_4  and  N1_8
REMARK    4  A    between atoms: C4*_5  and  C5*_19
REMARK    5  A    between atoms: C5*_19  and  O5*_20
REMARK                            x       y       z     vdW  Elec       q    Type
REMARK                         _______ _______ _______ _____ _____    ______ ____
ROOT
ATOM      1  O4* U   A   1     -33.557  26.039   3.102  0.00  0.00    -0.333 OA
ATOM      2  C2* U   A   1     -35.762  26.850   3.345  0.00  0.00    +0.187 C 
ATOM      3  C3* U   A   1     -34.922  27.949   2.728  0.00  0.00    +0.171 C 
ATOM      4  C1* U   A   1     -34.930  25.631   2.983  0.00  0.00    +0.229 C 
ATOM      5  C4* U   A   1     -33.489  27.474   2.973  0.00  0.00    +0.175 C 
ENDROOT
BRANCH   4   8
ATOM      6  O2  U   A   1     -37.056  23.814   2.608  0.00  0.00    -0.252 OA
ATOM      7  O4  U   A   1     -35.756  21.275   6.228  0.00  0.00    -0.270 OA
ATOM      8  N1  U   A   1     -35.169  24.487   3.810  0.00  0.00    -0.217 N 
ATOM      9  N3  U   A   1     -36.406  22.551   4.410  0.00  0.00    -0.236 N 
ATOM     10  C2  U   A   1     -36.266  23.638   3.538  0.00  0.00    +0.315 C 
ATOM     11  C6  U   A   1     -34.324  24.218   4.879  0.00  0.00    +0.076 C 
ATOM     12  C5  U   A   1     -34.471  23.178   5.702  0.00  0.00    +0.074 C 
ATOM     13  C4  U   A   1     -35.592  22.241   5.489  0.00  0.00    +0.254 C 
ATOM     14  H3  U   A   1     -37.164  21.945   4.241  0.00  0.00    +0.159 HD
ENDBRANCH   4   8
BRANCH   2  15
ATOM     15  O2* U   A   1     -35.815  27.025   4.759  0.00  0.00    -0.378 OA
ATOM     16  H2* U   A   1     -35.381  27.859   4.998  0.00  0.00    +0.211 HD
ENDBRANCH   2  15
BRANCH   3  17
ATOM     17  O3* U   A   1     -35.197  29.232   3.250  0.00  0.00    -0.379 OA
ATOM     18  H3* U   A   1     -35.491  29.149   4.171  0.00  0.00    +0.211 HD
ENDBRANCH   3  17
BRANCH   5  19
ATOM     19  C5* U   A   1     -32.802  28.042   4.207  0.00  0.00    +0.169 C 
BRANCH  19  20
ATOM     20  O5* U   A   1     -32.806  27.057   5.228  0.00  0.00    -0.379 OA
ATOM     21  H5* U   A   1     -33.701  26.699   5.328  0.00  0.00    +0.211 HD
ENDBRANCH  19  20
ENDBRANCH   5  19
TORSDOF 5
ENDMDL
MODEL 5
REMARK VINA RESULT:      -5.3      2.183      2.784
REMARK  Name = 57416896
REMARK  5 active torsions:
REMARK  status: ('A' for Active; 'I' for Inactive)
REMARK    1  A    between atoms: C2*_2  and  O2*_15
REMARK    2  A    between atoms: C3*_3  and  O3*_17
REMARK    3  A    between atoms: C1*_4  and  N1_8
REMARK    4  A    between atoms: C4*_5  and  C5*_19
REMARK    5  A    between atoms: C5*_19  and  O5*_20
REMARK                            x       y       z     vdW  Elec       q    Type
REMARK                         _______ _______ _______ _____ _____    ______ ____
ROOT
ATOM      1  O4* U   A   1     -36.316  25.257   4.041  0.00  0.00    -0.333 OA
ATOM      2  C2* U   A   1     -34.437  24.689   5.356  0.00  0.00    +0.187 C 
ATOM      3  C3* U   A   1     -34.799  26.130   5.651  0.00  0.00    +0.171 C 
ATOM      4  C1* U   A   1     -35.761  24.178   4.813  0.00  0.00    +0.229 C 
ATOM      5  C4* U   A   1     -35.739  26.497   4.502  0.00  0.00    +0.175 C 
ENDROOT
BRANCH   4   8
ATOM      6  O2  U   A   1     -35.386  21.569   5.820  0.00  0.00    -0.252 OA
ATOM      7  O4  U   A   1     -35.344  19.751   1.586  0.00  0.00    -0.270 OA
ATOM      8  N1  U   A   1     -35.651  23.006   3.997  0.00  0.00    -0.217 N 
ATOM      9  N3  U   A   1     -35.366  20.666   3.711  0.00  0.00    -0.236 N 
ATOM     10  C2  U   A   1     -35.462  21.742   4.602  0.00  0.00    +0.315 C 
ATOM     11  C6  U   A   1     -35.728  23.116   2.614  0.00  0.00    +0.076 C 
ATOM     12  C5  U   A   1     -35.634  22.081   1.778  0.00  0.00    +0.074 C 
ATOM     13  C4  U   A   1     -35.435  20.725   2.327  0.00  0.00    +0.254 C 
ATOM     14  H3  U   A   1     -35.233  19.775   4.108  0.00  0.00    +0.159 HD
ENDBRANCH   4   8
BRANCH   2  15
ATOM     15  O2* U   A   1     -33.427  24.644   4.352  0.00  0.00    -0.378 OA
ATOM     16  H2* U   A   1     -33.513  23.823   3.844  0.00  0.00    +0.211 HD
ENDBRANCH   2  15
BRANCH   3  17
ATOM     17  O3* U   A   1     -33.679  26.981   5.768  0.00  0.00    -0.379 OA
ATOM     18  H3* U   A   1     -33.957  27.901   5.633  0.00  0.00    +0.211 HD
ENDBRANCH   3  17
BRANCH   5  19
ATOM     19  C5* U   A   1     -35.097  27.205   3.318  0.00  0.00    +0.169 C 
BRANCH  19  20
ATOM     20  O5* U   A   1     -35.082  28.601   3.571  0.00  0.00    -0.379 OA
ATOM     21  H5* U   A   1     -34.617  29.054   2.851  0.00  0.00    +0.211 HD
ENDBRANCH  19  20
ENDBRANCH   5  19
TORSDOF 5
ENDMDL
MODEL 6
REMARK VINA RESULT:      -5.3      2.864      5.154
REMARK  Name = 57416896
REMARK  5 active torsions:
REMARK  status: ('A' for Active; 'I' for Inactive)
REMARK    1  A    between atoms: C2*_2  and  O2*_15
REMARK    2  A    between atoms: C3*_3  and  O3*_17
REMARK    3  A    between atoms: C1*_4  and  N1_8
REMARK    4  A    between atoms: C4*_5  and  C5*_19
REMARK    5  A    between atoms: C5*_19  and  O5*_20
REMARK                            x       y       z     vdW  Elec       q    Type
REMARK                         _______ _______ _______ _____ _____    ______ ____
ROOT
ATOM      1  O4* U   A   1     -34.929  23.653   2.712  0.00  0.00    -0.333 OA
ATOM      2  C2* U   A   1     -35.685  24.346   4.840  0.00  0.00    +0.187 C 
ATOM      3  C3* U   A   1     -35.285  22.888   4.935  0.00  0.00    +0.171 C 
ATOM      4  C1* U   A   1     -34.890  24.770   3.616  0.00  0.00    +0.229 C 
ATOM      5  C4* U   A   1     -35.193  22.455   3.471  0.00  0.00    +0.175 C 
ENDROOT
BRANCH   4   8
ATOM      6  O2  U   A   1     -34.335  27.413   4.432  0.00  0.00    -0.252 OA
ATOM      7  O4  U   A   1     -36.891  29.187   1.032  0.00  0.00    -0.270 OA
ATOM      8  N1  U   A   1     -35.396  25.939   2.962  0.00  0.00    -0.217 N 
ATOM      9  N3  U   A   1     -35.608  28.294   2.738  0.00  0.00    -0.236 N 
ATOM     10  C2  U   A   1     -35.058  27.222   3.453  0.00  0.00    +0.315 C 
ATOM     11  C6  U   A   1     -36.217  25.810   1.849  0.00  0.00    +0.076 C 
ATOM     12  C5  U   A   1     -36.733  26.842   1.179  0.00  0.00    +0.074 C 
ATOM     13  C4  U   A   1     -36.431  28.216   1.625  0.00  0.00    +0.254 C 
ATOM     14  H3  U   A   1     -35.388  29.198   3.061  0.00  0.00    +0.159 HD
ENDBRANCH   4   8
BRANCH   2  15
ATOM     15  O2* U   A   1     -37.085  24.444   4.595  0.00  0.00    -0.378 OA
ATOM     16  H2* U   A   1     -37.453  23.556   4.467  0.00  0.00    +0.211 HD
ENDBRANCH   2  15
BRANCH   3  17
ATOM     17  O3* U   A   1     -36.173  22.108   5.707  0.00  0.00    -0.379 OA
ATOM     18  H3* U   A   1     -36.693  22.688   6.285  0.00  0.00    +0.211 HD
ENDBRANCH   3  17
BRANCH   5  19
ATOM     19  C5* U   A   1     -36.429  21.778   2.899  0.00  0.00    +0.169 C 
BRANCH  19  20
ATOM     20  O5* U   A   1     -36.345  20.383   3.145  0.00  0.00    -0.379 OA
ATOM     21  H5* U   A   1     -37.236  20.003   3.163  0.00  0.00    +0.211 HD
ENDBRANCH  19  20
ENDBRANCH   5  19
TORSDOF 5
ENDMDL
MODEL 7
REMARK VINA RESULT:      -5.2      3.562      5.489
REMARK  Name = 57416896
REMARK  5 active torsions:
REMARK  status: ('A' for Active; 'I' for Inactive)
REMARK    1  A    between atoms: C2*_2  and  O2*_15
REMARK    2  A    between atoms: C3*_3  and  O3*_17
REMARK    3  A    between atoms: C1*_4  and  N1_8
REMARK    4  A    between atoms: C4*_5  and  C5*_19
REMARK    5  A    between atoms: C5*_19  and  O5*_20
REMARK                            x       y       z     vdW  Elec       q    Type
REMARK                         _______ _______ _______ _____ _____    ______ ____
ROOT
ATOM      1  O4* U   A   1     -34.840  21.549   1.626  0.00  0.00    -0.333 OA
ATOM      2  C2* U   A   1     -36.843  20.364   1.222  0.00  0.00    +0.187 C 
ATOM      3  C3* U   A   1     -37.208  21.743   1.733  0.00  0.00    +0.171 C 
ATOM      4  C1* U   A   1     -35.440  20.625   0.703  0.00  0.00    +0.229 C 
ATOM      5  C4* U   A   1     -35.892  22.260   2.313  0.00  0.00    +0.175 C 
ENDROOT
BRANCH   4   8
ATOM      6  O2  U   A   1     -35.793  18.618  -1.249  0.00  0.00    -0.252 OA
ATOM      7  O4  U   A   1     -32.251  16.162   0.383  0.00  0.00    -0.270 OA
ATOM      8  N1  U   A   1     -34.624  19.453   0.594  0.00  0.00    -0.217 N 
ATOM      9  N3  U   A   1     -34.029  17.397  -0.435  0.00  0.00    -0.236 N 
ATOM     10  C2  U   A   1     -34.886  18.504  -0.422  0.00  0.00    +0.315 C 
ATOM     11  C6  U   A   1     -33.580  19.251   1.488  0.00  0.00    +0.076 C 
ATOM     12  C5  U   A   1     -32.771  18.190   1.463  0.00  0.00    +0.074 C 
ATOM     13  C4  U   A   1     -32.976  17.151   0.434  0.00  0.00    +0.254 C 
ATOM     14  H3  U   A   1     -34.192  16.721  -1.133  0.00  0.00    +0.159 HD
ENDBRANCH   4   8
BRANCH   2  15
ATOM     15  O2* U   A   1     -36.818  19.442   2.309  0.00  0.00    -0.378 OA
ATOM     16  H2* U   A   1     -35.957  18.996   2.335  0.00  0.00    +0.211 HD
ENDBRANCH   2  15
BRANCH   3  17
ATOM     17  O3* U   A   1     -38.278  21.739   2.654  0.00  0.00    -0.379 OA
ATOM     18  H3* U   A   1     -37.932  21.866   3.551  0.00  0.00    +0.211 HD
ENDBRANCH   3  17
BRANCH   5  19
ATOM     19  C5* U   A   1     -35.707  22.073   3.812  0.00  0.00    +0.169 C 
BRANCH  19  20
ATOM     20  O5* U   A   1     -36.656  22.876   4.496  0.00  0.00    -0.379 OA
ATOM     21  H5* U   A   1     -37.445  22.347   4.693  0.00  0.00    +0.211 HD
ENDBRANCH  19  20
ENDBRANCH   5  19
TORSDOF 5
ENDMDL
MODEL 8
REMARK VINA RESULT:      -5.2      3.598      6.589
REMARK  Name = 57416896
REMARK  5 active torsions:
REMARK  status: ('A' for Active; 'I' for Inactive)
REMARK    1  A    between atoms: C2*_2  and  O2*_15
REMARK    2  A    between atoms: C3*_3  and  O3*_17
REMARK    3  A    between atoms: C1*_4  and  N1_8
REMARK    4  A    between atoms: C4*_5  and  C5*_19
REMARK    5  A    between atoms: C5*_19  and  O5*_20
REMARK                            x       y       z     vdW  Elec       q    Type
REMARK                         _______ _______ _______ _____ _____    ______ ____
ROOT
ATOM      1  O4* U   A   1     -35.053  25.736   3.018  0.00  0.00    -0.333 OA
ATOM      2  C2* U   A   1     -36.153  25.354   5.074  0.00  0.00    +0.187 C 
ATOM      3  C3* U   A   1     -36.979  24.720   3.973  0.00  0.00    +0.171 C 
ATOM      4  C1* U   A   1     -34.794  25.417   4.396  0.00  0.00    +0.229 C 
ATOM      5  C4* U   A   1     -36.405  25.345   2.701  0.00  0.00    +0.175 C 
ENDROOT
BRANCH   4   8
ATOM      6  O2  U   A   1     -33.608  27.521   2.937  0.00  0.00    -0.252 OA
ATOM      7  O4  U   A   1     -31.372  29.074   6.655  0.00  0.00    -0.270 OA
ATOM      8  N1  U   A   1     -33.901  26.385   4.957  0.00  0.00    -0.217 N 
ATOM      9  N3  U   A   1     -32.496  28.293   4.789  0.00  0.00    -0.236 N 
ATOM     10  C2  U   A   1     -33.358  27.402   4.137  0.00  0.00    +0.315 C 
ATOM     11  C6  U   A   1     -33.569  26.321   6.305  0.00  0.00    +0.076 C 
ATOM     12  C5  U   A   1     -32.745  27.178   6.912  0.00  0.00    +0.074 C 
ATOM     13  C4  U   A   1     -32.134  28.270   6.128  0.00  0.00    +0.254 C 
ATOM     14  H3  U   A   1     -32.104  29.010   4.239  0.00  0.00    +0.159 HD
ENDBRANCH   4   8
BRANCH   2  15
ATOM     15  O2* U   A   1     -36.644  26.663   5.348  0.00  0.00    -0.378 OA
ATOM     16  H2* U   A   1     -37.065  26.673   6.222  0.00  0.00    +0.211 HD
ENDBRANCH   2  15
BRANCH   3  17
ATOM     17  O3* U   A   1     -38.369  24.912   4.128  0.00  0.00    -0.379 OA
ATOM     18  H3* U   A   1     -38.846  24.218   3.648  0.00  0.00    +0.211 HD
ENDBRANCH   3  17
BRANCH   5  19
ATOM     19  C5* U   A   1     -37.149  26.558   2.162  0.00  0.00    +0.169 C 
BRANCH  19  20
ATOM     20  O5* U   A   1     -36.398  27.726   2.458  0.00  0.00    -0.379 OA
ATOM     21  H5* U   A   1     -36.855  28.238   3.142  0.00  0.00    +0.211 HD
ENDBRANCH  19  20
ENDBRANCH   5  19
TORSDOF 5
ENDMDL
MODEL 9
REMARK VINA RESULT:      -5.2      2.974      5.723
REMARK  Name = 57416896
REMARK  5 active torsions:
REMARK  status: ('A' for Active; 'I' for Inactive)
REMARK    1  A    between atoms: C2*_2  and  O2*_15
REMARK    2  A    between atoms: C3*_3  and  O3*_17
REMARK    3  A    between atoms: C1*_4  and  N1_8
REMARK    4  A    between atoms: C4*_5  and  C5*_19
REMARK    5  A    between atoms: C5*_19  and  O5*_20
REMARK                            x       y       z     vdW  Elec       q    Type
REMARK                         _______ _______ _______ _____ _____    ______ ____
ROOT
ATOM      1  O4* U   A   1     -34.729  23.958   2.980  0.00  0.00    -0.333 OA
ATOM      2  C2* U   A   1     -35.009  24.380   5.288  0.00  0.00    +0.187 C 
ATOM      3  C3* U   A   1     -35.186  22.893   5.057  0.00  0.00    +0.171 C 
ATOM      4  C1* U   A   1     -34.205  24.756   4.055  0.00  0.00    +0.229 C 
ATOM      5  C4* U   A   1     -35.370  22.794   3.542  0.00  0.00    +0.175 C 
ENDROOT
BRANCH   4   8
ATOM      6  O2  U   A   1     -32.740  26.796   5.341  0.00  0.00    -0.252 OA
ATOM      7  O4  U   A   1     -34.560  30.052   2.635  0.00  0.00    -0.270 OA
ATOM      8  N1  U   A   1     -34.275  26.143   3.706  0.00  0.00    -0.217 N 
ATOM      9  N3  U   A   1     -33.647  28.415   3.992  0.00  0.00    -0.236 N 
ATOM     10  C2  U   A   1     -33.499  27.088   4.416  0.00  0.00    +0.315 C 
ATOM     11  C6  U   A   1     -35.108  26.555   2.673  0.00  0.00    +0.076 C 
ATOM     12  C5  U   A   1     -35.238  27.824   2.281  0.00  0.00    +0.074 C 
ATOM     13  C4  U   A   1     -34.463  28.875   2.970  0.00  0.00    +0.254 C 
ATOM     14  H3  U   A   1     -33.117  29.093   4.472  0.00  0.00    +0.159 HD
ENDBRANCH   4   8
BRANCH   2  15
ATOM     15  O2* U   A   1     -36.282  25.021   5.277  0.00  0.00    -0.378 OA
ATOM     16  H2* U   A   1     -36.583  25.157   6.189  0.00  0.00    +0.211 HD
ENDBRANCH   2  15
BRANCH   3  17
ATOM     17  O3* U   A   1     -36.244  22.328   5.800  0.00  0.00    -0.379 OA
ATOM     18  H3* U   A   1     -36.636  21.595   5.299  0.00  0.00    +0.211 HD
ENDBRANCH   3  17
BRANCH   5  19
ATOM     19  C5* U   A   1     -36.809  22.746   3.049  0.00  0.00    +0.169 C 
BRANCH  19  20
ATOM     20  O5* U   A   1     -37.212  21.390   2.940  0.00  0.00    -0.379 OA
ATOM     21  H5* U   A   1     -38.099  21.347   2.550  0.00  0.00    +0.211 HD
ENDBRANCH  19  20
ENDBRANCH   5  19
TORSDOF 5
ENDMDL
