MODEL 1
REMARK VINA RESULT:      -6.2      0.000      0.000
REMARK  Name = 5281512
REMARK  5 active torsions:
REMARK  status: ('A' for Active; 'I' for Inactive)
REMARK    1  A    between atoms: C_5  and  O_19
REMARK    2  A    between atoms: C_7  and  O_21
REMARK    3  A    between atoms: C_9  and  O_23
REMARK    4  A    between atoms: O_23  and  C_25
REMARK    5  A    between atoms: C_25  and  C_26
REMARK                            x       y       z     vdW  Elec       q    Type
REMARK                         _______ _______ _______ _____ _____    ______ ____
ROOT
ATOM      1  O   UNL     1     -35.271  23.793   2.512  0.00  0.00    -0.334 OA
ATOM      2  O   UNL     1     -34.238  26.649   5.827  0.00  0.00    -0.444 OA
ATOM      3  O   UNL     1     -32.488  28.119   6.017  0.00  0.00    -0.245 OA
ATOM      4  C   UNL     1     -36.291  24.473   1.765  0.00  0.00    +0.124 C 
ATOM      5  C   UNL     1     -37.605  23.767   2.144  0.00  0.00    +0.141 C 
ATOM      6  C   UNL     1     -36.341  25.962   2.184  0.00  0.00    +0.074 C 
ATOM      7  C   UNL     1     -35.850  22.974   3.536  0.00  0.00    +0.202 C 
ATOM      8  C   UNL     1     -37.340  23.330   3.579  0.00  0.00    +0.092 C 
ATOM      9  C   UNL     1     -35.001  26.688   2.439  0.00  0.00    +0.180 C 
ATOM     10  C   UNL     1     -34.075  26.061   3.516  0.00  0.00    +0.113 C 
ATOM     11  C   UNL     1     -34.787  25.743   4.836  0.00  0.00    +0.198 C 
ATOM     12  C   UNL     1     -35.926  24.355   0.284  0.00  0.00    +0.032 C 
ATOM     13  C   UNL     1     -35.126  23.173   4.866  0.00  0.00    +0.006 C 
ATOM     14  C   UNL     1     -34.640  24.335   5.362  0.00  0.00    +0.013 C 
ATOM     15  C   UNL     1     -32.978  26.971   3.958  0.00  0.00    +0.060 C 
ATOM     16  C   UNL     1     -34.966  21.927   5.710  0.00  0.00    +0.031 C 
ATOM     17  C   UNL     1     -33.160  27.339   5.368  0.00  0.00    +0.338 C 
ATOM     18  C   UNL     1     -31.940  27.414   3.243  0.00  0.00    +0.002 C 
ENDROOT
BRANCH   5  19
ATOM     19  O   UNL     1     -37.821  22.613   1.337  0.00  0.00    -0.382 OA
ATOM     20  H   UNL     1     -37.167  22.593   0.622  0.00  0.00    +0.210 HD
ENDBRANCH   5  19
BRANCH   7  21
ATOM     21  O   UNL     1     -35.693  21.608   3.124  0.00  0.00    -0.361 OA
ATOM     22  H   UNL     1     -35.548  21.574   2.166  0.00  0.00    +0.213 HD
ENDBRANCH   7  21
BRANCH   9  23
ATOM     23  O   UNL     1     -35.334  28.035   2.803  0.00  0.00    -0.449 OA
BRANCH  23  25
ATOM     24  O   UNL     1     -34.819  28.795   0.692  0.00  0.00    -0.245 OA
ATOM     25  C   UNL     1     -35.019  28.985   1.883  0.00  0.00    +0.337 C 
BRANCH  25  26
ATOM     26  C   UNL     1     -34.952  30.316   2.549  0.00  0.00    +0.054 C 
ATOM     27  C   UNL     1     -33.757  30.692   3.370  0.00  0.00    +0.038 C 
ATOM     28  C   UNL     1     -35.995  31.142   2.380  0.00  0.00    +0.002 C 
ENDBRANCH  25  26
ENDBRANCH  23  25
ENDBRANCH   9  23
TORSDOF 5
ENDMDL
MODEL 2
REMARK VINA RESULT:      -6.0      1.210      1.448
REMARK  Name = 5281512
REMARK  5 active torsions:
REMARK  status: ('A' for Active; 'I' for Inactive)
REMARK    1  A    between atoms: C_5  and  O_19
REMARK    2  A    between atoms: C_7  and  O_21
REMARK    3  A    between atoms: C_9  and  O_23
REMARK    4  A    between atoms: O_23  and  C_25
REMARK    5  A    between atoms: C_25  and  C_26
REMARK                            x       y       z     vdW  Elec       q    Type
REMARK                         _______ _______ _______ _____ _____    ______ ____
ROOT
ATOM      1  O   UNL     1     -35.030  22.914   2.601  0.00  0.00    -0.334 OA
ATOM      2  O   UNL     1     -34.624  26.693   5.004  0.00  0.00    -0.444 OA
ATOM      3  O   UNL     1     -32.938  28.246   5.039  0.00  0.00    -0.245 OA
ATOM      4  C   UNL     1     -35.892  23.278   1.513  0.00  0.00    +0.124 C 
ATOM      5  C   UNL     1     -37.255  22.649   1.852  0.00  0.00    +0.141 C 
ATOM      6  C   UNL     1     -36.016  24.819   1.438  0.00  0.00    +0.074 C 
ATOM      7  C   UNL     1     -35.791  22.413   3.708  0.00  0.00    +0.202 C 
ATOM      8  C   UNL     1     -37.262  22.683   3.375  0.00  0.00    +0.092 C 
ATOM      9  C   UNL     1     -34.746  25.661   1.690  0.00  0.00    +0.180 C 
ATOM     10  C   UNL     1     -34.037  25.443   3.053  0.00  0.00    +0.113 C 
ATOM     11  C   UNL     1     -34.982  25.500   4.259  0.00  0.00    +0.198 C 
ATOM     12  C   UNL     1     -35.259  22.738   0.230  0.00  0.00    +0.032 C 
ATOM     13  C   UNL     1     -35.326  23.046   5.018  0.00  0.00    +0.006 C 
ATOM     14  C   UNL     1     -34.938  24.328   5.210  0.00  0.00    +0.013 C 
ATOM     15  C   UNL     1     -33.039  26.503   3.381  0.00  0.00    +0.060 C 
ATOM     16  C   UNL     1     -35.328  22.125   6.220  0.00  0.00    +0.031 C 
ATOM     17  C   UNL     1     -33.480  27.270   4.554  0.00  0.00    +0.338 C 
ATOM     18  C   UNL     1     -31.886  26.765   2.760  0.00  0.00    +0.002 C 
ENDROOT
BRANCH   5  19
ATOM     19  O   UNL     1     -37.319  21.295   1.415  0.00  0.00    -0.382 OA
ATOM     20  H   UNL     1     -38.053  21.192   0.790  0.00  0.00    +0.210 HD
ENDBRANCH   5  19
BRANCH   7  21
ATOM     21  O   UNL     1     -35.562  20.998   3.772  0.00  0.00    -0.361 OA
ATOM     22  H   UNL     1     -34.620  20.829   3.931  0.00  0.00    +0.213 HD
ENDBRANCH   7  21
BRANCH   9  23
ATOM     23  O   UNL     1     -35.137  27.035   1.556  0.00  0.00    -0.449 OA
BRANCH  23  25
ATOM     24  O   UNL     1     -34.579  27.233  -0.669  0.00  0.00    -0.245 OA
ATOM     25  C   UNL     1     -34.643  27.682   0.467  0.00  0.00    +0.337 C 
BRANCH  25  26
ATOM     26  C   UNL     1     -34.183  29.041   0.866  0.00  0.00    +0.054 C 
ATOM     27  C   UNL     1     -34.774  29.719   2.064  0.00  0.00    +0.038 C 
ATOM     28  C   UNL     1     -33.233  29.615   0.113  0.00  0.00    +0.002 C 
ENDBRANCH  25  26
ENDBRANCH  23  25
ENDBRANCH   9  23
TORSDOF 5
ENDMDL
MODEL 3
REMARK VINA RESULT:      -5.9      2.910      6.888
REMARK  Name = 5281512
REMARK  5 active torsions:
REMARK  status: ('A' for Active; 'I' for Inactive)
REMARK    1  A    between atoms: C_5  and  O_19
REMARK    2  A    between atoms: C_7  and  O_21
REMARK    3  A    between atoms: C_9  and  O_23
REMARK    4  A    between atoms: O_23  and  C_25
REMARK    5  A    between atoms: C_25  and  C_26
REMARK                            x       y       z     vdW  Elec       q    Type
REMARK                         _______ _______ _______ _____ _____    ______ ____
ROOT
ATOM      1  O   UNL     1     -36.704  25.280   2.126  0.00  0.00    -0.334 OA
ATOM      2  O   UNL     1     -37.905  20.964   1.740  0.00  0.00    -0.444 OA
ATOM      3  O   UNL     1     -37.962  19.607  -0.108  0.00  0.00    -0.245 OA
ATOM      4  C   UNL     1     -35.359  25.230   2.623  0.00  0.00    +0.124 C 
ATOM      5  C   UNL     1     -35.464  25.616   4.108  0.00  0.00    +0.141 C 
ATOM      6  C   UNL     1     -34.803  23.792   2.481  0.00  0.00    +0.074 C 
ATOM      7  C   UNL     1     -37.644  25.339   3.206  0.00  0.00    +0.202 C 
ATOM      8  C   UNL     1     -36.843  25.089   4.488  0.00  0.00    +0.092 C 
ATOM      9  C   UNL     1     -35.148  23.006   1.196  0.00  0.00    +0.180 C 
ATOM     10  C   UNL     1     -36.658  22.819   0.891  0.00  0.00    +0.113 C 
ATOM     11  C   UNL     1     -37.473  22.306   2.084  0.00  0.00    +0.198 C 
ATOM     12  C   UNL     1     -34.526  26.201   1.784  0.00  0.00    +0.032 C 
ATOM     13  C   UNL     1     -38.787  24.349   2.987  0.00  0.00    +0.006 C 
ATOM     14  C   UNL     1     -38.697  23.105   2.463  0.00  0.00    +0.013 C 
ATOM     15  C   UNL     1     -36.931  21.783  -0.148  0.00  0.00    +0.060 C 
ATOM     16  C   UNL     1     -40.153  24.827   3.431  0.00  0.00    +0.031 C 
ATOM     17  C   UNL     1     -37.650  20.647   0.443  0.00  0.00    +0.338 C 
ATOM     18  C   UNL     1     -36.616  21.819  -1.445  0.00  0.00    +0.002 C 
ENDROOT
BRANCH   5  19
ATOM     19  O   UNL     1     -35.444  27.031   4.275  0.00  0.00    -0.382 OA
ATOM     20  H   UNL     1     -36.069  27.283   4.971  0.00  0.00    +0.210 HD
ENDBRANCH   5  19
BRANCH   7  21
ATOM     21  O   UNL     1     -38.183  26.669   3.226  0.00  0.00    -0.361 OA
ATOM     22  H   UNL     1     -38.663  26.811   4.057  0.00  0.00    +0.213 HD
ENDBRANCH   7  21
BRANCH   9  23
ATOM     23  O   UNL     1     -34.512  21.726   1.322  0.00  0.00    -0.449 OA
BRANCH  23  25
ATOM     24  O   UNL     1     -33.090  22.258  -0.409  0.00  0.00    -0.245 OA
ATOM     25  C   UNL     1     -33.506  21.482   0.439  0.00  0.00    +0.337 C 
BRANCH  25  26
ATOM     26  C   UNL     1     -32.977  20.108   0.661  0.00  0.00    +0.054 C 
ATOM     27  C   UNL     1     -31.617  19.730   0.159  0.00  0.00    +0.038 C 
ATOM     28  C   UNL     1     -33.764  19.244   1.319  0.00  0.00    +0.002 C 
ENDBRANCH  25  26
ENDBRANCH  23  25
ENDBRANCH   9  23
TORSDOF 5
ENDMDL
MODEL 4
REMARK VINA RESULT:      -5.9      4.276      6.694
REMARK  Name = 5281512
REMARK  5 active torsions:
REMARK  status: ('A' for Active; 'I' for Inactive)
REMARK    1  A    between atoms: C_5  and  O_19
REMARK    2  A    between atoms: C_7  and  O_21
REMARK    3  A    between atoms: C_9  and  O_23
REMARK    4  A    between atoms: O_23  and  C_25
REMARK    5  A    between atoms: C_25  and  C_26
REMARK                            x       y       z     vdW  Elec       q    Type
REMARK                         _______ _______ _______ _____ _____    ______ ____
ROOT
ATOM      1  O   UNL     1     -35.335  20.105  -0.752  0.00  0.00    -0.334 OA
ATOM      2  O   UNL     1     -35.398  20.701   3.704  0.00  0.00    -0.444 OA
ATOM      3  O   UNL     1     -35.545  22.632   4.933  0.00  0.00    -0.245 OA
ATOM      4  C   UNL     1     -36.681  19.729  -1.078  0.00  0.00    +0.124 C 
ATOM      5  C   UNL     1     -36.622  18.215  -1.349  0.00  0.00    +0.141 C 
ATOM      6  C   UNL     1     -37.611  20.022   0.125  0.00  0.00    +0.074 C 
ATOM      7  C   UNL     1     -34.534  18.947  -0.483  0.00  0.00    +0.202 C 
ATOM      8  C   UNL     1     -35.500  17.760  -0.423  0.00  0.00    +0.092 C 
ATOM      9  C   UNL     1     -37.377  21.327   0.919  0.00  0.00    +0.180 C 
ATOM     10  C   UNL     1     -35.962  21.515   1.528  0.00  0.00    +0.113 C 
ATOM     11  C   UNL     1     -35.457  20.298   2.311  0.00  0.00    +0.198 C 
ATOM     12  C   UNL     1     -37.107  20.562  -2.287  0.00  0.00    +0.032 C 
ATOM     13  C   UNL     1     -33.709  19.140   0.788  0.00  0.00    +0.006 C 
ATOM     14  C   UNL     1     -34.100  19.759   1.925  0.00  0.00    +0.013 C 
ATOM     15  C   UNL     1     -35.895  22.601   2.551  0.00  0.00    +0.060 C 
ATOM     16  C   UNL     1     -32.316  18.547   0.754  0.00  0.00    +0.031 C 
ATOM     17  C   UNL     1     -35.598  22.035   3.873  0.00  0.00    +0.338 C 
ATOM     18  C   UNL     1     -36.051  23.914   2.365  0.00  0.00    +0.002 C 
ENDROOT
BRANCH   5  19
ATOM     19  O   UNL     1     -36.250  17.948  -2.698  0.00  0.00    -0.382 OA
ATOM     20  H   UNL     1     -36.951  18.254  -3.293  0.00  0.00    +0.210 HD
ENDBRANCH   5  19
BRANCH   7  21
ATOM     21  O   UNL     1     -33.639  18.784  -1.594  0.00  0.00    -0.361 OA
ATOM     22  H   UNL     1     -33.001  19.515  -1.605  0.00  0.00    +0.213 HD
ENDBRANCH   7  21
BRANCH   9  23
ATOM     23  O   UNL     1     -38.365  21.350   1.960  0.00  0.00    -0.449 OA
BRANCH  23  25
ATOM     24  O   UNL     1     -40.558  21.004   1.351  0.00  0.00    -0.245 OA
ATOM     25  C   UNL     1     -39.610  21.742   1.577  0.00  0.00    +0.337 C 
BRANCH  25  26
ATOM     26  C   UNL     1     -39.650  23.227   1.473  0.00  0.00    +0.054 C 
ATOM     27  C   UNL     1     -39.636  23.892   0.131  0.00  0.00    +0.038 C 
ATOM     28  C   UNL     1     -39.698  23.923   2.618  0.00  0.00    +0.002 C 
ENDBRANCH  25  26
ENDBRANCH  23  25
ENDBRANCH   9  23
TORSDOF 5
ENDMDL
MODEL 5
REMARK VINA RESULT:      -5.8      2.558      6.853
REMARK  Name = 5281512
REMARK  5 active torsions:
REMARK  status: ('A' for Active; 'I' for Inactive)
REMARK    1  A    between atoms: C_5  and  O_19
REMARK    2  A    between atoms: C_7  and  O_21
REMARK    3  A    between atoms: C_9  and  O_23
REMARK    4  A    between atoms: O_23  and  C_25
REMARK    5  A    between atoms: C_25  and  C_26
REMARK                            x       y       z     vdW  Elec       q    Type
REMARK                         _______ _______ _______ _____ _____    ______ ____
ROOT
ATOM      1  O   UNL     1     -35.021  25.684   2.978  0.00  0.00    -0.334 OA
ATOM      2  O   UNL     1     -36.079  23.841  -0.984  0.00  0.00    -0.444 OA
ATOM      3  O   UNL     1     -34.812  22.559  -2.401  0.00  0.00    -0.245 OA
ATOM      4  C   UNL     1     -35.579  24.784   3.947  0.00  0.00    +0.124 C 
ATOM      5  C   UNL     1     -36.832  25.498   4.484  0.00  0.00    +0.141 C 
ATOM      6  C   UNL     1     -35.972  23.454   3.259  0.00  0.00    +0.074 C 
ATOM      7  C   UNL     1     -35.961  26.711   2.636  0.00  0.00    +0.202 C 
ATOM      8  C   UNL     1     -37.292  26.305   3.276  0.00  0.00    +0.092 C 
ATOM      9  C   UNL     1     -35.020  22.887   2.183  0.00  0.00    +0.180 C 
ATOM     10  C   UNL     1     -34.714  23.816   0.978  0.00  0.00    +0.113 C 
ATOM     11  C   UNL     1     -35.964  24.431   0.337  0.00  0.00    +0.198 C 
ATOM     12  C   UNL     1     -34.505  24.531   5.006  0.00  0.00    +0.032 C 
ATOM     13  C   UNL     1     -36.033  26.900   1.122  0.00  0.00    +0.006 C 
ATOM     14  C   UNL     1     -35.975  25.932   0.178  0.00  0.00    +0.013 C 
ATOM     15  C   UNL     1     -34.082  23.108  -0.174  0.00  0.00    +0.060 C 
ATOM     16  C   UNL     1     -36.209  28.329   0.654  0.00  0.00    +0.031 C 
ATOM     17  C   UNL     1     -34.988  23.110  -1.330  0.00  0.00    +0.338 C 
ATOM     18  C   UNL     1     -32.871  22.547  -0.228  0.00  0.00    +0.002 C 
ENDROOT
BRANCH   5  19
ATOM     19  O   UNL     1     -36.502  26.391   5.543  0.00  0.00    -0.382 OA
ATOM     20  H   UNL     1     -36.133  27.208   5.173  0.00  0.00    +0.210 HD
ENDBRANCH   5  19
BRANCH   7  21
ATOM     21  O   UNL     1     -35.491  27.929   3.232  0.00  0.00    -0.361 OA
ATOM     22  H   UNL     1     -35.942  28.069   4.079  0.00  0.00    +0.213 HD
ENDBRANCH   7  21
BRANCH   9  23
ATOM     23  O   UNL     1     -35.614  21.665   1.721  0.00  0.00    -0.449 OA
BRANCH  23  25
ATOM     24  O   UNL     1     -35.149  20.278   3.499  0.00  0.00    -0.245 OA
ATOM     25  C   UNL     1     -35.144  20.529   2.302  0.00  0.00    +0.337 C 
BRANCH  25  26
ATOM     26  C   UNL     1     -34.615  19.618   1.249  0.00  0.00    +0.054 C 
ATOM     27  C   UNL     1     -33.302  18.922   1.441  0.00  0.00    +0.038 C 
ATOM     28  C   UNL     1     -35.358  19.456   0.145  0.00  0.00    +0.002 C 
ENDBRANCH  25  26
ENDBRANCH  23  25
ENDBRANCH   9  23
TORSDOF 5
ENDMDL
MODEL 6
REMARK VINA RESULT:      -5.8      2.614      6.339
REMARK  Name = 5281512
REMARK  5 active torsions:
REMARK  status: ('A' for Active; 'I' for Inactive)
REMARK    1  A    between atoms: C_5  and  O_19
REMARK    2  A    between atoms: C_7  and  O_21
REMARK    3  A    between atoms: C_9  and  O_23
REMARK    4  A    between atoms: O_23  and  C_25
REMARK    5  A    between atoms: C_25  and  C_26
REMARK                            x       y       z     vdW  Elec       q    Type
REMARK                         _______ _______ _______ _____ _____    ______ ____
ROOT
ATOM      1  O   UNL     1     -36.761  24.286   3.623  0.00  0.00    -0.334 OA
ATOM      2  O   UNL     1     -35.276  20.467   1.773  0.00  0.00    -0.444 OA
ATOM      3  O   UNL     1     -36.390  18.904   0.518  0.00  0.00    -0.245 OA
ATOM      4  C   UNL     1     -36.336  25.310   2.711  0.00  0.00    +0.124 C 
ATOM      5  C   UNL     1     -35.142  25.993   3.401  0.00  0.00    +0.141 C 
ATOM      6  C   UNL     1     -35.888  24.666   1.376  0.00  0.00    +0.074 C 
ATOM      7  C   UNL     1     -35.770  24.062   4.634  0.00  0.00    +0.202 C 
ATOM      8  C   UNL     1     -34.530  24.852   4.203  0.00  0.00    +0.092 C 
ATOM      9  C   UNL     1     -36.717  23.483   0.829  0.00  0.00    +0.180 C 
ATOM     10  C   UNL     1     -36.863  22.255   1.767  0.00  0.00    +0.113 C 
ATOM     11  C   UNL     1     -35.536  21.768   2.361  0.00  0.00    +0.198 C 
ATOM     12  C   UNL     1     -37.531  26.234   2.474  0.00  0.00    +0.032 C 
ATOM     13  C   UNL     1     -35.517  22.568   4.826  0.00  0.00    +0.006 C 
ATOM     14  C   UNL     1     -35.480  21.619   3.862  0.00  0.00    +0.013 C 
ATOM     15  C   UNL     1     -37.367  21.033   1.073  0.00  0.00    +0.060 C 
ATOM     16  C   UNL     1     -35.262  22.131   6.253  0.00  0.00    +0.031 C 
ATOM     17  C   UNL     1     -36.332  19.991   1.062  0.00  0.00    +0.338 C 
ATOM     18  C   UNL     1     -38.573  20.835   0.534  0.00  0.00    +0.002 C 
ENDROOT
BRANCH   5  19
ATOM     19  O   UNL     1     -35.580  27.011   4.297  0.00  0.00    -0.382 OA
ATOM     20  H   UNL     1     -35.733  26.625   5.173  0.00  0.00    +0.210 HD
ENDBRANCH   5  19
BRANCH   7  21
ATOM     21  O   UNL     1     -36.284  24.604   5.859  0.00  0.00    -0.361 OA
ATOM     22  H   UNL     1     -37.254  24.571   5.845  0.00  0.00    +0.213 HD
ENDBRANCH   7  21
BRANCH   9  23
ATOM     23  O   UNL     1     -36.094  23.087  -0.402  0.00  0.00    -0.449 OA
BRANCH  23  25
ATOM     24  O   UNL     1     -37.269  24.501  -1.788  0.00  0.00    -0.245 OA
ATOM     25  C   UNL     1     -36.774  23.413  -1.534  0.00  0.00    +0.337 C 
BRANCH  25  26
ATOM     26  C   UNL     1     -36.829  22.228  -2.435  0.00  0.00    +0.054 C 
ATOM     27  C   UNL     1     -35.732  21.208  -2.412  0.00  0.00    +0.038 C 
ATOM     28  C   UNL     1     -37.888  22.124  -3.251  0.00  0.00    +0.002 C 
ENDBRANCH  25  26
ENDBRANCH  23  25
ENDBRANCH   9  23
TORSDOF 5
ENDMDL
MODEL 7
REMARK VINA RESULT:      -5.7      1.892      4.300
REMARK  Name = 5281512
REMARK  5 active torsions:
REMARK  status: ('A' for Active; 'I' for Inactive)
REMARK    1  A    between atoms: C_5  and  O_19
REMARK    2  A    between atoms: C_7  and  O_21
REMARK    3  A    between atoms: C_9  and  O_23
REMARK    4  A    between atoms: O_23  and  C_25
REMARK    5  A    between atoms: C_25  and  C_26
REMARK                            x       y       z     vdW  Elec       q    Type
REMARK                         _______ _______ _______ _____ _____    ______ ____
ROOT
ATOM      1  O   UNL     1     -36.627  26.002   4.082  0.00  0.00    -0.334 OA
ATOM      2  O   UNL     1     -35.716  28.334   0.347  0.00  0.00    -0.444 OA
ATOM      3  O   UNL     1     -35.130  30.535   0.087  0.00  0.00    -0.245 OA
ATOM      4  C   UNL     1     -35.412  25.291   4.360  0.00  0.00    +0.124 C 
ATOM      5  C   UNL     1     -35.696  23.835   3.949  0.00  0.00    +0.141 C 
ATOM      6  C   UNL     1     -34.259  25.874   3.508  0.00  0.00    +0.074 C 
ATOM      7  C   UNL     1     -37.499  25.219   3.258  0.00  0.00    +0.202 C 
ATOM      8  C   UNL     1     -36.683  24.005   2.801  0.00  0.00    +0.092 C 
ATOM      9  C   UNL     1     -34.195  27.407   3.329  0.00  0.00    +0.180 C 
ATOM     10  C   UNL     1     -35.449  28.078   2.709  0.00  0.00    +0.113 C 
ATOM     11  C   UNL     1     -35.949  27.396   1.430  0.00  0.00    +0.198 C 
ATOM     12  C   UNL     1     -35.109  25.470   5.848  0.00  0.00    +0.032 C 
ATOM     13  C   UNL     1     -38.061  26.056   2.110  0.00  0.00    +0.006 C 
ATOM     14  C   UNL     1     -37.406  27.002   1.398  0.00  0.00    +0.013 C 
ATOM     15  C   UNL     1     -35.209  29.478   2.249  0.00  0.00    +0.060 C 
ATOM     16  C   UNL     1     -39.498  25.763   1.735  0.00  0.00    +0.031 C 
ATOM     17  C   UNL     1     -35.334  29.561   0.788  0.00  0.00    +0.338 C 
ATOM     18  C   UNL     1     -34.934  30.551   2.994  0.00  0.00    +0.002 C 
ENDROOT
BRANCH   5  19
ATOM     19  O   UNL     1     -36.327  23.116   5.004  0.00  0.00    -0.382 OA
ATOM     20  H   UNL     1     -35.682  22.942   5.707  0.00  0.00    +0.210 HD
ENDBRANCH   5  19
BRANCH   7  21
ATOM     21  O   UNL     1     -38.587  24.784   4.087  0.00  0.00    -0.361 OA
ATOM     22  H   UNL     1     -38.243  24.494   4.946  0.00  0.00    +0.213 HD
ENDBRANCH   7  21
BRANCH   9  23
ATOM     23  O   UNL     1     -33.045  27.672   2.513  0.00  0.00    -0.449 OA
BRANCH  23  25
ATOM     24  O   UNL     1     -31.004  26.708   2.971  0.00  0.00    -0.245 OA
ATOM     25  C   UNL     1     -31.844  27.579   3.145  0.00  0.00    +0.337 C 
BRANCH  25  26
ATOM     26  C   UNL     1     -31.699  28.715   4.098  0.00  0.00    +0.054 C 
ATOM     27  C   UNL     1     -31.879  28.498   5.569  0.00  0.00    +0.038 C 
ATOM     28  C   UNL     1     -31.404  29.918   3.581  0.00  0.00    +0.002 C 
ENDBRANCH  25  26
ENDBRANCH  23  25
ENDBRANCH   9  23
TORSDOF 5
ENDMDL
MODEL 8
REMARK VINA RESULT:      -5.6      2.770      5.500
REMARK  Name = 5281512
REMARK  5 active torsions:
REMARK  status: ('A' for Active; 'I' for Inactive)
REMARK    1  A    between atoms: C_5  and  O_19
REMARK    2  A    between atoms: C_7  and  O_21
REMARK    3  A    between atoms: C_9  and  O_23
REMARK    4  A    between atoms: O_23  and  C_25
REMARK    5  A    between atoms: C_25  and  C_26
REMARK                            x       y       z     vdW  Elec       q    Type
REMARK                         _______ _______ _______ _____ _____    ______ ____
ROOT
ATOM      1  O   UNL     1     -38.098  24.422   0.845  0.00  0.00    -0.334 OA
ATOM      2  O   UNL     1     -36.244  20.636   2.410  0.00  0.00    -0.444 OA
ATOM      3  O   UNL     1     -34.254  19.633   1.868  0.00  0.00    -0.245 OA
ATOM      4  C   UNL     1     -37.797  25.403   1.848  0.00  0.00    +0.124 C 
ATOM      5  C   UNL     1     -39.119  25.627   2.603  0.00  0.00    +0.141 C 
ATOM      6  C   UNL     1     -36.716  24.853   2.809  0.00  0.00    +0.074 C 
ATOM      7  C   UNL     1     -39.359  23.793   1.111  0.00  0.00    +0.202 C 
ATOM      8  C   UNL     1     -39.786  24.260   2.506  0.00  0.00    +0.092 C 
ATOM      9  C   UNL     1     -35.555  24.034   2.202  0.00  0.00    +0.180 C 
ATOM     10  C   UNL     1     -35.957  22.776   1.385  0.00  0.00    +0.113 C 
ATOM     11  C   UNL     1     -36.956  21.863   2.105  0.00  0.00    +0.198 C 
ATOM     12  C   UNL     1     -37.275  26.646   1.126  0.00  0.00    +0.032 C 
ATOM     13  C   UNL     1     -39.250  22.276   0.972  0.00  0.00    +0.006 C 
ATOM     14  C   UNL     1     -38.208  21.497   1.345  0.00  0.00    +0.013 C 
ATOM     15  C   UNL     1     -34.816  21.852   1.118  0.00  0.00    +0.060 C 
ATOM     16  C   UNL     1     -40.458  21.592   0.368  0.00  0.00    +0.031 C 
ATOM     17  C   UNL     1     -35.023  20.575   1.816  0.00  0.00    +0.338 C 
ATOM     18  C   UNL     1     -33.742  22.072   0.357  0.00  0.00    +0.002 C 
ENDROOT
BRANCH   5  19
ATOM     19  O   UNL     1     -39.933  26.591   1.941  0.00  0.00    -0.382 OA
ATOM     20  H   UNL     1     -40.391  27.133   2.601  0.00  0.00    +0.210 HD
ENDBRANCH   5  19
BRANCH   7  21
ATOM     21  O   UNL     1     -40.289  24.281   0.133  0.00  0.00    -0.361 OA
ATOM     22  H   UNL     1     -40.767  25.044   0.495  0.00  0.00    +0.213 HD
ENDBRANCH   7  21
BRANCH   9  23
ATOM     23  O   UNL     1     -34.709  23.656   3.297  0.00  0.00    -0.449 OA
BRANCH  23  25
ATOM     24  O   UNL     1     -33.250  25.431   3.446  0.00  0.00    -0.245 OA
ATOM     25  C   UNL     1     -34.083  24.682   3.935  0.00  0.00    +0.337 C 
BRANCH  25  26
ATOM     26  C   UNL     1     -34.569  24.760   5.341  0.00  0.00    +0.054 C 
ATOM     27  C   UNL     1     -35.230  23.577   5.980  0.00  0.00    +0.038 C 
ATOM     28  C   UNL     1     -34.388  25.919   5.991  0.00  0.00    +0.002 C 
ENDBRANCH  25  26
ENDBRANCH  23  25
ENDBRANCH   9  23
TORSDOF 5
ENDMDL
MODEL 9
REMARK VINA RESULT:      -5.6      1.851      3.934
REMARK  Name = 5281512
REMARK  5 active torsions:
REMARK  status: ('A' for Active; 'I' for Inactive)
REMARK    1  A    between atoms: C_5  and  O_19
REMARK    2  A    between atoms: C_7  and  O_21
REMARK    3  A    between atoms: C_9  and  O_23
REMARK    4  A    between atoms: O_23  and  C_25
REMARK    5  A    between atoms: C_25  and  C_26
REMARK                            x       y       z     vdW  Elec       q    Type
REMARK                         _______ _______ _______ _____ _____    ______ ____
ROOT
ATOM      1  O   UNL     1     -36.072  24.299   3.660  0.00  0.00    -0.334 OA
ATOM      2  O   UNL     1     -33.009  25.269   0.515  0.00  0.00    -0.444 OA
ATOM      3  O   UNL     1     -32.627  27.224  -0.621  0.00  0.00    -0.245 OA
ATOM      4  C   UNL     1     -35.353  24.404   4.898  0.00  0.00    +0.124 C 
ATOM      5  C   UNL     1     -35.119  22.953   5.352  0.00  0.00    +0.141 C 
ATOM      6  C   UNL     1     -34.000  25.116   4.658  0.00  0.00    +0.074 C 
ATOM      7  C   UNL     1     -36.019  22.959   3.153  0.00  0.00    +0.202 C 
ATOM      8  C   UNL     1     -35.009  22.208   4.026  0.00  0.00    +0.092 C 
ATOM      9  C   UNL     1     -33.976  26.315   3.683  0.00  0.00    +0.180 C 
ATOM     10  C   UNL     1     -34.475  26.036   2.240  0.00  0.00    +0.113 C 
ATOM     11  C   UNL     1     -33.850  24.792   1.597  0.00  0.00    +0.198 C 
ATOM     12  C   UNL     1     -36.216  25.224   5.858  0.00  0.00    +0.032 C 
ATOM     13  C   UNL     1     -35.676  22.954   1.665  0.00  0.00    +0.006 C 
ATOM     14  C   UNL     1     -34.805  23.771   1.028  0.00  0.00    +0.013 C 
ATOM     15  C   UNL     1     -34.116  27.110   1.268  0.00  0.00    +0.060 C 
ATOM     16  C   UNL     1     -36.384  21.901   0.839  0.00  0.00    +0.031 C 
ATOM     17  C   UNL     1     -33.173  26.594   0.267  0.00  0.00    +0.338 C 
ATOM     18  C   UNL     1     -34.557  28.370   1.237  0.00  0.00    +0.002 C 
ENDROOT
BRANCH   5  19
ATOM     19  O   UNL     1     -36.239  22.452   6.075  0.00  0.00    -0.382 OA
ATOM     20  H   UNL     1     -36.993  22.351   5.474  0.00  0.00    +0.210 HD
ENDBRANCH   5  19
BRANCH   7  21
ATOM     21  O   UNL     1     -37.325  22.389   3.328  0.00  0.00    -0.361 OA
ATOM     22  H   UNL     1     -37.856  22.547   2.532  0.00  0.00    +0.213 HD
ENDBRANCH   7  21
BRANCH   9  23
ATOM     23  O   UNL     1     -32.620  26.782   3.650  0.00  0.00    -0.449 OA
BRANCH  23  25
ATOM     24  O   UNL     1     -32.574  28.042   5.576  0.00  0.00    -0.245 OA
ATOM     25  C   UNL     1     -32.368  27.902   4.379  0.00  0.00    +0.337 C 
BRANCH  25  26
ATOM     26  C   UNL     1     -31.795  28.951   3.492  0.00  0.00    +0.054 C 
ATOM     27  C   UNL     1     -30.753  28.597   2.475  0.00  0.00    +0.038 C 
ATOM     28  C   UNL     1     -32.249  30.204   3.646  0.00  0.00    +0.002 C 
ENDBRANCH  25  26
ENDBRANCH  23  25
ENDBRANCH   9  23
TORSDOF 5
ENDMDL
