MODEL 1
REMARK VINA RESULT:      -6.8      0.000      0.000
REMARK  Name = 54681908
REMARK  9 active torsions:
REMARK  status: ('A' for Active; 'I' for Inactive)
REMARK    1  A    between atoms: C_4  and  O_30
REMARK    2  A    between atoms: C_7  and  N_26
REMARK    3  A    between atoms: C_11  and  O_32
REMARK    4  A    between atoms: C_14  and  O_34
REMARK    5  A    between atoms: C_15  and  C_23
REMARK    6  A    between atoms: C_17  and  C_38
REMARK    7  A    between atoms: C_18  and  O_36
REMARK    8  A    between atoms: C_38  and  N_39
REMARK    9  A    between atoms: N_39  and  O_41
REMARK                            x       y       z     vdW  Elec       q    Type
REMARK                         _______ _______ _______ _____ _____    ______ ____
ROOT
ATOM      1  O   UNL     1     -35.020  24.405   5.133  0.00  0.00    -0.288 OA
ATOM      2  O   UNL     1     -37.963  27.701   0.307  0.00  0.00    -0.293 OA
ATOM      3  C   UNL     1     -35.109  26.457   2.157  0.00  0.00    +0.031 C 
ATOM      4  C   UNL     1     -35.828  25.967   3.439  0.00  0.00    +0.192 C 
ATOM      5  C   UNL     1     -34.857  25.321   1.127  0.00  0.00    +0.028 C 
ATOM      6  C   UNL     1     -34.096  24.154   1.769  0.00  0.00    -0.016 C 
ATOM      7  C   UNL     1     -35.883  27.600   1.481  0.00  0.00    +0.009 C 
ATOM      8  C   UNL     1     -34.930  23.630   2.898  0.00  0.00    +0.067 C 
ATOM      9  C   UNL     1     -35.220  24.648   3.946  0.00  0.00    +0.206 C 
ATOM     10  C   UNL     1     -33.676  23.081   0.749  0.00  0.00    -0.004 C 
ATOM     11  C   UNL     1     -37.325  25.790   3.261  0.00  0.00    +0.149 C 
ATOM     12  C   UNL     1     -37.336  27.225   1.256  0.00  0.00    +0.161 C 
ATOM     13  C   UNL     1     -34.537  21.844   0.713  0.00  0.00    +0.003 C 
ATOM     14  C   UNL     1     -35.498  22.413   2.946  0.00  0.00    +0.139 C 
ATOM     15  C   UNL     1     -38.023  26.319   2.234  0.00  0.00    +0.118 C 
ATOM     16  C   UNL     1     -35.370  21.500   1.794  0.00  0.00    +0.067 C 
ATOM     17  C   UNL     1     -34.433  20.982  -0.391  0.00  0.00    -0.004 C 
ATOM     18  C   UNL     1     -36.092  20.295   1.734  0.00  0.00    +0.136 C 
ATOM     19  C   UNL     1     -35.160  19.795  -0.436  0.00  0.00    +0.000 C 
ATOM     20  C   UNL     1     -35.987  19.452   0.627  0.00  0.00    +0.036 C 
ENDROOT
BRANCH  15  23
ATOM     21  O   UNL     1     -40.290  26.469   2.862  0.00  0.00    -0.270 OA
ATOM     22  N   UNL     1     -39.739  25.283   0.959  0.00  0.00    -0.325 N 
ATOM     23  C   UNL     1     -39.461  26.043   2.066  0.00  0.00    +0.248 C 
ATOM     24  H   UNL     1     -40.669  25.038   0.750  0.00  0.00    +0.145 HD
ATOM     25  H   UNL     1     -39.008  24.982   0.371  0.00  0.00    +0.145 HD
ENDBRANCH  15  23
BRANCH   7  26
ATOM     26  N   UNL     1     -35.891  28.845   2.248  0.00  0.00    +0.390 N 
ATOM     27  C   UNL     1     -36.395  29.944   1.427  0.00  0.00    -0.100 C 
ATOM     28  C   UNL     1     -34.549  29.146   2.741  0.00  0.00    -0.100 C 
ATOM     29  H   UNL     1     -36.511  28.730   3.049  0.00  0.00    -0.079 HD
ENDBRANCH   7  26
BRANCH   4  30
ATOM     30  O   UNL     1     -35.647  26.914   4.493  0.00  0.00    -0.373 OA
ATOM     31  H   UNL     1     -35.109  27.655   4.172  0.00  0.00    +0.211 HD
ENDBRANCH   4  30
BRANCH  11  32
ATOM     32  O   UNL     1     -37.902  25.041   4.275  0.00  0.00    -0.507 OA
ATOM     33  H   UNL     1     -38.780  24.728   4.183  0.00  0.00    +0.292 HD
ENDBRANCH  11  32
BRANCH  14  34
ATOM     34  O   UNL     1     -36.295  21.966   3.979  0.00  0.00    -0.505 OA
ATOM     35  H   UNL     1     -36.283  21.061   4.222  0.00  0.00    +0.292 HD
ENDBRANCH  14  34
BRANCH  18  36
ATOM     36  O   UNL     1     -36.903  19.873   2.750  0.00  0.00    -0.505 OA
ATOM     37  H   UNL     1     -37.647  20.385   2.999  0.00  0.00    +0.292 HD
ENDBRANCH  18  36
BRANCH  17  38
ATOM     38  C   UNL     1     -33.558  21.308  -1.561  0.00  0.00    +0.127 C 
BRANCH  38  39
ATOM     39  N   UNL     1     -32.461  20.354  -1.715  0.00  0.00    -0.160 NA
ATOM     40  C   UNL     1     -31.759  20.570  -2.977  0.00  0.00    +0.121 C 
BRANCH  39  41
ATOM     41  O   UNL     1     -31.498  20.733  -0.687  0.00  0.00    -0.279 OA
ATOM     42  C   UNL     1     -31.055  19.542  -0.049  0.00  0.00    +0.201 C 
ENDBRANCH  39  41
ENDBRANCH  38  39
ENDBRANCH  17  38
TORSDOF 9
ENDMDL
MODEL 2
REMARK VINA RESULT:      -6.7      3.247      7.618
REMARK  Name = 54681908
REMARK  9 active torsions:
REMARK  status: ('A' for Active; 'I' for Inactive)
REMARK    1  A    between atoms: C_4  and  O_30
REMARK    2  A    between atoms: C_7  and  N_26
REMARK    3  A    between atoms: C_11  and  O_32
REMARK    4  A    between atoms: C_14  and  O_34
REMARK    5  A    between atoms: C_15  and  C_23
REMARK    6  A    between atoms: C_17  and  C_38
REMARK    7  A    between atoms: C_18  and  O_36
REMARK    8  A    between atoms: C_38  and  N_39
REMARK    9  A    between atoms: N_39  and  O_41
REMARK                            x       y       z     vdW  Elec       q    Type
REMARK                         _______ _______ _______ _____ _____    ______ ____
ROOT
ATOM      1  O   UNL     1     -37.004  19.805   0.219  0.00  0.00    -0.288 OA
ATOM      2  O   UNL     1     -30.609  20.490  -0.983  0.00  0.00    -0.293 OA
ATOM      3  C   UNL     1     -34.091  21.473  -1.127  0.00  0.00    +0.031 C 
ATOM      4  C   UNL     1     -34.750  20.152  -0.654  0.00  0.00    +0.192 C 
ATOM      5  C   UNL     1     -33.911  22.509   0.017  0.00  0.00    +0.028 C 
ATOM      6  C   UNL     1     -35.244  22.785   0.724  0.00  0.00    -0.016 C 
ATOM      7  C   UNL     1     -32.734  21.213  -1.802  0.00  0.00    +0.009 C 
ATOM      8  C   UNL     1     -35.736  21.490   1.294  0.00  0.00    +0.067 C 
ATOM      9  C   UNL     1     -35.948  20.431   0.269  0.00  0.00    +0.206 C 
ATOM     10  C   UNL     1     -35.149  23.927   1.751  0.00  0.00    -0.004 C 
ATOM     11  C   UNL     1     -33.785  19.215   0.049  0.00  0.00    +0.149 C 
ATOM     12  C   UNL     1     -31.833  20.367  -0.922  0.00  0.00    +0.161 C 
ATOM     13  C   UNL     1     -35.048  23.499   3.194  0.00  0.00    +0.003 C 
ATOM     14  C   UNL     1     -35.863  21.215   2.604  0.00  0.00    +0.139 C 
ATOM     15  C   UNL     1     -32.443  19.333  -0.023  0.00  0.00    +0.118 C 
ATOM     16  C   UNL     1     -35.442  22.213   3.606  0.00  0.00    +0.067 C 
ATOM     17  C   UNL     1     -34.628  24.441   4.147  0.00  0.00    -0.004 C 
ATOM     18  C   UNL     1     -35.394  21.898   4.974  0.00  0.00    +0.136 C 
ATOM     19  C   UNL     1     -34.582  24.110   5.499  0.00  0.00    +0.000 C 
ATOM     20  C   UNL     1     -34.966  22.840   5.912  0.00  0.00    +0.036 C 
ENDROOT
BRANCH  15  23
ATOM     21  O   UNL     1     -31.923  17.936   1.803  0.00  0.00    -0.270 OA
ATOM     22  N   UNL     1     -30.325  18.272   0.171  0.00  0.00    -0.325 N 
ATOM     23  C   UNL     1     -31.556  18.445   0.751  0.00  0.00    +0.248 C 
ATOM     24  H   UNL     1     -29.653  17.698   0.604  0.00  0.00    +0.145 HD
ATOM     25  H   UNL     1     -30.114  18.721  -0.679  0.00  0.00    +0.145 HD
ENDBRANCH  15  23
BRANCH   7  26
ATOM     26  N   UNL     1     -32.834  20.517  -3.084  0.00  0.00    +0.390 N 
ATOM     27  C   UNL     1     -31.502  20.222  -3.607  0.00  0.00    -0.100 C 
ATOM     28  C   UNL     1     -33.596  21.318  -4.039  0.00  0.00    -0.100 C 
ATOM     29  H   UNL     1     -33.325  19.635  -2.938  0.00  0.00    -0.079 HD
ENDBRANCH   7  26
BRANCH   4  30
ATOM     30  O   UNL     1     -35.274  19.440  -1.775  0.00  0.00    -0.373 OA
ATOM     31  H   UNL     1     -35.453  20.061  -2.499  0.00  0.00    +0.211 HD
ENDBRANCH   4  30
BRANCH  11  32
ATOM     32  O   UNL     1     -34.430  18.215   0.761  0.00  0.00    -0.507 OA
ATOM     33  H   UNL     1     -34.942  17.574   0.308  0.00  0.00    +0.292 HD
ENDBRANCH  11  32
BRANCH  14  34
ATOM     34  O   UNL     1     -36.281  20.001   3.107  0.00  0.00    -0.505 OA
ATOM     35  H   UNL     1     -35.663  19.308   3.233  0.00  0.00    +0.292 HD
ENDBRANCH  14  34
BRANCH  18  36
ATOM     36  O   UNL     1     -35.783  20.683   5.463  0.00  0.00    -0.505 OA
ATOM     37  H   UNL     1     -35.271  20.258   6.123  0.00  0.00    +0.292 HD
ENDBRANCH  18  36
BRANCH  17  38
ATOM     38  C   UNL     1     -34.202  25.821   3.754  0.00  0.00    +0.127 C 
BRANCH  38  39
ATOM     39  N   UNL     1     -32.749  25.947   3.658  0.00  0.00    -0.160 NA
ATOM     40  C   UNL     1     -32.359  26.488   2.360  0.00  0.00    +0.121 C 
BRANCH  39  41
ATOM     41  O   UNL     1     -32.407  26.995   4.613  0.00  0.00    -0.279 OA
ATOM     42  C   UNL     1     -32.368  28.228   3.907  0.00  0.00    +0.201 C 
ENDBRANCH  39  41
ENDBRANCH  38  39
ENDBRANCH  17  38
TORSDOF 9
ENDMDL
MODEL 3
REMARK VINA RESULT:      -6.3      3.158      7.322
REMARK  Name = 54681908
REMARK  9 active torsions:
REMARK  status: ('A' for Active; 'I' for Inactive)
REMARK    1  A    between atoms: C_4  and  O_30
REMARK    2  A    between atoms: C_7  and  N_26
REMARK    3  A    between atoms: C_11  and  O_32
REMARK    4  A    between atoms: C_14  and  O_34
REMARK    5  A    between atoms: C_15  and  C_23
REMARK    6  A    between atoms: C_17  and  C_38
REMARK    7  A    between atoms: C_18  and  O_36
REMARK    8  A    between atoms: C_38  and  N_39
REMARK    9  A    between atoms: N_39  and  O_41
REMARK                            x       y       z     vdW  Elec       q    Type
REMARK                         _______ _______ _______ _____ _____    ______ ____
ROOT
ATOM      1  O   UNL     1     -37.402  20.237   0.270  0.00  0.00    -0.288 OA
ATOM      2  O   UNL     1     -31.306  21.671  -1.625  0.00  0.00    -0.293 OA
ATOM      3  C   UNL     1     -34.843  22.322  -1.209  0.00  0.00    +0.031 C 
ATOM      4  C   UNL     1     -35.323  20.899  -0.827  0.00  0.00    +0.192 C 
ATOM      5  C   UNL     1     -34.594  23.233   0.025  0.00  0.00    +0.028 C 
ATOM      6  C   UNL     1     -35.837  23.297   0.923  0.00  0.00    -0.016 C 
ATOM      7  C   UNL     1     -33.574  22.274  -2.075  0.00  0.00    +0.009 C 
ATOM      8  C   UNL     1     -36.141  21.903   1.382  0.00  0.00    +0.067 C 
ATOM      9  C   UNL     1     -36.403  20.952   0.266  0.00  0.00    +0.206 C 
ATOM     10  C   UNL     1     -35.697  24.318   2.065  0.00  0.00    -0.004 C 
ATOM     11  C   UNL     1     -34.199  19.985  -0.373  0.00  0.00    +0.149 C 
ATOM     12  C   UNL     1     -32.497  21.424  -1.428  0.00  0.00    +0.161 C 
ATOM     13  C   UNL     1     -35.366  23.740   3.418  0.00  0.00    +0.003 C 
ATOM     14  C   UNL     1     -36.066  21.469   2.652  0.00  0.00    +0.139 C 
ATOM     15  C   UNL     1     -32.893  20.240  -0.597  0.00  0.00    +0.118 C 
ATOM     16  C   UNL     1     -35.596  22.383   3.711  0.00  0.00    +0.067 C 
ATOM     17  C   UNL     1     -34.899  24.603   4.423  0.00  0.00    -0.004 C 
ATOM     18  C   UNL     1     -35.337  21.920   5.012  0.00  0.00    +0.136 C 
ATOM     19  C   UNL     1     -34.643  24.126   5.706  0.00  0.00    +0.000 C 
ATOM     20  C   UNL     1     -34.864  22.786   6.000  0.00  0.00    +0.036 C 
ENDROOT
BRANCH  15  23
ATOM     21  O   UNL     1     -31.821  19.038   1.125  0.00  0.00    -0.270 OA
ATOM     22  N   UNL     1     -30.928  18.967  -1.003  0.00  0.00    -0.325 N 
ATOM     23  C   UNL     1     -31.840  19.360  -0.058  0.00  0.00    +0.248 C 
ATOM     24  H   UNL     1     -30.180  18.378  -0.752  0.00  0.00    +0.145 HD
ATOM     25  H   UNL     1     -31.019  19.275  -1.934  0.00  0.00    +0.145 HD
ENDBRANCH  15  23
BRANCH   7  26
ATOM     26  N   UNL     1     -33.790  21.722  -3.411  0.00  0.00    +0.390 N 
ATOM     27  C   UNL     1     -32.521  21.612  -4.128  0.00  0.00    -0.100 C 
ATOM     28  C   UNL     1     -34.732  22.553  -4.159  0.00  0.00    -0.100 C 
ATOM     29  H   UNL     1     -34.189  20.787  -3.317  0.00  0.00    -0.079 HD
ENDBRANCH   7  26
BRANCH   4  30
ATOM     30  O   UNL     1     -35.935  20.271  -1.954  0.00  0.00    -0.373 OA
ATOM     31  H   UNL     1     -35.686  19.333  -1.976  0.00  0.00    +0.211 HD
ENDBRANCH   4  30
BRANCH  11  32
ATOM     32  O   UNL     1     -34.658  18.852   0.282  0.00  0.00    -0.507 OA
ATOM     33  H   UNL     1     -34.192  18.044   0.200  0.00  0.00    +0.292 HD
ENDBRANCH  11  32
BRANCH  14  34
ATOM     34  O   UNL     1     -36.312  20.172   3.047  0.00  0.00    -0.505 OA
ATOM     35  H   UNL     1     -35.827  19.798   3.756  0.00  0.00    +0.292 HD
ENDBRANCH  14  34
BRANCH  18  36
ATOM     36  O   UNL     1     -35.556  20.625   5.389  0.00  0.00    -0.505 OA
ATOM     37  H   UNL     1     -35.569  20.397   6.298  0.00  0.00    +0.292 HD
ENDBRANCH  18  36
BRANCH  17  38
ATOM     38  C   UNL     1     -34.643  26.054   4.156  0.00  0.00    +0.127 C 
BRANCH  38  39
ATOM     39  N   UNL     1     -33.247  26.422   4.380  0.00  0.00    -0.160 NA
ATOM     40  C   UNL     1     -32.620  26.861   3.137  0.00  0.00    +0.121 C 
BRANCH  39  41
ATOM     41  O   UNL     1     -33.311  27.622   5.206  0.00  0.00    -0.279 OA
ATOM     42  C   UNL     1     -32.562  27.375   6.388  0.00  0.00    +0.201 C 
ENDBRANCH  39  41
ENDBRANCH  38  39
ENDBRANCH  17  38
TORSDOF 9
ENDMDL
MODEL 4
REMARK VINA RESULT:      -6.2      2.064      2.605
REMARK  Name = 54681908
REMARK  9 active torsions:
REMARK  status: ('A' for Active; 'I' for Inactive)
REMARK    1  A    between atoms: C_4  and  O_30
REMARK    2  A    between atoms: C_7  and  N_26
REMARK    3  A    between atoms: C_11  and  O_32
REMARK    4  A    between atoms: C_14  and  O_34
REMARK    5  A    between atoms: C_15  and  C_23
REMARK    6  A    between atoms: C_17  and  C_38
REMARK    7  A    between atoms: C_18  and  O_36
REMARK    8  A    between atoms: C_38  and  N_39
REMARK    9  A    between atoms: N_39  and  O_41
REMARK                            x       y       z     vdW  Elec       q    Type
REMARK                         _______ _______ _______ _____ _____    ______ ____
ROOT
ATOM      1  O   UNL     1     -37.193  24.855   4.967  0.00  0.00    -0.288 OA
ATOM      2  O   UNL     1     -34.626  27.777  -0.295  0.00  0.00    -0.293 OA
ATOM      3  C   UNL     1     -34.530  25.702   2.671  0.00  0.00    +0.031 C 
ATOM      4  C   UNL     1     -35.903  26.071   3.287  0.00  0.00    +0.192 C 
ATOM      5  C   UNL     1     -34.568  24.394   1.833  0.00  0.00    +0.028 C 
ATOM      6  C   UNL     1     -35.129  23.228   2.658  0.00  0.00    -0.016 C 
ATOM      7  C   UNL     1     -33.975  26.847   1.809  0.00  0.00    +0.009 C 
ATOM      8  C   UNL     1     -36.520  23.594   3.080  0.00  0.00    +0.067 C 
ATOM      9  C   UNL     1     -36.586  24.836   3.899  0.00  0.00    +0.206 C 
ATOM     10  C   UNL     1     -35.029  21.878   1.928  0.00  0.00    -0.004 C 
ATOM     11  C   UNL     1     -36.851  26.726   2.299  0.00  0.00    +0.149 C 
ATOM     12  C   UNL     1     -34.995  27.310   0.784  0.00  0.00    +0.161 C 
ATOM     13  C   UNL     1     -36.306  21.385   1.293  0.00  0.00    +0.003 C 
ATOM     14  C   UNL     1     -37.643  22.975   2.678  0.00  0.00    +0.139 C 
ATOM     15  C   UNL     1     -36.455  27.253   1.121  0.00  0.00    +0.118 C 
ATOM     16  C   UNL     1     -37.561  21.877   1.695  0.00  0.00    +0.067 C 
ATOM     17  C   UNL     1     -36.231  20.354   0.342  0.00  0.00    -0.004 C 
ATOM     18  C   UNL     1     -38.718  21.325   1.120  0.00  0.00    +0.136 C 
ATOM     19  C   UNL     1     -37.388  19.823  -0.222  0.00  0.00    +0.000 C 
ATOM     20  C   UNL     1     -38.631  20.307   0.168  0.00  0.00    +0.036 C 
ENDROOT
BRANCH  15  23
ATOM     21  O   UNL     1     -38.158  28.743   0.458  0.00  0.00    -0.270 OA
ATOM     22  N   UNL     1     -37.427  27.149  -1.045  0.00  0.00    -0.325 N 
ATOM     23  C   UNL     1     -37.433  27.800   0.162  0.00  0.00    +0.248 C 
ATOM     24  H   UNL     1     -38.042  27.432  -1.760  0.00  0.00    +0.145 HD
ATOM     25  H   UNL     1     -36.809  26.399  -1.197  0.00  0.00    +0.145 HD
ENDBRANCH  15  23
BRANCH   7  26
ATOM     26  N   UNL     1     -33.590  28.032   2.574  0.00  0.00    +0.390 N 
ATOM     27  C   UNL     1     -33.110  29.082   1.678  0.00  0.00    -0.100 C 
ATOM     28  C   UNL     1     -32.567  27.690   3.559  0.00  0.00    -0.100 C 
ATOM     29  H   UNL     1     -34.411  28.381   3.068  0.00  0.00    -0.079 HD
ENDBRANCH   7  26
BRANCH   4  30
ATOM     30  O   UNL     1     -35.725  26.994   4.361  0.00  0.00    -0.373 OA
ATOM     31  H   UNL     1     -35.638  26.507   5.196  0.00  0.00    +0.211 HD
ENDBRANCH   4  30
BRANCH  11  32
ATOM     32  O   UNL     1     -38.165  26.740   2.742  0.00  0.00    -0.507 OA
ATOM     33  H   UNL     1     -38.388  26.339   3.559  0.00  0.00    +0.292 HD
ENDBRANCH  11  32
BRANCH  14  34
ATOM     34  O   UNL     1     -38.916  23.354   3.048  0.00  0.00    -0.505 OA
ATOM     35  H   UNL     1     -39.630  23.242   2.452  0.00  0.00    +0.292 HD
ENDBRANCH  14  34
BRANCH  18  36
ATOM     36  O   UNL     1     -39.977  21.726   1.471  0.00  0.00    -0.505 OA
ATOM     37  H   UNL     1     -40.186  22.639   1.505  0.00  0.00    +0.292 HD
ENDBRANCH  18  36
BRANCH  17  38
ATOM     38  C   UNL     1     -34.917  19.799  -0.112  0.00  0.00    +0.127 C 
BRANCH  38  39
ATOM     39  N   UNL     1     -34.602  18.523   0.528  0.00  0.00    -0.160 NA
ATOM     40  C   UNL     1     -33.888  17.643  -0.392  0.00  0.00    +0.121 C 
BRANCH  39  41
ATOM     41  O   UNL     1     -33.621  18.859   1.554  0.00  0.00    -0.279 OA
ATOM     42  C   UNL     1     -32.454  18.086   1.307  0.00  0.00    +0.201 C 
ENDBRANCH  39  41
ENDBRANCH  38  39
ENDBRANCH  17  38
TORSDOF 9
ENDMDL
MODEL 5
REMARK VINA RESULT:      -6.2      2.296      3.418
REMARK  Name = 54681908
REMARK  9 active torsions:
REMARK  status: ('A' for Active; 'I' for Inactive)
REMARK    1  A    between atoms: C_4  and  O_30
REMARK    2  A    between atoms: C_7  and  N_26
REMARK    3  A    between atoms: C_11  and  O_32
REMARK    4  A    between atoms: C_14  and  O_34
REMARK    5  A    between atoms: C_15  and  C_23
REMARK    6  A    between atoms: C_17  and  C_38
REMARK    7  A    between atoms: C_18  and  O_36
REMARK    8  A    between atoms: C_38  and  N_39
REMARK    9  A    between atoms: N_39  and  O_41
REMARK                            x       y       z     vdW  Elec       q    Type
REMARK                         _______ _______ _______ _____ _____    ______ ____
ROOT
ATOM      1  O   UNL     1     -38.663  24.854   4.119  0.00  0.00    -0.288 OA
ATOM      2  O   UNL     1     -32.857  27.007   2.005  0.00  0.00    -0.293 OA
ATOM      3  C   UNL     1     -35.049  24.967   4.041  0.00  0.00    +0.031 C 
ATOM      4  C   UNL     1     -36.394  25.688   3.771  0.00  0.00    +0.192 C 
ATOM      5  C   UNL     1     -34.832  23.721   3.138  0.00  0.00    +0.028 C 
ATOM      6  C   UNL     1     -36.009  22.744   3.256  0.00  0.00    -0.016 C 
ATOM      7  C   UNL     1     -33.857  25.926   3.887  0.00  0.00    +0.009 C 
ATOM      8  C   UNL     1     -37.248  23.467   2.822  0.00  0.00    +0.067 C 
ATOM      9  C   UNL     1     -37.546  24.678   3.637  0.00  0.00    +0.206 C 
ATOM     10  C   UNL     1     -35.762  21.420   2.512  0.00  0.00    -0.004 C 
ATOM     11  C   UNL     1     -36.366  26.577   2.542  0.00  0.00    +0.149 C 
ATOM     12  C   UNL     1     -33.901  26.650   2.555  0.00  0.00    +0.161 C 
ATOM     13  C   UNL     1     -36.440  21.291   1.171  0.00  0.00    +0.003 C 
ATOM     14  C   UNL     1     -37.979  23.174   1.733  0.00  0.00    +0.139 C 
ATOM     15  C   UNL     1     -35.228  26.985   1.941  0.00  0.00    +0.118 C 
ATOM     16  C   UNL     1     -37.538  22.099   0.823  0.00  0.00    +0.067 C 
ATOM     17  C   UNL     1     -36.009  20.282   0.293  0.00  0.00    -0.004 C 
ATOM     18  C   UNL     1     -38.174  21.881  -0.410  0.00  0.00    +0.136 C 
ATOM     19  C   UNL     1     -36.648  20.083  -0.928  0.00  0.00    +0.000 C 
ATOM     20  C   UNL     1     -37.730  20.881  -1.278  0.00  0.00    +0.036 C 
ENDROOT
BRANCH  15  23
ATOM     21  O   UNL     1     -35.767  28.895   0.669  0.00  0.00    -0.270 OA
ATOM     22  N   UNL     1     -34.686  27.138  -0.368  0.00  0.00    -0.325 N 
ATOM     23  C   UNL     1     -35.262  27.779   0.699  0.00  0.00    +0.248 C 
ATOM     24  H   UNL     1     -34.656  27.577  -1.248  0.00  0.00    +0.145 HD
ATOM     25  H   UNL     1     -34.304  26.238  -0.254  0.00  0.00    +0.145 HD
ENDBRANCH  15  23
BRANCH   7  26
ATOM     26  N   UNL     1     -33.792  26.960   4.918  0.00  0.00    +0.390 N 
ATOM     27  C   UNL     1     -32.663  27.855   4.671  0.00  0.00    -0.100 C 
ATOM     28  C   UNL     1     -33.686  26.352   6.243  0.00  0.00    -0.100 C 
ATOM     29  H   UNL     1     -34.652  27.510   4.883  0.00  0.00    -0.079 HD
ENDBRANCH   7  26
BRANCH   4  30
ATOM     30  O   UNL     1     -36.731  26.524   4.878  0.00  0.00    -0.373 OA
ATOM     31  H   UNL     1     -37.654  26.365   5.135  0.00  0.00    +0.211 HD
ENDBRANCH   4  30
BRANCH  11  32
ATOM     32  O   UNL     1     -37.632  26.941   2.111  0.00  0.00    -0.507 OA
ATOM     33  H   UNL     1     -38.006  27.754   2.389  0.00  0.00    +0.292 HD
ENDBRANCH  11  32
BRANCH  14  34
ATOM     34  O   UNL     1     -39.094  23.878   1.332  0.00  0.00    -0.505 OA
ATOM     35  H   UNL     1     -39.203  24.109   0.430  0.00  0.00    +0.292 HD
ENDBRANCH  14  34
BRANCH  18  36
ATOM     36  O   UNL     1     -39.262  22.603  -0.815  0.00  0.00    -0.505 OA
ATOM     37  H   UNL     1     -39.930  22.194  -1.329  0.00  0.00    +0.292 HD
ENDBRANCH  18  36
BRANCH  17  38
ATOM     38  C   UNL     1     -34.847  19.398   0.623  0.00  0.00    +0.127 C 
BRANCH  38  39
ATOM     39  N   UNL     1     -33.744  19.554  -0.323  0.00  0.00    -0.160 NA
ATOM     40  C   UNL     1     -32.977  20.762  -0.032  0.00  0.00    +0.121 C 
BRANCH  39  41
ATOM     41  O   UNL     1     -32.836  18.455  -0.013  0.00  0.00    -0.279 OA
ATOM     42  C   UNL     1     -32.767  18.336   1.402  0.00  0.00    +0.201 C 
ENDBRANCH  39  41
ENDBRANCH  38  39
ENDBRANCH  17  38
TORSDOF 9
ENDMDL
MODEL 6
REMARK VINA RESULT:      -6.2      2.653      4.368
REMARK  Name = 54681908
REMARK  9 active torsions:
REMARK  status: ('A' for Active; 'I' for Inactive)
REMARK    1  A    between atoms: C_4  and  O_30
REMARK    2  A    between atoms: C_7  and  N_26
REMARK    3  A    between atoms: C_11  and  O_32
REMARK    4  A    between atoms: C_14  and  O_34
REMARK    5  A    between atoms: C_15  and  C_23
REMARK    6  A    between atoms: C_17  and  C_38
REMARK    7  A    between atoms: C_18  and  O_36
REMARK    8  A    between atoms: C_38  and  N_39
REMARK    9  A    between atoms: N_39  and  O_41
REMARK                            x       y       z     vdW  Elec       q    Type
REMARK                         _______ _______ _______ _____ _____    ______ ____
ROOT
ATOM      1  O   UNL     1     -34.248  26.641   5.596  0.00  0.00    -0.288 OA
ATOM      2  O   UNL     1     -33.138  28.413  -0.604  0.00  0.00    -0.293 OA
ATOM      3  C   UNL     1     -32.700  26.352   2.340  0.00  0.00    +0.031 C 
ATOM      4  C   UNL     1     -33.395  27.254   3.391  0.00  0.00    +0.192 C 
ATOM      5  C   UNL     1     -33.630  25.241   1.778  0.00  0.00    +0.028 C 
ATOM      6  C   UNL     1     -34.230  24.399   2.911  0.00  0.00    -0.016 C 
ATOM      7  C   UNL     1     -32.130  27.180   1.178  0.00  0.00    +0.009 C 
ATOM      8  C   UNL     1     -35.021  25.316   3.793  0.00  0.00    +0.067 C 
ATOM      9  C   UNL     1     -34.211  26.415   4.389  0.00  0.00    +0.206 C 
ATOM     10  C   UNL     1     -35.022  23.184   2.397  0.00  0.00    -0.004 C 
ATOM     11  C   UNL     1     -34.295  28.311   2.777  0.00  0.00    +0.149 C 
ATOM     12  C   UNL     1     -33.182  28.099   0.586  0.00  0.00    +0.161 C 
ATOM     13  C   UNL     1     -36.522  23.338   2.395  0.00  0.00    +0.003 C 
ATOM     14  C   UNL     1     -36.354  25.278   3.958  0.00  0.00    +0.139 C 
ATOM     15  C   UNL     1     -34.243  28.673   1.477  0.00  0.00    +0.118 C 
ATOM     16  C   UNL     1     -37.160  24.311   3.187  0.00  0.00    +0.067 C 
ATOM     17  C   UNL     1     -37.291  22.433   1.646  0.00  0.00    -0.004 C 
ATOM     18  C   UNL     1     -38.564  24.357   3.200  0.00  0.00    +0.136 C 
ATOM     19  C   UNL     1     -38.682  22.497   1.666  0.00  0.00    +0.000 C 
ATOM     20  C   UNL     1     -39.318  23.457   2.444  0.00  0.00    +0.036 C 
ENDROOT
BRANCH  15  23
ATOM     21  O   UNL     1     -36.410  29.467   0.994  0.00  0.00    -0.270 OA
ATOM     22  N   UNL     1     -34.591  30.723   0.327  0.00  0.00    -0.325 N 
ATOM     23  C   UNL     1     -35.200  29.645   0.917  0.00  0.00    +0.248 C 
ATOM     24  H   UNL     1     -35.136  31.434  -0.082  0.00  0.00    +0.145 HD
ATOM     25  H   UNL     1     -33.609  30.785   0.310  0.00  0.00    +0.145 HD
ENDBRANCH  15  23
BRANCH   7  26
ATOM     26  N   UNL     1     -31.002  28.031   1.554  0.00  0.00    +0.390 N 
ATOM     27  C   UNL     1     -30.573  28.840   0.415  0.00  0.00    -0.100 C 
ATOM     28  C   UNL     1     -29.895  27.217   2.053  0.00  0.00    -0.100 C 
ATOM     29  H   UNL     1     -31.303  28.659   2.300  0.00  0.00    -0.079 HD
ENDBRANCH   7  26
BRANCH   4  30
ATOM     30  O   UNL     1     -32.416  27.945   4.166  0.00  0.00    -0.373 OA
ATOM     31  H   UNL     1     -32.498  27.684   5.098  0.00  0.00    +0.211 HD
ENDBRANCH   4  30
BRANCH  11  32
ATOM     32  O   UNL     1     -35.164  28.878   3.697  0.00  0.00    -0.507 OA
ATOM     33  H   UNL     1     -36.086  28.876   3.532  0.00  0.00    +0.292 HD
ENDBRANCH  11  32
BRANCH  14  34
ATOM     34  O   UNL     1     -37.067  26.158   4.745  0.00  0.00    -0.505 OA
ATOM     35  H   UNL     1     -37.500  25.851   5.517  0.00  0.00    +0.292 HD
ENDBRANCH  14  34
BRANCH  18  36
ATOM     36  O   UNL     1     -39.264  25.252   3.960  0.00  0.00    -0.505 OA
ATOM     37  H   UNL     1     -40.110  25.023   4.292  0.00  0.00    +0.292 HD
ENDBRANCH  18  36
BRANCH  17  38
ATOM     38  C   UNL     1     -36.655  21.381   0.792  0.00  0.00    +0.127 C 
BRANCH  38  39
ATOM     39  N   UNL     1     -36.792  20.043   1.363  0.00  0.00    -0.160 NA
ATOM     40  C   UNL     1     -36.608  19.019   0.340  0.00  0.00    +0.121 C 
BRANCH  39  41
ATOM     41  O   UNL     1     -35.638  19.899   2.243  0.00  0.00    -0.279 OA
ATOM     42  C   UNL     1     -34.502  19.640   1.428  0.00  0.00    +0.201 C 
ENDBRANCH  39  41
ENDBRANCH  38  39
ENDBRANCH  17  38
TORSDOF 9
ENDMDL
MODEL 7
REMARK VINA RESULT:      -6.0      4.655      9.652
REMARK  Name = 54681908
REMARK  9 active torsions:
REMARK  status: ('A' for Active; 'I' for Inactive)
REMARK    1  A    between atoms: C_4  and  O_30
REMARK    2  A    between atoms: C_7  and  N_26
REMARK    3  A    between atoms: C_11  and  O_32
REMARK    4  A    between atoms: C_14  and  O_34
REMARK    5  A    between atoms: C_15  and  C_23
REMARK    6  A    between atoms: C_17  and  C_38
REMARK    7  A    between atoms: C_18  and  O_36
REMARK    8  A    between atoms: C_38  and  N_39
REMARK    9  A    between atoms: N_39  and  O_41
REMARK                            x       y       z     vdW  Elec       q    Type
REMARK                         _______ _______ _______ _____ _____    ______ ____
ROOT
ATOM      1  O   UNL     1     -41.431  25.792  -1.390  0.00  0.00    -0.288 OA
ATOM      2  O   UNL     1     -38.014  23.553   3.722  0.00  0.00    -0.293 OA
ATOM      3  C   UNL     1     -39.532  26.122   1.670  0.00  0.00    +0.031 C 
ATOM      4  C   UNL     1     -39.860  25.283   0.409  0.00  0.00    +0.192 C 
ATOM      5  C   UNL     1     -40.740  26.268   2.637  0.00  0.00    +0.028 C 
ATOM      6  C   UNL     1     -41.964  26.835   1.906  0.00  0.00    -0.016 C 
ATOM      7  C   UNL     1     -38.331  25.542   2.434  0.00  0.00    +0.009 C 
ATOM      8  C   UNL     1     -42.318  25.884   0.803  0.00  0.00    +0.067 C 
ATOM      9  C   UNL     1     -41.221  25.683  -0.185  0.00  0.00    +0.206 C 
ATOM     10  C   UNL     1     -43.131  27.155   2.856  0.00  0.00    -0.004 C 
ATOM     11  C   UNL     1     -39.846  23.786   0.660  0.00  0.00    +0.149 C 
ATOM     12  C   UNL     1     -38.522  24.064   2.722  0.00  0.00    +0.161 C 
ATOM     13  C   UNL     1     -44.245  26.139   2.886  0.00  0.00    +0.003 C 
ATOM     14  C   UNL     1     -43.446  25.157   0.734  0.00  0.00    +0.139 C 
ATOM     15  C   UNL     1     -39.281  23.216   1.745  0.00  0.00    +0.118 C 
ATOM     16  C   UNL     1     -44.423  25.216   1.839  0.00  0.00    +0.067 C 
ATOM     17  C   UNL     1     -45.166  26.179   3.946  0.00  0.00    -0.004 C 
ATOM     18  C   UNL     1     -45.523  24.344   1.887  0.00  0.00    +0.136 C 
ATOM     19  C   UNL     1     -46.247  25.303   3.981  0.00  0.00    +0.000 C 
ATOM     20  C   UNL     1     -46.426  24.387   2.951  0.00  0.00    +0.036 C 
ENDROOT
BRANCH  15  23
ATOM     21  O   UNL     1     -40.453  21.183   1.977  0.00  0.00    -0.270 OA
ATOM     22  N   UNL     1     -38.154  21.172   2.192  0.00  0.00    -0.325 N 
ATOM     23  C   UNL     1     -39.373  21.763   1.979  0.00  0.00    +0.248 C 
ATOM     24  H   UNL     1     -38.099  20.203   2.360  0.00  0.00    +0.145 HD
ATOM     25  H   UNL     1     -37.333  21.716   2.177  0.00  0.00    +0.145 HD
ENDBRANCH  15  23
BRANCH   7  26
ATOM     26  N   UNL     1     -37.060  25.664   1.722  0.00  0.00    +0.390 N 
ATOM     27  C   UNL     1     -35.995  24.991   2.463  0.00  0.00    -0.100 C 
ATOM     28  C   UNL     1     -36.729  27.072   1.511  0.00  0.00    -0.100 C 
ATOM     29  H   UNL     1     -37.153  25.214   0.811  0.00  0.00    -0.079 HD
ENDBRANCH   7  26
BRANCH   4  30
ATOM     30  O   UNL     1     -38.895  25.538  -0.612  0.00  0.00    -0.373 OA
ATOM     31  H   UNL     1     -38.391  26.337  -0.388  0.00  0.00    +0.211 HD
ENDBRANCH   4  30
BRANCH  11  32
ATOM     32  O   UNL     1     -40.463  23.065  -0.351  0.00  0.00    -0.507 OA
ATOM     33  H   UNL     1     -41.029  23.500  -0.957  0.00  0.00    +0.292 HD
ENDBRANCH  11  32
BRANCH  14  34
ATOM     34  O   UNL     1     -43.733  24.258  -0.271  0.00  0.00    -0.505 OA
ATOM     35  H   UNL     1     -43.042  23.909  -0.799  0.00  0.00    +0.292 HD
ENDBRANCH  14  34
BRANCH  18  36
ATOM     36  O   UNL     1     -45.786  23.435   0.900  0.00  0.00    -0.505 OA
ATOM     37  H   UNL     1     -46.410  22.752   1.047  0.00  0.00    +0.292 HD
ENDBRANCH  18  36
BRANCH  17  38
ATOM     38  C   UNL     1     -45.015  27.146   5.079  0.00  0.00    +0.127 C 
BRANCH  38  39
ATOM     39  N   UNL     1     -45.905  28.298   4.948  0.00  0.00    -0.160 NA
ATOM     40  C   UNL     1     -46.812  28.387   6.088  0.00  0.00    +0.121 C 
BRANCH  39  41
ATOM     41  O   UNL     1     -45.028  29.456   5.081  0.00  0.00    -0.279 OA
ATOM     42  C   UNL     1     -45.070  30.175   3.855  0.00  0.00    +0.201 C 
ENDBRANCH  39  41
ENDBRANCH  38  39
ENDBRANCH  17  38
TORSDOF 9
ENDMDL
MODEL 8
REMARK VINA RESULT:      -5.9      2.824      3.962
REMARK  Name = 54681908
REMARK  9 active torsions:
REMARK  status: ('A' for Active; 'I' for Inactive)
REMARK    1  A    between atoms: C_4  and  O_30
REMARK    2  A    between atoms: C_7  and  N_26
REMARK    3  A    between atoms: C_11  and  O_32
REMARK    4  A    between atoms: C_14  and  O_34
REMARK    5  A    between atoms: C_15  and  C_23
REMARK    6  A    between atoms: C_17  and  C_38
REMARK    7  A    between atoms: C_18  and  O_36
REMARK    8  A    between atoms: C_38  and  N_39
REMARK    9  A    between atoms: N_39  and  O_41
REMARK                            x       y       z     vdW  Elec       q    Type
REMARK                         _______ _______ _______ _____ _____    ______ ____
ROOT
ATOM      1  O   UNL     1     -37.063  22.792   4.146  0.00  0.00    -0.288 OA
ATOM      2  O   UNL     1     -39.981  23.446  -1.674  0.00  0.00    -0.293 OA
ATOM      3  C   UNL     1     -37.852  24.501   1.058  0.00  0.00    +0.031 C 
ATOM      4  C   UNL     1     -38.260  23.451   2.122  0.00  0.00    +0.192 C 
ATOM      5  C   UNL     1     -36.561  24.115   0.284  0.00  0.00    +0.028 C 
ATOM      6  C   UNL     1     -35.402  23.836   1.250  0.00  0.00    -0.016 C 
ATOM      7  C   UNL     1     -38.990  24.761   0.059  0.00  0.00    +0.009 C 
ATOM      8  C   UNL     1     -35.812  22.701   2.139  0.00  0.00    +0.067 C 
ATOM      9  C   UNL     1     -37.041  22.980   2.932  0.00  0.00    +0.206 C 
ATOM     10  C   UNL     1     -34.062  23.615   0.527  0.00  0.00    -0.004 C 
ATOM     11  C   UNL     1     -38.967  22.243   1.536  0.00  0.00    +0.149 C 
ATOM     12  C   UNL     1     -39.509  23.465  -0.536  0.00  0.00    +0.161 C 
ATOM     13  C   UNL     1     -33.628  22.177   0.384  0.00  0.00    +0.003 C 
ATOM     14  C   UNL     1     -35.242  21.484   2.158  0.00  0.00    +0.139 C 
ATOM     15  C   UNL     1     -39.500  22.217   0.297  0.00  0.00    +0.118 C 
ATOM     16  C   UNL     1     -34.159  21.167   1.207  0.00  0.00    +0.067 C 
ATOM     17  C   UNL     1     -32.612  21.868  -0.535  0.00  0.00    -0.004 C 
ATOM     18  C   UNL     1     -33.661  19.859   1.078  0.00  0.00    +0.136 C 
ATOM     19  C   UNL     1     -32.134  20.566  -0.654  0.00  0.00    +0.000 C 
ATOM     20  C   UNL     1     -32.658  19.563   0.153  0.00  0.00    +0.036 C 
ENDROOT
BRANCH  15  23
ATOM     21  O   UNL     1     -41.142  20.528   0.201  0.00  0.00    -0.270 OA
ATOM     22  N   UNL     1     -39.376  20.446  -1.283  0.00  0.00    -0.325 N 
ATOM     23  C   UNL     1     -40.100  20.987  -0.251  0.00  0.00    +0.248 C 
ATOM     24  H   UNL     1     -39.685  19.621  -1.723  0.00  0.00    +0.145 HD
ATOM     25  H   UNL     1     -38.546  20.882  -1.584  0.00  0.00    +0.145 HD
ENDBRANCH  15  23
BRANCH   7  26
ATOM     26  N   UNL     1     -40.146  25.440   0.642  0.00  0.00    +0.390 N 
ATOM     27  C   UNL     1     -41.228  25.534  -0.337  0.00  0.00    -0.100 C 
ATOM     28  C   UNL     1     -39.768  26.769   1.118  0.00  0.00    -0.100 C 
ATOM     29  H   UNL     1     -40.478  24.894   1.437  0.00  0.00    -0.079 HD
ENDBRANCH   7  26
BRANCH   4  30
ATOM     30  O   UNL     1     -39.157  24.036   3.066  0.00  0.00    -0.373 OA
ATOM     31  H   UNL     1     -38.738  24.812   3.472  0.00  0.00    +0.211 HD
ENDBRANCH   4  30
BRANCH  11  32
ATOM     32  O   UNL     1     -39.022  21.173   2.416  0.00  0.00    -0.507 OA
ATOM     33  H   UNL     1     -38.748  20.322   2.136  0.00  0.00    +0.292 HD
ENDBRANCH  11  32
BRANCH  14  34
ATOM     34  O   UNL     1     -35.661  20.441   2.958  0.00  0.00    -0.505 OA
ATOM     35  H   UNL     1     -35.958  20.610   3.830  0.00  0.00    +0.292 HD
ENDBRANCH  14  34
BRANCH  18  36
ATOM     36  O   UNL     1     -34.102  18.824   1.853  0.00  0.00    -0.505 OA
ATOM     37  H   UNL     1     -34.451  18.053   1.451  0.00  0.00    +0.292 HD
ENDBRANCH  18  36
BRANCH  17  38
ATOM     38  C   UNL     1     -32.017  22.912  -1.428  0.00  0.00    +0.127 C 
BRANCH  38  39
ATOM     39  N   UNL     1     -30.638  23.232  -1.065  0.00  0.00    -0.160 NA
ATOM     40  C   UNL     1     -29.778  23.234  -2.244  0.00  0.00    +0.121 C 
BRANCH  39  41
ATOM     41  O   UNL     1     -30.684  24.627  -0.638  0.00  0.00    -0.279 OA
ATOM     42  C   UNL     1     -31.500  25.335  -1.562  0.00  0.00    +0.201 C 
ENDBRANCH  39  41
ENDBRANCH  38  39
ENDBRANCH  17  38
TORSDOF 9
ENDMDL
MODEL 9
REMARK VINA RESULT:      -5.9      2.599      7.514
REMARK  Name = 54681908
REMARK  9 active torsions:
REMARK  status: ('A' for Active; 'I' for Inactive)
REMARK    1  A    between atoms: C_4  and  O_30
REMARK    2  A    between atoms: C_7  and  N_26
REMARK    3  A    between atoms: C_11  and  O_32
REMARK    4  A    between atoms: C_14  and  O_34
REMARK    5  A    between atoms: C_15  and  C_23
REMARK    6  A    between atoms: C_17  and  C_38
REMARK    7  A    between atoms: C_18  and  O_36
REMARK    8  A    between atoms: C_38  and  N_39
REMARK    9  A    between atoms: N_39  and  O_41
REMARK                            x       y       z     vdW  Elec       q    Type
REMARK                         _______ _______ _______ _____ _____    ______ ____
ROOT
ATOM      1  O   UNL     1     -35.929  25.919  -1.631  0.00  0.00    -0.288 OA
ATOM      2  O   UNL     1     -36.595  22.827   4.097  0.00  0.00    -0.293 OA
ATOM      3  C   UNL     1     -34.740  24.102   1.261  0.00  0.00    +0.031 C 
ATOM      4  C   UNL     1     -35.919  24.445   0.315  0.00  0.00    +0.192 C 
ATOM      5  C   UNL     1     -34.229  25.329   2.067  0.00  0.00    +0.028 C 
ATOM      6  C   UNL     1     -33.862  26.489   1.132  0.00  0.00    -0.016 C 
ATOM      7  C   UNL     1     -35.108  22.968   2.231  0.00  0.00    +0.009 C 
ATOM      8  C   UNL     1     -35.095  26.869   0.370  0.00  0.00    +0.067 C 
ATOM      9  C   UNL     1     -35.658  25.756  -0.445  0.00  0.00    +0.206 C 
ATOM     10  C   UNL     1     -33.193  27.661   1.870  0.00  0.00    -0.004 C 
ATOM     11  C   UNL     1     -37.256  24.539   1.028  0.00  0.00    +0.149 C 
ATOM     12  C   UNL     1     -36.404  23.266   2.961  0.00  0.00    +0.161 C 
ATOM     13  C   UNL     1     -34.086  28.841   2.162  0.00  0.00    +0.003 C 
ATOM     14  C   UNL     1     -35.745  28.040   0.477  0.00  0.00    +0.139 C 
ATOM     15  C   UNL     1     -37.479  24.048   2.265  0.00  0.00    +0.118 C 
ATOM     16  C   UNL     1     -35.284  29.046   1.453  0.00  0.00    +0.067 C 
ATOM     17  C   UNL     1     -33.661  29.790   3.105  0.00  0.00    -0.004 C 
ATOM     18  C   UNL     1     -36.036  30.203   1.719  0.00  0.00    +0.136 C 
ATOM     19  C   UNL     1     -34.422  30.929   3.360  0.00  0.00    +0.000 C 
ATOM     20  C   UNL     1     -35.608  31.135   2.666  0.00  0.00    +0.036 C 
ENDROOT
BRANCH  15  23
ATOM     21  O   UNL     1     -39.802  23.732   2.515  0.00  0.00    -0.270 OA
ATOM     22  N   UNL     1     -38.685  25.038   4.058  0.00  0.00    -0.325 N 
ATOM     23  C   UNL     1     -38.774  24.244   2.943  0.00  0.00    +0.248 C 
ATOM     24  H   UNL     1     -39.491  25.236   4.587  0.00  0.00    +0.145 HD
ATOM     25  H   UNL     1     -37.815  25.409   4.330  0.00  0.00    +0.145 HD
ENDBRANCH  15  23
BRANCH   7  26
ATOM     26  N   UNL     1     -35.287  21.670   1.583  0.00  0.00    +0.390 N 
ATOM     27  C   UNL     1     -35.565  20.638   2.580  0.00  0.00    -0.100 C 
ATOM     28  C   UNL     1     -34.102  21.324   0.802  0.00  0.00    -0.100 C 
ATOM     29  H   UNL     1     -36.085  21.729   0.950  0.00  0.00    -0.079 HD
ENDBRANCH   7  26
BRANCH   4  30
ATOM     30  O   UNL     1     -36.055  23.432  -0.683  0.00  0.00    -0.373 OA
ATOM     31  H   UNL     1     -36.575  22.695  -0.326  0.00  0.00    +0.211 HD
ENDBRANCH   4  30
BRANCH  11  32
ATOM     32  O   UNL     1     -38.228  25.169   0.266  0.00  0.00    -0.507 OA
ATOM     33  H   UNL     1     -38.515  24.784  -0.538  0.00  0.00    +0.292 HD
ENDBRANCH  11  32
BRANCH  14  34
ATOM     34  O   UNL     1     -36.901  28.353  -0.206  0.00  0.00    -0.505 OA
ATOM     35  H   UNL     1     -37.736  28.160   0.174  0.00  0.00    +0.292 HD
ENDBRANCH  14  34
BRANCH  18  36
ATOM     36  O   UNL     1     -37.197  30.493   1.058  0.00  0.00    -0.505 OA
ATOM     37  H   UNL     1     -37.175  30.721   0.150  0.00  0.00    +0.292 HD
ENDBRANCH  18  36
BRANCH  17  38
ATOM     38  C   UNL     1     -32.393  29.613   3.881  0.00  0.00    +0.127 C 
BRANCH  38  39
ATOM     39  N   UNL     1     -32.630  29.527   5.320  0.00  0.00    -0.160 NA
ATOM     40  C   UNL     1     -31.881  28.419   5.905  0.00  0.00    +0.121 C 
BRANCH  39  41
ATOM     41  O   UNL     1     -32.004  30.726   5.867  0.00  0.00    -0.279 OA
ATOM     42  C   UNL     1     -30.770  30.919   5.187  0.00  0.00    +0.201 C 
ENDBRANCH  39  41
ENDBRANCH  38  39
ENDBRANCH  17  38
TORSDOF 9
ENDMDL
