MODEL 1
REMARK VINA RESULT:      -6.8      0.000      0.000
REMARK  Name = 5320118
REMARK  8 active torsions:
REMARK  status: ('A' for Active; 'I' for Inactive)
REMARK    1  A    between atoms: C_3  and  C_13
REMARK    2  A    between atoms: C_6  and  O_27
REMARK    3  A    between atoms: C_10  and  O_29
REMARK    4  A    between atoms: C_11  and  O_31
REMARK    5  A    between atoms: C_12  and  C_22
REMARK    6  A    between atoms: C_14  and  O_18
REMARK    7  A    between atoms: C_16  and  O_20
REMARK    8  A    between atoms: C_22  and  C_23
REMARK                            x       y       z     vdW  Elec       q    Type
REMARK                         _______ _______ _______ _____ _____    ______ ____
ROOT
ATOM      1  O   UNL     1     -36.192  24.044   2.590  0.00  0.00    -0.450 OA
ATOM      2  O   UNL     1     -34.382  22.486   5.893  0.00  0.00    -0.283 OA
ATOM      3  C   UNL     1     -36.325  22.706   2.924  0.00  0.00    +0.182 A 
ATOM      4  C   UNL     1     -34.800  24.380   4.551  0.00  0.00    +0.080 A 
ATOM      5  C   UNL     1     -35.441  24.851   3.407  0.00  0.00    +0.152 A 
ATOM      6  C   UNL     1     -35.750  22.126   3.993  0.00  0.00    +0.208 A 
ATOM      7  C   UNL     1     -34.928  22.958   4.903  0.00  0.00    +0.235 A 
ATOM      8  C   UNL     1     -34.048  25.249   5.346  0.00  0.00    +0.046 C 
ATOM      9  C   UNL     1     -35.334  26.195   3.050  0.00  0.00    +0.077 C 
ATOM     10  C   UNL     1     -33.942  26.593   4.986  0.00  0.00    +0.168 C 
ATOM     11  C   UNL     1     -34.584  27.066   3.841  0.00  0.00    +0.171 C 
ENDROOT
BRANCH   3  13
ATOM     12  C   UNL     1     -36.583  21.247   0.903  0.00  0.00    +0.022 C 
ATOM     13  C   UNL     1     -37.154  21.955   1.964  0.00  0.00    +0.037 C 
ATOM     14  C   UNL     1     -37.395  20.548   0.012  0.00  0.00    +0.164 C 
ATOM     15  C   UNL     1     -38.540  21.959   2.128  0.00  0.00    +0.006 C 
ATOM     16  C   UNL     1     -38.781  20.553   0.177  0.00  0.00    +0.167 C 
ATOM     17  C   UNL     1     -39.353  21.259   1.236  0.00  0.00    +0.040 C 
BRANCH  14  18
ATOM     18  O   UNL     1     -36.843  19.857  -1.026  0.00  0.00    -0.503 OA
ATOM     19  H   UNL     1     -37.394  19.467  -1.676  0.00  0.00    +0.292 HD
ENDBRANCH  14  18
BRANCH  16  20
ATOM     20  O   UNL     1     -39.586  19.873  -0.685  0.00  0.00    -0.503 OA
ATOM     21  H   UNL     1     -40.139  20.343  -1.278  0.00  0.00    +0.292 HD
ENDBRANCH  16  20
BRANCH  12  22
ATOM     22  C   UNL     1     -35.099  21.230   0.711  0.00  0.00    +0.055 C 
BRANCH  22  23
ATOM     23  C   UNL     1     -34.463  19.950   1.191  0.00  0.00    -0.030 C 
ATOM     24  C   UNL     1     -33.210  19.511   0.966  0.00  0.00    -0.048 C 
ATOM     25  C   UNL     1     -32.638  18.219   1.476  0.00  0.00    +0.026 C 
ATOM     26  C   UNL     1     -32.254  20.328   0.136  0.00  0.00    +0.026 C 
ENDBRANCH  22  23
ENDBRANCH  12  22
ENDBRANCH   3  13
BRANCH   6  27
ATOM     27  O   UNL     1     -35.875  20.783   4.278  0.00  0.00    -0.501 OA
ATOM     28  H   UNL     1     -35.341  20.394   4.944  0.00  0.00    +0.292 HD
ENDBRANCH   6  27
BRANCH  10  29
ATOM     29  O   UNL     1     -33.207  27.437   5.765  0.00  0.00    -0.503 OA
ATOM     30  H   UNL     1     -33.028  28.308   5.471  0.00  0.00    +0.292 HD
ENDBRANCH  10  29
BRANCH  11  31
ATOM     31  O   UNL     1     -34.485  28.377   3.484  0.00  0.00    -0.503 OA
ATOM     32  H   UNL     1     -35.012  28.713   2.786  0.00  0.00    +0.292 HD
ENDBRANCH  11  31
TORSDOF 8
ENDMDL
MODEL 2
REMARK VINA RESULT:      -6.7      1.441      3.446
REMARK  Name = 5320118
REMARK  8 active torsions:
REMARK  status: ('A' for Active; 'I' for Inactive)
REMARK    1  A    between atoms: C_3  and  C_13
REMARK    2  A    between atoms: C_6  and  O_27
REMARK    3  A    between atoms: C_10  and  O_29
REMARK    4  A    between atoms: C_11  and  O_31
REMARK    5  A    between atoms: C_12  and  C_22
REMARK    6  A    between atoms: C_14  and  O_18
REMARK    7  A    between atoms: C_16  and  O_20
REMARK    8  A    between atoms: C_22  and  C_23
REMARK                            x       y       z     vdW  Elec       q    Type
REMARK                         _______ _______ _______ _____ _____    ______ ____
ROOT
ATOM      1  O   UNL     1     -34.899  23.378   2.365  0.00  0.00    -0.450 OA
ATOM      2  O   UNL     1     -34.963  23.055   6.427  0.00  0.00    -0.283 OA
ATOM      3  C   UNL     1     -35.311  22.212   2.991  0.00  0.00    +0.182 A 
ATOM      4  C   UNL     1     -34.522  24.395   4.537  0.00  0.00    +0.080 A 
ATOM      5  C   UNL     1     -34.520  24.440   3.145  0.00  0.00    +0.152 A 
ATOM      6  C   UNL     1     -35.349  22.036   4.324  0.00  0.00    +0.208 A 
ATOM      7  C   UNL     1     -34.946  23.156   5.207  0.00  0.00    +0.235 A 
ATOM      8  C   UNL     1     -34.125  25.509   5.281  0.00  0.00    +0.046 C 
ATOM      9  C   UNL     1     -34.121  25.604   2.485  0.00  0.00    +0.077 C 
ATOM     10  C   UNL     1     -33.725  26.671   4.618  0.00  0.00    +0.168 C 
ATOM     11  C   UNL     1     -33.723  26.718   3.224  0.00  0.00    +0.171 C 
ENDROOT
BRANCH   3  13
ATOM     12  C   UNL     1     -37.009  20.991   1.612  0.00  0.00    +0.022 C 
ATOM     13  C   UNL     1     -35.689  21.152   2.040  0.00  0.00    +0.037 C 
ATOM     14  C   UNL     1     -37.334  19.976   0.713  0.00  0.00    +0.164 C 
ATOM     15  C   UNL     1     -34.696  20.293   1.564  0.00  0.00    +0.006 C 
ATOM     16  C   UNL     1     -36.341  19.120   0.237  0.00  0.00    +0.167 C 
ATOM     17  C   UNL     1     -35.022  19.278   0.663  0.00  0.00    +0.040 C 
BRANCH  14  18
ATOM     18  O   UNL     1     -38.622  19.814   0.294  0.00  0.00    -0.503 OA
ATOM     19  H   UNL     1     -38.951  18.956   0.113  0.00  0.00    +0.292 HD
ENDBRANCH  14  18
BRANCH  16  20
ATOM     20  O   UNL     1     -36.644  18.125  -0.643  0.00  0.00    -0.503 OA
ATOM     21  H   UNL     1     -35.956  17.665  -1.083  0.00  0.00    +0.292 HD
ENDBRANCH  16  20
BRANCH  12  22
ATOM     22  C   UNL     1     -38.086  21.901   2.112  0.00  0.00    +0.055 C 
BRANCH  22  23
ATOM     23  C   UNL     1     -38.187  23.178   1.316  0.00  0.00    -0.030 C 
ATOM     24  C   UNL     1     -38.221  24.443   1.777  0.00  0.00    -0.048 C 
ATOM     25  C   UNL     1     -38.323  25.675   0.923  0.00  0.00    +0.026 C 
ATOM     26  C   UNL     1     -38.167  24.715   3.257  0.00  0.00    +0.026 C 
ENDBRANCH  22  23
ENDBRANCH  12  22
ENDBRANCH   3  13
BRANCH   6  27
ATOM     27  O   UNL     1     -35.732  20.850   4.916  0.00  0.00    -0.501 OA
ATOM     28  H   UNL     1     -36.009  20.130   4.384  0.00  0.00    +0.292 HD
ENDBRANCH   6  27
BRANCH  10  29
ATOM     29  O   UNL     1     -33.338  27.756   5.347  0.00  0.00    -0.503 OA
ATOM     30  H   UNL     1     -33.963  28.416   5.572  0.00  0.00    +0.292 HD
ENDBRANCH  10  29
BRANCH  11  31
ATOM     31  O   UNL     1     -33.335  27.849   2.571  0.00  0.00    -0.503 OA
ATOM     32  H   UNL     1     -32.936  28.551   3.046  0.00  0.00    +0.292 HD
ENDBRANCH  11  31
TORSDOF 8
ENDMDL
MODEL 3
REMARK VINA RESULT:      -6.7      1.877      3.180
REMARK  Name = 5320118
REMARK  8 active torsions:
REMARK  status: ('A' for Active; 'I' for Inactive)
REMARK    1  A    between atoms: C_3  and  C_13
REMARK    2  A    between atoms: C_6  and  O_27
REMARK    3  A    between atoms: C_10  and  O_29
REMARK    4  A    between atoms: C_11  and  O_31
REMARK    5  A    between atoms: C_12  and  C_22
REMARK    6  A    between atoms: C_14  and  O_18
REMARK    7  A    between atoms: C_16  and  O_20
REMARK    8  A    between atoms: C_22  and  C_23
REMARK                            x       y       z     vdW  Elec       q    Type
REMARK                         _______ _______ _______ _____ _____    ______ ____
ROOT
ATOM      1  O   UNL     1     -35.564  25.005   4.136  0.00  0.00    -0.450 OA
ATOM      2  O   UNL     1     -33.924  27.313   1.205  0.00  0.00    -0.283 OA
ATOM      3  C   UNL     1     -35.961  24.884   2.814  0.00  0.00    +0.182 A 
ATOM      4  C   UNL     1     -33.986  26.734   3.490  0.00  0.00    +0.080 A 
ATOM      5  C   UNL     1     -34.588  25.917   4.445  0.00  0.00    +0.152 A 
ATOM      6  C   UNL     1     -35.468  25.618   1.800  0.00  0.00    +0.208 A 
ATOM      7  C   UNL     1     -34.412  26.619   2.087  0.00  0.00    +0.235 A 
ATOM      8  C   UNL     1     -32.996  27.646   3.864  0.00  0.00    +0.046 C 
ATOM      9  C   UNL     1     -34.203  26.009   5.783  0.00  0.00    +0.077 C 
ATOM     10  C   UNL     1     -32.614  27.736   5.203  0.00  0.00    +0.168 C 
ATOM     11  C   UNL     1     -33.215  26.918   6.161  0.00  0.00    +0.171 C 
ENDROOT
BRANCH   3  13
ATOM     12  C   UNL     1     -36.710  22.511   2.521  0.00  0.00    +0.022 C 
ATOM     13  C   UNL     1     -37.014  23.871   2.620  0.00  0.00    +0.037 C 
ATOM     14  C   UNL     1     -37.729  21.578   2.336  0.00  0.00    +0.164 C 
ATOM     15  C   UNL     1     -38.342  24.293   2.533  0.00  0.00    +0.006 C 
ATOM     16  C   UNL     1     -39.056  22.002   2.250  0.00  0.00    +0.167 C 
ATOM     17  C   UNL     1     -39.362  23.359   2.348  0.00  0.00    +0.040 C 
BRANCH  14  18
ATOM     18  O   UNL     1     -37.437  20.250   2.237  0.00  0.00    -0.503 OA
ATOM     19  H   UNL     1     -37.081  19.906   1.442  0.00  0.00    +0.292 HD
ENDBRANCH  14  18
BRANCH  16  20
ATOM     20  O   UNL     1     -40.063  21.101   2.071  0.00  0.00    -0.503 OA
ATOM     21  H   UNL     1     -40.018  20.262   2.485  0.00  0.00    +0.292 HD
ENDBRANCH  16  20
BRANCH  12  22
ATOM     22  C   UNL     1     -35.292  22.041   2.612  0.00  0.00    +0.055 C 
BRANCH  22  23
ATOM     23  C   UNL     1     -34.639  21.893   1.261  0.00  0.00    -0.030 C 
ATOM     24  C   UNL     1     -34.080  20.791   0.725  0.00  0.00    -0.048 C 
ATOM     25  C   UNL     1     -33.443  20.714  -0.634  0.00  0.00    +0.026 C 
ATOM     26  C   UNL     1     -34.048  19.500   1.500  0.00  0.00    +0.026 C 
ENDBRANCH  22  23
ENDBRANCH  12  22
ENDBRANCH   3  13
BRANCH   6  27
ATOM     27  O   UNL     1     -35.909  25.497   0.499  0.00  0.00    -0.501 OA
ATOM     28  H   UNL     1     -35.561  24.824  -0.053  0.00  0.00    +0.292 HD
ENDBRANCH   6  27
BRANCH  10  29
ATOM     29  O   UNL     1     -31.648  28.628   5.564  0.00  0.00    -0.503 OA
ATOM     30  H   UNL     1     -31.778  29.184   6.306  0.00  0.00    +0.292 HD
ENDBRANCH  10  29
BRANCH  11  31
ATOM     31  O   UNL     1     -32.846  27.000   7.470  0.00  0.00    -0.503 OA
ATOM     32  H   UNL     1     -32.347  26.310   7.860  0.00  0.00    +0.292 HD
ENDBRANCH  11  31
TORSDOF 8
ENDMDL
MODEL 4
REMARK VINA RESULT:      -6.5      2.067      7.078
REMARK  Name = 5320118
REMARK  8 active torsions:
REMARK  status: ('A' for Active; 'I' for Inactive)
REMARK    1  A    between atoms: C_3  and  C_13
REMARK    2  A    between atoms: C_6  and  O_27
REMARK    3  A    between atoms: C_10  and  O_29
REMARK    4  A    between atoms: C_11  and  O_31
REMARK    5  A    between atoms: C_12  and  C_22
REMARK    6  A    between atoms: C_14  and  O_18
REMARK    7  A    between atoms: C_16  and  O_20
REMARK    8  A    between atoms: C_22  and  C_23
REMARK                            x       y       z     vdW  Elec       q    Type
REMARK                         _______ _______ _______ _____ _____    ______ ____
ROOT
ATOM      1  O   UNL     1     -34.810  23.752   3.493  0.00  0.00    -0.450 OA
ATOM      2  O   UNL     1     -38.830  24.357   3.223  0.00  0.00    -0.283 OA
ATOM      3  C   UNL     1     -35.403  24.898   3.996  0.00  0.00    +0.182 A 
ATOM      4  C   UNL     1     -36.989  22.951   2.784  0.00  0.00    +0.080 A 
ATOM      5  C   UNL     1     -35.608  22.806   2.905  0.00  0.00    +0.152 A 
ATOM      6  C   UNL     1     -36.720  25.164   3.934  0.00  0.00    +0.208 A 
ATOM      7  C   UNL     1     -37.623  24.171   3.306  0.00  0.00    +0.235 A 
ATOM      8  C   UNL     1     -37.753  21.953   2.175  0.00  0.00    +0.046 C 
ATOM      9  C   UNL     1     -34.983  21.658   2.416  0.00  0.00    +0.077 C 
ATOM     10  C   UNL     1     -37.124  20.807   1.686  0.00  0.00    +0.168 C 
ATOM     11  C   UNL     1     -35.742  20.659   1.806  0.00  0.00    +0.171 C 
ENDROOT
BRANCH   3  13
ATOM     12  C   UNL     1     -33.734  26.759   3.824  0.00  0.00    +0.022 C 
ATOM     13  C   UNL     1     -34.434  25.831   4.599  0.00  0.00    +0.037 C 
ATOM     14  C   UNL     1     -32.822  27.626   4.424  0.00  0.00    +0.164 C 
ATOM     15  C   UNL     1     -34.215  25.773   5.976  0.00  0.00    +0.006 C 
ATOM     16  C   UNL     1     -32.606  27.567   5.801  0.00  0.00    +0.167 C 
ATOM     17  C   UNL     1     -33.302  26.640   6.577  0.00  0.00    +0.040 C 
BRANCH  14  18
ATOM     18  O   UNL     1     -32.137  28.533   3.671  0.00  0.00    -0.503 OA
ATOM     19  H   UNL     1     -32.238  28.541   2.740  0.00  0.00    +0.292 HD
ENDBRANCH  14  18
BRANCH  16  20
ATOM     20  O   UNL     1     -31.719  28.409   6.402  0.00  0.00    -0.503 OA
ATOM     21  H   UNL     1     -32.010  28.995   7.072  0.00  0.00    +0.292 HD
ENDBRANCH  16  20
BRANCH  12  22
ATOM     22  C   UNL     1     -33.955  26.836   2.346  0.00  0.00    +0.055 C 
BRANCH  22  23
ATOM     23  C   UNL     1     -33.051  25.910   1.572  0.00  0.00    -0.030 C 
ATOM     24  C   UNL     1     -33.382  25.067   0.575  0.00  0.00    -0.048 C 
ATOM     25  C   UNL     1     -32.425  24.168  -0.155  0.00  0.00    +0.026 C 
ATOM     26  C   UNL     1     -34.812  24.960   0.112  0.00  0.00    +0.026 C 
ENDBRANCH  22  23
ENDBRANCH  12  22
ENDBRANCH   3  13
BRANCH   6  27
ATOM     27  O   UNL     1     -37.276  26.331   4.416  0.00  0.00    -0.501 OA
ATOM     28  H   UNL     1     -37.253  26.517   5.335  0.00  0.00    +0.292 HD
ENDBRANCH   6  27
BRANCH  10  29
ATOM     29  O   UNL     1     -37.874  19.835   1.091  0.00  0.00    -0.503 OA
ATOM     30  H   UNL     1     -37.456  19.160   0.595  0.00  0.00    +0.292 HD
ENDBRANCH  10  29
BRANCH  11  31
ATOM     31  O   UNL     1     -35.121  19.543   1.332  0.00  0.00    -0.503 OA
ATOM     32  H   UNL     1     -34.682  18.965   1.923  0.00  0.00    +0.292 HD
ENDBRANCH  11  31
TORSDOF 8
ENDMDL
MODEL 5
REMARK VINA RESULT:      -6.5      2.637      7.276
REMARK  Name = 5320118
REMARK  8 active torsions:
REMARK  status: ('A' for Active; 'I' for Inactive)
REMARK    1  A    between atoms: C_3  and  C_13
REMARK    2  A    between atoms: C_6  and  O_27
REMARK    3  A    between atoms: C_10  and  O_29
REMARK    4  A    between atoms: C_11  and  O_31
REMARK    5  A    between atoms: C_12  and  C_22
REMARK    6  A    between atoms: C_14  and  O_18
REMARK    7  A    between atoms: C_16  and  O_20
REMARK    8  A    between atoms: C_22  and  C_23
REMARK                            x       y       z     vdW  Elec       q    Type
REMARK                         _______ _______ _______ _____ _____    ______ ____
ROOT
ATOM      1  O   UNL     1     -35.426  24.518   2.068  0.00  0.00    -0.450 OA
ATOM      2  O   UNL     1     -38.977  26.496   2.358  0.00  0.00    -0.283 OA
ATOM      3  C   UNL     1     -35.479  25.901   2.132  0.00  0.00    +0.182 A 
ATOM      4  C   UNL     1     -37.847  24.431   2.218  0.00  0.00    +0.080 A 
ATOM      5  C   UNL     1     -36.601  23.815   2.117  0.00  0.00    +0.152 A 
ATOM      6  C   UNL     1     -36.615  26.616   2.222  0.00  0.00    +0.208 A 
ATOM      7  C   UNL     1     -37.911  25.899   2.275  0.00  0.00    +0.235 A 
ATOM      8  C   UNL     1     -39.013  23.662   2.264  0.00  0.00    +0.046 C 
ATOM      9  C   UNL     1     -36.514  22.423   2.059  0.00  0.00    +0.077 C 
ATOM     10  C   UNL     1     -38.922  22.271   2.206  0.00  0.00    +0.168 C 
ATOM     11  C   UNL     1     -37.675  21.652   2.104  0.00  0.00    +0.171 C 
ENDROOT
BRANCH   3  13
ATOM     12  C   UNL     1     -33.432  26.844   3.227  0.00  0.00    +0.022 C 
ATOM     13  C   UNL     1     -34.149  26.532   2.069  0.00  0.00    +0.037 C 
ATOM     14  C   UNL     1     -32.177  27.442   3.133  0.00  0.00    +0.164 C 
ATOM     15  C   UNL     1     -33.602  26.821   0.817  0.00  0.00    +0.006 C 
ATOM     16  C   UNL     1     -31.632  27.729   1.881  0.00  0.00    +0.167 C 
ATOM     17  C   UNL     1     -32.345  27.419   0.723  0.00  0.00    +0.040 C 
BRANCH  14  18
ATOM     18  O   UNL     1     -31.475  27.750   4.261  0.00  0.00    -0.503 OA
ATOM     19  H   UNL     1     -30.590  27.457   4.358  0.00  0.00    +0.292 HD
ENDBRANCH  14  18
BRANCH  16  20
ATOM     20  O   UNL     1     -30.405  28.312   1.775  0.00  0.00    -0.503 OA
ATOM     21  H   UNL     1     -29.792  28.245   2.480  0.00  0.00    +0.292 HD
ENDBRANCH  16  20
BRANCH  12  22
ATOM     22  C   UNL     1     -34.002  26.542   4.578  0.00  0.00    +0.055 C 
BRANCH  22  23
ATOM     23  C   UNL     1     -33.948  25.075   4.919  0.00  0.00    -0.030 C 
ATOM     24  C   UNL     1     -34.942  24.292   5.380  0.00  0.00    -0.048 C 
ATOM     25  C   UNL     1     -34.818  22.830   5.701  0.00  0.00    +0.026 C 
ATOM     26  C   UNL     1     -36.312  24.868   5.625  0.00  0.00    +0.026 C 
ENDBRANCH  22  23
ENDBRANCH  12  22
ENDBRANCH   3  13
BRANCH   6  27
ATOM     27  O   UNL     1     -36.636  27.995   2.250  0.00  0.00    -0.501 OA
ATOM     28  H   UNL     1     -37.434  28.447   2.446  0.00  0.00    +0.292 HD
ENDBRANCH   6  27
BRANCH  10  29
ATOM     29  O   UNL     1     -40.062  21.524   2.250  0.00  0.00    -0.503 OA
ATOM     30  H   UNL     1     -40.492  21.279   1.455  0.00  0.00    +0.292 HD
ENDBRANCH  10  29
BRANCH  11  31
ATOM     31  O   UNL     1     -37.580  20.295   2.048  0.00  0.00    -0.503 OA
ATOM     32  H   UNL     1     -36.809  19.866   2.363  0.00  0.00    +0.292 HD
ENDBRANCH  11  31
TORSDOF 8
ENDMDL
MODEL 6
REMARK VINA RESULT:      -6.5      1.813      2.675
REMARK  Name = 5320118
REMARK  8 active torsions:
REMARK  status: ('A' for Active; 'I' for Inactive)
REMARK    1  A    between atoms: C_3  and  C_13
REMARK    2  A    between atoms: C_6  and  O_27
REMARK    3  A    between atoms: C_10  and  O_29
REMARK    4  A    between atoms: C_11  and  O_31
REMARK    5  A    between atoms: C_12  and  C_22
REMARK    6  A    between atoms: C_14  and  O_18
REMARK    7  A    between atoms: C_16  and  O_20
REMARK    8  A    between atoms: C_22  and  C_23
REMARK                            x       y       z     vdW  Elec       q    Type
REMARK                         _______ _______ _______ _____ _____    ______ ____
ROOT
ATOM      1  O   UNL     1     -35.811  25.511   2.215  0.00  0.00    -0.450 OA
ATOM      2  O   UNL     1     -34.422  26.103   6.000  0.00  0.00    -0.283 OA
ATOM      3  C   UNL     1     -36.275  24.756   3.281  0.00  0.00    +0.182 A 
ATOM      4  C   UNL     1     -34.361  26.735   3.729  0.00  0.00    +0.080 A 
ATOM      5  C   UNL     1     -34.874  26.481   2.458  0.00  0.00    +0.152 A 
ATOM      6  C   UNL     1     -35.855  24.895   4.552  0.00  0.00    +0.208 A 
ATOM      7  C   UNL     1     -34.841  25.930   4.863  0.00  0.00    +0.235 A 
ATOM      8  C   UNL     1     -33.407  27.738   3.918  0.00  0.00    +0.046 C 
ATOM      9  C   UNL     1     -34.434  27.230   1.366  0.00  0.00    +0.077 C 
ATOM     10  C   UNL     1     -32.968  28.484   2.823  0.00  0.00    +0.168 C 
ATOM     11  C   UNL     1     -33.481  28.231   1.550  0.00  0.00    +0.171 C 
ENDROOT
BRANCH   3  13
ATOM     12  C   UNL     1     -36.918  22.425   2.628  0.00  0.00    +0.022 C 
ATOM     13  C   UNL     1     -37.276  23.751   2.882  0.00  0.00    +0.037 C 
ATOM     14  C   UNL     1     -37.889  21.498   2.250  0.00  0.00    +0.164 C 
ATOM     15  C   UNL     1     -38.609  24.146   2.755  0.00  0.00    +0.006 C 
ATOM     16  C   UNL     1     -39.221  21.895   2.124  0.00  0.00    +0.167 C 
ATOM     17  C   UNL     1     -39.581  23.219   2.377  0.00  0.00    +0.040 C 
BRANCH  14  18
ATOM     18  O   UNL     1     -37.544  20.203   2.000  0.00  0.00    -0.503 OA
ATOM     19  H   UNL     1     -37.490  19.588   2.705  0.00  0.00    +0.292 HD
ENDBRANCH  14  18
BRANCH  16  20
ATOM     20  O   UNL     1     -40.181  21.000   1.757  0.00  0.00    -0.503 OA
ATOM     21  H   UNL     1     -39.992  20.082   1.765  0.00  0.00    +0.292 HD
ENDBRANCH  16  20
BRANCH  12  22
ATOM     22  C   UNL     1     -35.495  21.983   2.759  0.00  0.00    +0.055 C 
BRANCH  22  23
ATOM     23  C   UNL     1     -34.758  21.992   1.443  0.00  0.00    -0.030 C 
ATOM     24  C   UNL     1     -34.115  20.971   0.845  0.00  0.00    -0.048 C 
ATOM     25  C   UNL     1     -33.397  21.051  -0.473  0.00  0.00    +0.026 C 
ATOM     26  C   UNL     1     -34.063  19.616   1.500  0.00  0.00    +0.026 C 
ENDBRANCH  22  23
ENDBRANCH  12  22
ENDBRANCH   3  13
BRANCH   6  27
ATOM     27  O   UNL     1     -36.313  24.105   5.585  0.00  0.00    -0.501 OA
ATOM     28  H   UNL     1     -36.025  24.268   6.463  0.00  0.00    +0.292 HD
ENDBRANCH   6  27
BRANCH  10  29
ATOM     29  O   UNL     1     -32.036  29.461   3.011  0.00  0.00    -0.503 OA
ATOM     30  H   UNL     1     -32.241  30.209   3.536  0.00  0.00    +0.292 HD
ENDBRANCH  10  29
BRANCH  11  31
ATOM     31  O   UNL     1     -33.058  28.957   0.478  0.00  0.00    -0.503 OA
ATOM     32  H   UNL     1     -33.365  28.745  -0.382  0.00  0.00    +0.292 HD
ENDBRANCH  11  31
TORSDOF 8
ENDMDL
MODEL 7
REMARK VINA RESULT:      -6.4      2.746      6.165
REMARK  Name = 5320118
REMARK  8 active torsions:
REMARK  status: ('A' for Active; 'I' for Inactive)
REMARK    1  A    between atoms: C_3  and  C_13
REMARK    2  A    between atoms: C_6  and  O_27
REMARK    3  A    between atoms: C_10  and  O_29
REMARK    4  A    between atoms: C_11  and  O_31
REMARK    5  A    between atoms: C_12  and  C_22
REMARK    6  A    between atoms: C_14  and  O_18
REMARK    7  A    between atoms: C_16  and  O_20
REMARK    8  A    between atoms: C_22  and  C_23
REMARK                            x       y       z     vdW  Elec       q    Type
REMARK                         _______ _______ _______ _____ _____    ______ ____
ROOT
ATOM      1  O   UNL     1     -35.082  20.860   0.983  0.00  0.00    -0.450 OA
ATOM      2  O   UNL     1     -32.542  23.066  -1.316  0.00  0.00    -0.283 OA
ATOM      3  C   UNL     1     -35.470  22.074   0.439  0.00  0.00    +0.182 A 
ATOM      4  C   UNL     1     -32.903  21.105  -0.057  0.00  0.00    +0.080 A 
ATOM      5  C   UNL     1     -33.817  20.400   0.723  0.00  0.00    +0.152 A 
ATOM      6  C   UNL     1     -34.682  22.854  -0.322  0.00  0.00    +0.208 A 
ATOM      7  C   UNL     1     -33.305  22.399  -0.628  0.00  0.00    +0.235 A 
ATOM      8  C   UNL     1     -31.626  20.587  -0.289  0.00  0.00    +0.046 C 
ATOM      9  C   UNL     1     -33.459  19.171   1.278  0.00  0.00    +0.077 C 
ATOM     10  C   UNL     1     -31.271  19.357   0.268  0.00  0.00    +0.168 C 
ATOM     11  C   UNL     1     -32.186  18.650   1.049  0.00  0.00    +0.171 C 
ENDROOT
BRANCH   3  13
ATOM     12  C   UNL     1     -37.132  23.178   1.955  0.00  0.00    +0.022 C 
ATOM     13  C   UNL     1     -36.850  22.449   0.796  0.00  0.00    +0.037 C 
ATOM     14  C   UNL     1     -38.448  23.516   2.266  0.00  0.00    +0.164 C 
ATOM     15  C   UNL     1     -37.891  22.060  -0.048  0.00  0.00    +0.006 C 
ATOM     16  C   UNL     1     -39.487  23.127   1.420  0.00  0.00    +0.167 C 
ATOM     17  C   UNL     1     -39.208  22.399   0.263  0.00  0.00    +0.040 C 
BRANCH  14  18
ATOM     18  O   UNL     1     -38.727  24.225   3.396  0.00  0.00    -0.503 OA
ATOM     19  H   UNL     1     -39.048  23.785   4.159  0.00  0.00    +0.292 HD
ENDBRANCH  14  18
BRANCH  16  20
ATOM     20  O   UNL     1     -40.778  23.452   1.711  0.00  0.00    -0.503 OA
ATOM     21  H   UNL     1     -41.315  23.861   1.061  0.00  0.00    +0.292 HD
ENDBRANCH  16  20
BRANCH  12  22
ATOM     22  C   UNL     1     -36.029  23.603   2.872  0.00  0.00    +0.055 C 
BRANCH  22  23
ATOM     23  C   UNL     1     -35.855  22.673   4.046  0.00  0.00    -0.030 C 
ATOM     24  C   UNL     1     -35.436  22.975   5.290  0.00  0.00    -0.048 C 
ATOM     25  C   UNL     1     -35.285  21.993   6.417  0.00  0.00    +0.026 C 
ATOM     26  C   UNL     1     -35.064  24.391   5.645  0.00  0.00    +0.026 C 
ENDBRANCH  22  23
ENDBRANCH  12  22
ENDBRANCH   3  13
BRANCH   6  27
ATOM     27  O   UNL     1     -35.087  24.074  -0.822  0.00  0.00    -0.501 OA
ATOM     28  H   UNL     1     -34.668  24.861  -0.533  0.00  0.00    +0.292 HD
ENDBRANCH   6  27
BRANCH  10  29
ATOM     29  O   UNL     1     -30.024  18.856   0.040  0.00  0.00    -0.503 OA
ATOM     30  H   UNL     1     -29.732  18.098   0.506  0.00  0.00    +0.292 HD
ENDBRANCH  10  29
BRANCH  11  31
ATOM     31  O   UNL     1     -31.846  17.449   1.595  0.00  0.00    -0.503 OA
ATOM     32  H   UNL     1     -31.459  16.785   1.061  0.00  0.00    +0.292 HD
ENDBRANCH  11  31
TORSDOF 8
ENDMDL
MODEL 8
REMARK VINA RESULT:      -6.4      2.071      7.480
REMARK  Name = 5320118
REMARK  8 active torsions:
REMARK  status: ('A' for Active; 'I' for Inactive)
REMARK    1  A    between atoms: C_3  and  C_13
REMARK    2  A    between atoms: C_6  and  O_27
REMARK    3  A    between atoms: C_10  and  O_29
REMARK    4  A    between atoms: C_11  and  O_31
REMARK    5  A    between atoms: C_12  and  C_22
REMARK    6  A    between atoms: C_14  and  O_18
REMARK    7  A    between atoms: C_16  and  O_20
REMARK    8  A    between atoms: C_22  and  C_23
REMARK                            x       y       z     vdW  Elec       q    Type
REMARK                         _______ _______ _______ _____ _____    ______ ____
ROOT
ATOM      1  O   UNL     1     -34.825  23.859   3.366  0.00  0.00    -0.450 OA
ATOM      2  O   UNL     1     -38.864  24.392   3.467  0.00  0.00    -0.283 OA
ATOM      3  C   UNL     1     -35.393  24.966   3.977  0.00  0.00    +0.182 A 
ATOM      4  C   UNL     1     -37.043  23.049   2.803  0.00  0.00    +0.080 A 
ATOM      5  C   UNL     1     -35.655  22.927   2.799  0.00  0.00    +0.152 A 
ATOM      6  C   UNL     1     -36.715  25.207   4.040  0.00  0.00    +0.208 A 
ATOM      7  C   UNL     1     -37.651  24.227   3.439  0.00  0.00    +0.235 A 
ATOM      8  C   UNL     1     -37.840  22.066   2.209  0.00  0.00    +0.046 C 
ATOM      9  C   UNL     1     -35.054  21.819   2.201  0.00  0.00    +0.077 C 
ATOM     10  C   UNL     1     -37.235  20.960   1.611  0.00  0.00    +0.168 C 
ATOM     11  C   UNL     1     -35.845  20.836   1.607  0.00  0.00    +0.171 C 
ENDROOT
BRANCH   3  13
ATOM     12  C   UNL     1     -33.644  26.743   3.730  0.00  0.00    +0.022 C 
ATOM     13  C   UNL     1     -34.392  25.887   4.543  0.00  0.00    +0.037 C 
ATOM     14  C   UNL     1     -32.702  27.601   4.297  0.00  0.00    +0.164 C 
ATOM     15  C   UNL     1     -34.193  25.895   5.925  0.00  0.00    +0.006 C 
ATOM     16  C   UNL     1     -32.506  27.607   5.678  0.00  0.00    +0.167 C 
ATOM     17  C   UNL     1     -33.251  26.754   6.492  0.00  0.00    +0.040 C 
BRANCH  14  18
ATOM     18  O   UNL     1     -31.969  28.436   3.507  0.00  0.00    -0.503 OA
ATOM     19  H   UNL     1     -31.543  29.182   3.882  0.00  0.00    +0.292 HD
ENDBRANCH  14  18
BRANCH  16  20
ATOM     20  O   UNL     1     -31.591  28.442   6.246  0.00  0.00    -0.503 OA
ATOM     21  H   UNL     1     -31.037  28.130   6.934  0.00  0.00    +0.292 HD
ENDBRANCH  16  20
BRANCH  12  22
ATOM     22  C   UNL     1     -33.843  26.749   2.247  0.00  0.00    +0.055 C 
BRANCH  22  23
ATOM     23  C   UNL     1     -34.960  27.662   1.812  0.00  0.00    -0.030 C 
ATOM     24  C   UNL     1     -36.012  27.369   1.023  0.00  0.00    -0.048 C 
ATOM     25  C   UNL     1     -37.095  28.333   0.628  0.00  0.00    +0.026 C 
ATOM     26  C   UNL     1     -36.172  25.986   0.450  0.00  0.00    +0.026 C 
ENDBRANCH  22  23
ENDBRANCH  12  22
ENDBRANCH   3  13
BRANCH   6  27
ATOM     27  O   UNL     1     -37.248  26.336   4.626  0.00  0.00    -0.501 OA
ATOM     28  H   UNL     1     -37.473  26.329   5.536  0.00  0.00    +0.292 HD
ENDBRANCH   6  27
BRANCH  10  29
ATOM     29  O   UNL     1     -38.016  20.003   1.032  0.00  0.00    -0.503 OA
ATOM     30  H   UNL     1     -38.030  19.912   0.100  0.00  0.00    +0.292 HD
ENDBRANCH  10  29
BRANCH  11  31
ATOM     31  O   UNL     1     -35.248  19.759   1.025  0.00  0.00    -0.503 OA
ATOM     32  H   UNL     1     -34.391  19.840   0.657  0.00  0.00    +0.292 HD
ENDBRANCH  11  31
TORSDOF 8
ENDMDL
MODEL 9
REMARK VINA RESULT:      -6.3      2.730      5.488
REMARK  Name = 5320118
REMARK  8 active torsions:
REMARK  status: ('A' for Active; 'I' for Inactive)
REMARK    1  A    between atoms: C_3  and  C_13
REMARK    2  A    between atoms: C_6  and  O_27
REMARK    3  A    between atoms: C_10  and  O_29
REMARK    4  A    between atoms: C_11  and  O_31
REMARK    5  A    between atoms: C_12  and  C_22
REMARK    6  A    between atoms: C_14  and  O_18
REMARK    7  A    between atoms: C_16  and  O_20
REMARK    8  A    between atoms: C_22  and  C_23
REMARK                            x       y       z     vdW  Elec       q    Type
REMARK                         _______ _______ _______ _____ _____    ______ ____
ROOT
ATOM      1  O   UNL     1     -34.900  22.277   0.177  0.00  0.00    -0.450 OA
ATOM      2  O   UNL     1     -33.632  18.668   1.583  0.00  0.00    -0.283 OA
ATOM      3  C   UNL     1     -35.728  21.466   0.937  0.00  0.00    +0.182 A 
ATOM      4  C   UNL     1     -33.131  20.624   0.365  0.00  0.00    +0.080 A 
ATOM      5  C   UNL     1     -33.626  21.845  -0.089  0.00  0.00    +0.152 A 
ATOM      6  C   UNL     1     -35.376  20.263   1.425  0.00  0.00    +0.208 A 
ATOM      7  C   UNL     1     -34.009  19.754   1.162  0.00  0.00    +0.235 A 
ATOM      8  C   UNL     1     -31.823  20.237   0.064  0.00  0.00    +0.046 C 
ATOM      9  C   UNL     1     -32.814  22.688  -0.849  0.00  0.00    +0.077 C 
ATOM     10  C   UNL     1     -31.014  21.081  -0.697  0.00  0.00    +0.168 C 
ATOM     11  C   UNL     1     -31.507  22.305  -1.152  0.00  0.00    +0.171 C 
ENDROOT
BRANCH   3  13
ATOM     12  C   UNL     1     -37.301  23.005   2.135  0.00  0.00    +0.022 C 
ATOM     13  C   UNL     1     -37.066  22.046   1.146  0.00  0.00    +0.037 C 
ATOM     14  C   UNL     1     -38.579  23.533   2.308  0.00  0.00    +0.164 C 
ATOM     15  C   UNL     1     -38.117  21.619   0.332  0.00  0.00    +0.006 C 
ATOM     16  C   UNL     1     -39.628  23.105   1.494  0.00  0.00    +0.167 C 
ATOM     17  C   UNL     1     -39.396  22.148   0.505  0.00  0.00    +0.040 C 
BRANCH  14  18
ATOM     18  O   UNL     1     -38.813  24.467   3.274  0.00  0.00    -0.503 OA
ATOM     19  H   UNL     1     -39.239  25.272   3.054  0.00  0.00    +0.292 HD
ENDBRANCH  14  18
BRANCH  16  20
ATOM     20  O   UNL     1     -40.882  23.614   1.651  0.00  0.00    -0.503 OA
ATOM     21  H   UNL     1     -41.011  24.394   2.153  0.00  0.00    +0.292 HD
ENDBRANCH  16  20
BRANCH  12  22
ATOM     22  C   UNL     1     -36.187  23.475   3.018  0.00  0.00    +0.055 C 
BRANCH  22  23
ATOM     23  C   UNL     1     -36.006  22.610   4.239  0.00  0.00    -0.030 C 
ATOM     24  C   UNL     1     -35.463  22.950   5.424  0.00  0.00    -0.048 C 
ATOM     25  C   UNL     1     -35.312  22.033   6.605  0.00  0.00    +0.026 C 
ATOM     26  C   UNL     1     -34.934  24.342   5.647  0.00  0.00    +0.026 C 
ENDBRANCH  22  23
ENDBRANCH  12  22
ENDBRANCH   3  13
BRANCH   6  27
ATOM     27  O   UNL     1     -36.236  19.465   2.151  0.00  0.00    -0.501 OA
ATOM     28  H   UNL     1     -35.936  18.647   2.498  0.00  0.00    +0.292 HD
ENDBRANCH   6  27
BRANCH  10  29
ATOM     29  O   UNL     1     -29.738  20.699  -0.989  0.00  0.00    -0.503 OA
ATOM     30  H   UNL     1     -29.492  19.798  -0.918  0.00  0.00    +0.292 HD
ENDBRANCH  10  29
BRANCH  11  31
ATOM     31  O   UNL     1     -30.722  23.134  -1.894  0.00  0.00    -0.503 OA
ATOM     32  H   UNL     1     -30.760  24.060  -1.759  0.00  0.00    +0.292 HD
ENDBRANCH  11  31
TORSDOF 8
ENDMDL
