MODEL 1
REMARK VINA RESULT:      -5.9      0.000      0.000
REMARK  Name = 57356914
REMARK  13 active torsions:
REMARK  status: ('A' for Active; 'I' for Inactive)
REMARK    1  A    between atoms: N_1  and  N_15
REMARK    2  A    between atoms: C_2  and  C_6
REMARK    3  A    between atoms: C_2  and  C_23
REMARK    4  A    between atoms: C_3  and  C_9
REMARK    5  A    between atoms: C_9  and  C_10
REMARK    6  A    between atoms: C_10  and  C_12
REMARK    7  A    between atoms: C_12  and  O_13
REMARK    8  A    between atoms: N_15  and  C_18
REMARK    9  A    between atoms: C_18  and  N_19
REMARK   10  A    between atoms: N_22  and  C_23
REMARK   11  A    between atoms: N_22  and  N_24
REMARK   12  A    between atoms: N_24  and  C_27
REMARK   13  A    between atoms: C_27  and  N_28
REMARK                            x       y       z     vdW  Elec       q    Type
REMARK                         _______ _______ _______ _____ _____    ______ ____
ROOT
ATOM      1  N   UNL     1     -34.439  24.196   4.152  0.00  0.00    -0.183 NA
ATOM      2  C   UNL     1     -34.845  25.284   4.733  0.00  0.00    +0.096 C 
ENDROOT
BRANCH   2   6
ATOM      3  C   UNL     1     -32.031  28.252   5.987  0.00  0.00    -0.022 C 
ATOM      4  C   UNL     1     -32.389  28.153   4.642  0.00  0.00    -0.004 C 
ATOM      5  C   UNL     1     -32.591  27.382   6.923  0.00  0.00    -0.004 C 
ATOM      6  C   UNL     1     -33.866  26.316   5.170  0.00  0.00    +0.016 C 
ATOM      7  C   UNL     1     -33.306  27.186   4.234  0.00  0.00    +0.001 C 
ATOM      8  C   UNL     1     -33.507  26.414   6.514  0.00  0.00    +0.001 C 
BRANCH   3   9
ATOM      9  C   UNL     1     -31.050  29.286   6.425  0.00  0.00    +0.038 C 
BRANCH   9  10
ATOM     10  C   UNL     1     -29.640  29.077   5.861  0.00  0.00    +0.114 C 
BRANCH  10  12
ATOM     11  O   UNL     1     -28.484  26.999   6.285  0.00  0.00    -0.250 OA
ATOM     12  C   UNL     1     -28.847  28.097   6.690  0.00  0.00    +0.314 C 
BRANCH  12  13
ATOM     13  O   UNL     1     -28.551  28.568   7.927  0.00  0.00    -0.480 OA
ATOM     14  H   UNL     1     -29.051  29.273   8.291  0.00  0.00    +0.295 HD
ENDBRANCH  12  13
ENDBRANCH  10  12
ENDBRANCH   9  10
ENDBRANCH   3   9
ENDBRANCH   2   6
BRANCH   1  15
ATOM     15  N   UNL     1     -35.368  23.289   3.766  0.00  0.00    -0.218 N 
ATOM     16  H   UNL     1     -35.979  23.506   3.024  0.00  0.00    +0.176 HD
BRANCH  15  18
ATOM     17  S   UNL     1     -35.185  21.968   6.050  0.00  0.00    -0.017 S 
ATOM     18  C   UNL     1     -35.472  22.065   4.399  0.00  0.00    +0.151 C 
BRANCH  18  19
ATOM     19  N   UNL     1     -35.816  21.007   3.574  0.00  0.00    -0.313 N 
ATOM     20  C   UNL     1     -35.214  20.680   2.296  0.00  0.00    +0.110 C 
ATOM     21  H   UNL     1     -36.542  20.419   3.887  0.00  0.00    +0.149 HD
ENDBRANCH  18  19
ENDBRANCH  15  18
ENDBRANCH   1  15
BRANCH   2  22
ATOM     22  C   UNL     1     -36.301  25.542   4.976  0.00  0.00    +0.158 C 
BRANCH  22  23
ATOM     23  N   UNL     1     -37.067  25.689   3.953  0.00  0.00    -0.126 NA
BRANCH  23  24
ATOM     24  N   UNL     1     -38.254  25.049   4.075  0.00  0.00    -0.244 N 
ATOM     25  H   UNL     1     -38.533  24.711   4.957  0.00  0.00    +0.170 HD
BRANCH  24  27
ATOM     26  S   UNL     1     -40.494  25.758   2.861  0.00  0.00    -0.018 S 
ATOM     27  C   UNL     1     -39.080  24.861   2.983  0.00  0.00    +0.146 C 
BRANCH  27  28
ATOM     28  N   UNL     1     -38.639  23.919   2.070  0.00  0.00    -0.314 N 
ATOM     29  C   UNL     1     -38.796  22.481   2.172  0.00  0.00    +0.110 C 
ATOM     30  H   UNL     1     -38.173  24.258   1.273  0.00  0.00    +0.149 HD
ENDBRANCH  27  28
ENDBRANCH  24  27
ENDBRANCH  23  24
ENDBRANCH  22  23
ENDBRANCH   2  22
TORSDOF 13
ENDMDL
MODEL 2
REMARK VINA RESULT:      -5.8      1.303      1.907
REMARK  Name = 57356914
REMARK  13 active torsions:
REMARK  status: ('A' for Active; 'I' for Inactive)
REMARK    1  A    between atoms: N_1  and  N_15
REMARK    2  A    between atoms: C_2  and  C_6
REMARK    3  A    between atoms: C_2  and  C_23
REMARK    4  A    between atoms: C_3  and  C_9
REMARK    5  A    between atoms: C_9  and  C_10
REMARK    6  A    between atoms: C_10  and  C_12
REMARK    7  A    between atoms: C_12  and  O_13
REMARK    8  A    between atoms: N_15  and  C_18
REMARK    9  A    between atoms: C_18  and  N_19
REMARK   10  A    between atoms: N_22  and  C_23
REMARK   11  A    between atoms: N_22  and  N_24
REMARK   12  A    between atoms: N_24  and  C_27
REMARK   13  A    between atoms: C_27  and  N_28
REMARK                            x       y       z     vdW  Elec       q    Type
REMARK                         _______ _______ _______ _____ _____    ______ ____
ROOT
ATOM      1  N   UNL     1     -34.637  24.300   3.660  0.00  0.00    -0.183 NA
ATOM      2  C   UNL     1     -35.031  25.297   4.393  0.00  0.00    +0.096 C 
ENDROOT
BRANCH   2   6
ATOM      3  C   UNL     1     -32.192  28.084   5.966  0.00  0.00    -0.022 C 
ATOM      4  C   UNL     1     -32.803  27.159   6.812  0.00  0.00    -0.004 C 
ATOM      5  C   UNL     1     -32.506  28.100   4.607  0.00  0.00    -0.004 C 
ATOM      6  C   UNL     1     -34.043  26.267   4.940  0.00  0.00    +0.016 C 
ATOM      7  C   UNL     1     -33.729  26.251   6.299  0.00  0.00    +0.001 C 
ATOM      8  C   UNL     1     -33.432  27.192   4.094  0.00  0.00    +0.001 C 
BRANCH   3   9
ATOM      9  C   UNL     1     -31.201  29.055   6.513  0.00  0.00    +0.038 C 
BRANCH   9  10
ATOM     10  C   UNL     1     -29.800  28.915   5.907  0.00  0.00    +0.114 C 
BRANCH  10  12
ATOM     11  O   UNL     1     -28.500  26.958   6.471  0.00  0.00    -0.250 OA
ATOM     12  C   UNL     1     -28.897  28.076   6.778  0.00  0.00    +0.314 C 
BRANCH  12  13
ATOM     13  O   UNL     1     -28.545  28.700   7.930  0.00  0.00    -0.480 OA
ATOM     14  H   UNL     1     -29.104  29.357   8.296  0.00  0.00    +0.295 HD
ENDBRANCH  12  13
ENDBRANCH  10  12
ENDBRANCH   9  10
ENDBRANCH   3   9
ENDBRANCH   2   6
BRANCH   1  15
ATOM     15  N   UNL     1     -35.574  23.449   3.178  0.00  0.00    -0.218 N 
ATOM     16  H   UNL     1     -36.185  23.751   2.467  0.00  0.00    +0.176 HD
BRANCH  15  18
ATOM     17  S   UNL     1     -35.343  20.865   2.662  0.00  0.00    -0.017 S 
ATOM     18  C   UNL     1     -35.686  22.162   3.671  0.00  0.00    +0.151 C 
BRANCH  18  19
ATOM     19  N   UNL     1     -36.084  22.074   4.995  0.00  0.00    -0.313 N 
ATOM     20  C   UNL     1     -35.224  21.832   6.138  0.00  0.00    +0.110 C 
ATOM     21  H   UNL     1     -37.045  22.187   5.178  0.00  0.00    +0.149 HD
ENDBRANCH  18  19
ENDBRANCH  15  18
ENDBRANCH   1  15
BRANCH   2  22
ATOM     22  C   UNL     1     -36.480  25.511   4.705  0.00  0.00    +0.158 C 
BRANCH  22  23
ATOM     23  N   UNL     1     -37.303  25.601   3.720  0.00  0.00    -0.126 NA
BRANCH  23  24
ATOM     24  N   UNL     1     -38.499  25.016   3.967  0.00  0.00    -0.244 N 
ATOM     25  H   UNL     1     -38.785  24.872   4.898  0.00  0.00    +0.170 HD
BRANCH  24  27
ATOM     26  S   UNL     1     -39.166  23.068   2.306  0.00  0.00    -0.018 S 
ATOM     27  C   UNL     1     -39.326  24.617   2.933  0.00  0.00    +0.146 C 
BRANCH  27  28
ATOM     28  N   UNL     1     -40.235  25.571   2.508  0.00  0.00    -0.314 N 
ATOM     29  C   UNL     1     -40.054  26.504   1.413  0.00  0.00    +0.110 C 
ATOM     30  H   UNL     1     -41.087  25.622   2.998  0.00  0.00    +0.149 HD
ENDBRANCH  27  28
ENDBRANCH  24  27
ENDBRANCH  23  24
ENDBRANCH  22  23
ENDBRANCH   2  22
TORSDOF 13
ENDMDL
MODEL 3
REMARK VINA RESULT:      -5.8      5.199      7.500
REMARK  Name = 57356914
REMARK  13 active torsions:
REMARK  status: ('A' for Active; 'I' for Inactive)
REMARK    1  A    between atoms: N_1  and  N_15
REMARK    2  A    between atoms: C_2  and  C_6
REMARK    3  A    between atoms: C_2  and  C_23
REMARK    4  A    between atoms: C_3  and  C_9
REMARK    5  A    between atoms: C_9  and  C_10
REMARK    6  A    between atoms: C_10  and  C_12
REMARK    7  A    between atoms: C_12  and  O_13
REMARK    8  A    between atoms: N_15  and  C_18
REMARK    9  A    between atoms: C_18  and  N_19
REMARK   10  A    between atoms: N_22  and  C_23
REMARK   11  A    between atoms: N_22  and  N_24
REMARK   12  A    between atoms: N_24  and  C_27
REMARK   13  A    between atoms: C_27  and  N_28
REMARK                            x       y       z     vdW  Elec       q    Type
REMARK                         _______ _______ _______ _____ _____    ______ ____
ROOT
ATOM      1  N   UNL     1     -31.390  28.351   6.359  0.00  0.00    -0.183 NA
ATOM      2  C   UNL     1     -32.034  28.279   5.233  0.00  0.00    +0.096 C 
ENDROOT
BRANCH   2   6
ATOM      3  C   UNL     1     -34.931  25.198   4.590  0.00  0.00    -0.022 C 
ATOM      4  C   UNL     1     -34.569  25.554   5.888  0.00  0.00    -0.004 C 
ATOM      5  C   UNL     1     -34.348  25.846   3.500  0.00  0.00    -0.004 C 
ATOM      6  C   UNL     1     -33.042  27.207   5.009  0.00  0.00    +0.016 C 
ATOM      7  C   UNL     1     -33.625  26.559   6.099  0.00  0.00    +0.001 C 
ATOM      8  C   UNL     1     -33.403  26.849   3.710  0.00  0.00    +0.001 C 
BRANCH   3   9
ATOM      9  C   UNL     1     -35.941  24.124   4.364  0.00  0.00    +0.038 C 
BRANCH   9  10
ATOM     10  C   UNL     1     -35.332  22.724   4.224  0.00  0.00    +0.114 C 
BRANCH  10  12
ATOM     11  O   UNL     1     -35.997  22.353   6.517  0.00  0.00    -0.250 OA
ATOM     12  C   UNL     1     -35.508  21.911   5.484  0.00  0.00    +0.314 C 
BRANCH  12  13
ATOM     13  O   UNL     1     -35.094  20.627   5.347  0.00  0.00    -0.480 OA
ATOM     14  H   UNL     1     -35.262  20.005   6.028  0.00  0.00    +0.295 HD
ENDBRANCH  12  13
ENDBRANCH  10  12
ENDBRANCH   9  10
ENDBRANCH   3   9
ENDBRANCH   2   6
BRANCH   1  15
ATOM     15  N   UNL     1     -30.488  29.349   6.519  0.00  0.00    -0.218 N 
ATOM     16  H   UNL     1     -30.786  30.286   6.460  0.00  0.00    +0.176 HD
BRANCH  15  18
ATOM     17  S   UNL     1     -28.000  30.241   6.427  0.00  0.00    -0.017 S 
ATOM     18  C   UNL     1     -29.157  29.071   6.763  0.00  0.00    +0.151 C 
BRANCH  18  19
ATOM     19  N   UNL     1     -28.905  27.811   7.277  0.00  0.00    -0.313 N 
ATOM     20  C   UNL     1     -27.691  27.037   7.105  0.00  0.00    +0.110 C 
ATOM     21  H   UNL     1     -29.622  27.399   7.813  0.00  0.00    +0.149 HD
ENDBRANCH  18  19
ENDBRANCH  15  18
ENDBRANCH   1  15
BRANCH   2  22
ATOM     22  C   UNL     1     -31.795  29.267   4.133  0.00  0.00    +0.158 C 
BRANCH  22  23
ATOM     23  N   UNL     1     -32.171  30.483   4.322  0.00  0.00    -0.126 NA
BRANCH  23  24
ATOM     24  N   UNL     1     -33.517  30.624   4.386  0.00  0.00    -0.244 N 
ATOM     25  H   UNL     1     -33.961  30.634   5.264  0.00  0.00    +0.170 HD
BRANCH  24  27
ATOM     26  S   UNL     1     -33.934  31.996   2.164  0.00  0.00    -0.018 S 
ATOM     27  C   UNL     1     -34.276  30.752   3.238  0.00  0.00    +0.146 C 
BRANCH  27  28
ATOM     28  N   UNL     1     -35.276  29.807   3.088  0.00  0.00    -0.314 N 
ATOM     29  C   UNL     1     -35.800  29.299   1.835  0.00  0.00    +0.110 C 
ATOM     30  H   UNL     1     -35.670  29.444   3.914  0.00  0.00    +0.149 HD
ENDBRANCH  27  28
ENDBRANCH  24  27
ENDBRANCH  23  24
ENDBRANCH  22  23
ENDBRANCH   2  22
TORSDOF 13
ENDMDL
MODEL 4
REMARK VINA RESULT:      -5.7      4.864      7.462
REMARK  Name = 57356914
REMARK  13 active torsions:
REMARK  status: ('A' for Active; 'I' for Inactive)
REMARK    1  A    between atoms: N_1  and  N_15
REMARK    2  A    between atoms: C_2  and  C_6
REMARK    3  A    between atoms: C_2  and  C_23
REMARK    4  A    between atoms: C_3  and  C_9
REMARK    5  A    between atoms: C_9  and  C_10
REMARK    6  A    between atoms: C_10  and  C_12
REMARK    7  A    between atoms: C_12  and  O_13
REMARK    8  A    between atoms: N_15  and  C_18
REMARK    9  A    between atoms: C_18  and  N_19
REMARK   10  A    between atoms: N_22  and  C_23
REMARK   11  A    between atoms: N_22  and  N_24
REMARK   12  A    between atoms: N_24  and  C_27
REMARK   13  A    between atoms: C_27  and  N_28
REMARK                            x       y       z     vdW  Elec       q    Type
REMARK                         _______ _______ _______ _____ _____    ______ ____
ROOT
ATOM      1  N   UNL     1     -32.672  27.745   5.950  0.00  0.00    -0.183 NA
ATOM      2  C   UNL     1     -33.156  27.427   4.787  0.00  0.00    +0.096 C 
ENDROOT
BRANCH   2   6
ATOM      3  C   UNL     1     -35.061  23.643   4.193  0.00  0.00    -0.022 C 
ATOM      4  C   UNL     1     -34.447  24.291   3.121  0.00  0.00    -0.004 C 
ATOM      5  C   UNL     1     -35.054  24.230   5.459  0.00  0.00    -0.004 C 
ATOM      6  C   UNL     1     -33.819  26.111   4.580  0.00  0.00    +0.016 C 
ATOM      7  C   UNL     1     -33.826  25.524   3.315  0.00  0.00    +0.001 C 
ATOM      8  C   UNL     1     -34.434  25.464   5.652  0.00  0.00    +0.001 C 
BRANCH   3   9
ATOM      9  C   UNL     1     -35.725  22.324   3.987  0.00  0.00    +0.038 C 
BRANCH   9  10
ATOM     10  C   UNL     1     -35.829  21.909   2.514  0.00  0.00    +0.114 C 
BRANCH  10  12
ATOM     11  O   UNL     1     -34.573  19.897   2.059  0.00  0.00    -0.250 OA
ATOM     12  C   UNL     1     -35.644  20.422   2.339  0.00  0.00    +0.314 C 
BRANCH  12  13
ATOM     13  O   UNL     1     -36.784  19.718   2.554  0.00  0.00    -0.480 OA
ATOM     14  H   UNL     1     -37.549  20.154   2.876  0.00  0.00    +0.295 HD
ENDBRANCH  12  13
ENDBRANCH  10  12
ENDBRANCH   9  10
ENDBRANCH   3   9
ENDBRANCH   2   6
BRANCH   1  15
ATOM     15  N   UNL     1     -32.085  28.957   6.091  0.00  0.00    -0.218 N 
ATOM     16  H   UNL     1     -32.641  29.746   6.287  0.00  0.00    +0.176 HD
BRANCH  15  18
ATOM     17  S   UNL     1     -30.108  30.418   5.116  0.00  0.00    -0.017 S 
ATOM     18  C   UNL     1     -30.717  29.103   5.964  0.00  0.00    +0.151 C 
BRANCH  18  19
ATOM     19  N   UNL     1     -29.962  28.114   6.572  0.00  0.00    -0.313 N 
ATOM     20  C   UNL     1     -28.542  28.169   6.861  0.00  0.00    +0.110 C 
ATOM     21  H   UNL     1     -30.437  27.291   6.833  0.00  0.00    +0.149 HD
ENDBRANCH  18  19
ENDBRANCH  15  18
ENDBRANCH   1  15
BRANCH   2  22
ATOM     22  C   UNL     1     -33.073  28.368   3.625  0.00  0.00    +0.158 C 
BRANCH  22  23
ATOM     23  N   UNL     1     -33.861  29.385   3.614  0.00  0.00    -0.126 NA
BRANCH  23  24
ATOM     24  N   UNL     1     -35.143  29.066   3.317  0.00  0.00    -0.244 N 
ATOM     25  H   UNL     1     -35.751  28.781   4.037  0.00  0.00    +0.170 HD
BRANCH  24  27
ATOM     26  S   UNL     1     -36.139  27.728   1.265  0.00  0.00    -0.018 S 
ATOM     27  C   UNL     1     -35.614  29.132   2.019  0.00  0.00    +0.146 C 
BRANCH  27  28
ATOM     28  N   UNL     1     -35.603  30.397   1.456  0.00  0.00    -0.314 N 
ATOM     29  C   UNL     1     -36.259  31.579   1.982  0.00  0.00    +0.110 C 
ATOM     30  H   UNL     1     -35.101  30.505   0.617  0.00  0.00    +0.149 HD
ENDBRANCH  27  28
ENDBRANCH  24  27
ENDBRANCH  23  24
ENDBRANCH  22  23
ENDBRANCH   2  22
TORSDOF 13
ENDMDL
MODEL 5
REMARK VINA RESULT:      -5.7      5.361      8.697
REMARK  Name = 57356914
REMARK  13 active torsions:
REMARK  status: ('A' for Active; 'I' for Inactive)
REMARK    1  A    between atoms: N_1  and  N_15
REMARK    2  A    between atoms: C_2  and  C_6
REMARK    3  A    between atoms: C_2  and  C_23
REMARK    4  A    between atoms: C_3  and  C_9
REMARK    5  A    between atoms: C_9  and  C_10
REMARK    6  A    between atoms: C_10  and  C_12
REMARK    7  A    between atoms: C_12  and  O_13
REMARK    8  A    between atoms: N_15  and  C_18
REMARK    9  A    between atoms: C_18  and  N_19
REMARK   10  A    between atoms: N_22  and  C_23
REMARK   11  A    between atoms: N_22  and  N_24
REMARK   12  A    between atoms: N_24  and  C_27
REMARK   13  A    between atoms: C_27  and  N_28
REMARK                            x       y       z     vdW  Elec       q    Type
REMARK                         _______ _______ _______ _____ _____    ______ ____
ROOT
ATOM      1  N   UNL     1     -33.604  28.529   3.861  0.00  0.00    -0.183 NA
ATOM      2  C   UNL     1     -33.289  27.600   4.713  0.00  0.00    +0.096 C 
ENDROOT
BRANCH   2   6
ATOM      3  C   UNL     1     -34.971  23.682   4.368  0.00  0.00    -0.022 C 
ATOM      4  C   UNL     1     -34.386  24.290   3.258  0.00  0.00    -0.004 C 
ATOM      5  C   UNL     1     -35.007  24.352   5.591  0.00  0.00    -0.004 C 
ATOM      6  C   UNL     1     -33.874  26.237   4.593  0.00  0.00    +0.016 C 
ATOM      7  C   UNL     1     -33.837  25.567   3.370  0.00  0.00    +0.001 C 
ATOM      8  C   UNL     1     -34.460  25.629   5.704  0.00  0.00    +0.001 C 
BRANCH   3   9
ATOM      9  C   UNL     1     -35.557  22.316   4.249  0.00  0.00    +0.038 C 
BRANCH   9  10
ATOM     10  C   UNL     1     -36.010  21.961   2.828  0.00  0.00    +0.114 C 
BRANCH  10  12
ATOM     11  O   UNL     1     -34.640  20.069   2.211  0.00  0.00    -0.250 OA
ATOM     12  C   UNL     1     -35.745  20.511   2.505  0.00  0.00    +0.314 C 
BRANCH  12  13
ATOM     13  O   UNL     1     -36.854  19.736   2.601  0.00  0.00    -0.480 OA
ATOM     14  H   UNL     1     -36.838  18.854   2.283  0.00  0.00    +0.295 HD
ENDBRANCH  12  13
ENDBRANCH  10  12
ENDBRANCH   9  10
ENDBRANCH   3   9
ENDBRANCH   2   6
BRANCH   1  15
ATOM     15  N   UNL     1     -33.039  29.751   4.006  0.00  0.00    -0.218 N 
ATOM     16  H   UNL     1     -32.202  29.842   4.517  0.00  0.00    +0.176 HD
BRANCH  15  18
ATOM     17  S   UNL     1     -32.643  32.041   2.744  0.00  0.00    -0.017 S 
ATOM     18  C   UNL     1     -33.622  30.874   3.449  0.00  0.00    +0.151 C 
BRANCH  18  19
ATOM     19  N   UNL     1     -35.004  30.920   3.532  0.00  0.00    -0.313 N 
ATOM     20  C   UNL     1     -35.924  31.175   2.441  0.00  0.00    +0.110 C 
ATOM     21  H   UNL     1     -35.400  30.765   4.420  0.00  0.00    +0.149 HD
ENDBRANCH  18  19
ENDBRANCH  15  18
ENDBRANCH   1  15
BRANCH   2  22
ATOM     22  C   UNL     1     -32.328  27.862   5.832  0.00  0.00    +0.158 C 
BRANCH  22  23
ATOM     23  N   UNL     1     -31.070  27.752   5.585  0.00  0.00    -0.126 NA
BRANCH  23  24
ATOM     24  N   UNL     1     -30.347  28.819   6.001  0.00  0.00    -0.244 N 
ATOM     25  H   UNL     1     -30.692  29.728   5.845  0.00  0.00    +0.170 HD
BRANCH  24  27
ATOM     26  S   UNL     1     -28.087  29.961   6.764  0.00  0.00    -0.018 S 
ATOM     27  C   UNL     1     -29.133  28.654   6.641  0.00  0.00    +0.146 C 
BRANCH  27  28
ATOM     28  N   UNL     1     -28.899  27.382   7.134  0.00  0.00    -0.314 N 
ATOM     29  C   UNL     1     -27.668  26.625   7.012  0.00  0.00    +0.110 C 
ATOM     30  H   UNL     1     -29.641  26.948   7.613  0.00  0.00    +0.149 HD
ENDBRANCH  27  28
ENDBRANCH  24  27
ENDBRANCH  23  24
ENDBRANCH  22  23
ENDBRANCH   2  22
TORSDOF 13
ENDMDL
MODEL 6
REMARK VINA RESULT:      -5.7      1.542      3.504
REMARK  Name = 57356914
REMARK  13 active torsions:
REMARK  status: ('A' for Active; 'I' for Inactive)
REMARK    1  A    between atoms: N_1  and  N_15
REMARK    2  A    between atoms: C_2  and  C_6
REMARK    3  A    between atoms: C_2  and  C_23
REMARK    4  A    between atoms: C_3  and  C_9
REMARK    5  A    between atoms: C_9  and  C_10
REMARK    6  A    between atoms: C_10  and  C_12
REMARK    7  A    between atoms: C_12  and  O_13
REMARK    8  A    between atoms: N_15  and  C_18
REMARK    9  A    between atoms: C_18  and  N_19
REMARK   10  A    between atoms: N_22  and  C_23
REMARK   11  A    between atoms: N_22  and  N_24
REMARK   12  A    between atoms: N_24  and  C_27
REMARK   13  A    between atoms: C_27  and  N_28
REMARK                            x       y       z     vdW  Elec       q    Type
REMARK                         _______ _______ _______ _____ _____    ______ ____
ROOT
ATOM      1  N   UNL     1     -36.363  25.840   4.789  0.00  0.00    -0.183 NA
ATOM      2  C   UNL     1     -35.164  25.396   5.018  0.00  0.00    +0.096 C 
ENDROOT
BRANCH   2   6
ATOM      3  C   UNL     1     -31.951  28.117   5.772  0.00  0.00    -0.022 C 
ATOM      4  C   UNL     1     -32.480  27.356   6.815  0.00  0.00    -0.004 C 
ATOM      5  C   UNL     1     -32.470  27.991   4.484  0.00  0.00    -0.004 C 
ATOM      6  C   UNL     1     -34.046  26.343   5.280  0.00  0.00    +0.016 C 
ATOM      7  C   UNL     1     -33.527  26.469   6.569  0.00  0.00    +0.001 C 
ATOM      8  C   UNL     1     -33.518  27.105   4.238  0.00  0.00    +0.001 C 
BRANCH   3   9
ATOM      9  C   UNL     1     -30.830  29.066   6.034  0.00  0.00    +0.038 C 
BRANCH   9  10
ATOM     10  C   UNL     1     -29.561  28.389   6.564  0.00  0.00    +0.114 C 
BRANCH  10  12
ATOM     11  O   UNL     1     -28.182  30.367   6.712  0.00  0.00    -0.250 OA
ATOM     12  C   UNL     1     -28.651  29.375   7.256  0.00  0.00    +0.314 C 
BRANCH  12  13
ATOM     13  O   UNL     1     -28.428  29.064   8.558  0.00  0.00    -0.480 OA
ATOM     14  H   UNL     1     -28.009  28.256   8.781  0.00  0.00    +0.295 HD
ENDBRANCH  12  13
ENDBRANCH  10  12
ENDBRANCH   9  10
ENDBRANCH   3   9
ENDBRANCH   2   6
BRANCH   1  15
ATOM     15  N   UNL     1     -37.349  24.940   4.564  0.00  0.00    -0.218 N 
ATOM     16  H   UNL     1     -37.465  24.182   5.181  0.00  0.00    +0.176 HD
BRANCH  15  18
ATOM     17  S   UNL     1     -37.537  25.290   1.949  0.00  0.00    -0.017 S 
ATOM     18  C   UNL     1     -38.195  25.070   3.478  0.00  0.00    +0.151 C 
BRANCH  18  19
ATOM     19  N   UNL     1     -39.545  25.001   3.775  0.00  0.00    -0.313 N 
ATOM     20  C   UNL     1     -40.607  25.754   3.136  0.00  0.00    +0.110 C 
ATOM     21  H   UNL     1     -39.811  24.379   4.491  0.00  0.00    +0.149 HD
ENDBRANCH  18  19
ENDBRANCH  15  18
ENDBRANCH   1  15
BRANCH   2  22
ATOM     22  C   UNL     1     -34.867  23.928   5.033  0.00  0.00    +0.158 C 
BRANCH  22  23
ATOM     23  N   UNL     1     -34.979  23.278   3.928  0.00  0.00    -0.126 NA
BRANCH  23  24
ATOM     24  N   UNL     1     -35.634  22.101   4.064  0.00  0.00    -0.244 N 
ATOM     25  H   UNL     1     -35.754  21.713   4.961  0.00  0.00    +0.170 HD
BRANCH  24  27
ATOM     26  S   UNL     1     -35.118  20.444   2.067  0.00  0.00    -0.018 S 
ATOM     27  C   UNL     1     -36.137  21.433   2.963  0.00  0.00    +0.146 C 
BRANCH  27  28
ATOM     28  N   UNL     1     -37.479  21.655   2.706  0.00  0.00    -0.314 N 
ATOM     29  C   UNL     1     -38.174  21.380   1.463  0.00  0.00    +0.110 C 
ATOM     30  H   UNL     1     -38.014  22.038   3.438  0.00  0.00    +0.149 HD
ENDBRANCH  27  28
ENDBRANCH  24  27
ENDBRANCH  23  24
ENDBRANCH  22  23
ENDBRANCH   2  22
TORSDOF 13
ENDMDL
MODEL 7
REMARK VINA RESULT:      -5.6      1.878      2.392
REMARK  Name = 57356914
REMARK  13 active torsions:
REMARK  status: ('A' for Active; 'I' for Inactive)
REMARK    1  A    between atoms: N_1  and  N_15
REMARK    2  A    between atoms: C_2  and  C_6
REMARK    3  A    between atoms: C_2  and  C_23
REMARK    4  A    between atoms: C_3  and  C_9
REMARK    5  A    between atoms: C_9  and  C_10
REMARK    6  A    between atoms: C_10  and  C_12
REMARK    7  A    between atoms: C_12  and  O_13
REMARK    8  A    between atoms: N_15  and  C_18
REMARK    9  A    between atoms: C_18  and  N_19
REMARK   10  A    between atoms: N_22  and  C_23
REMARK   11  A    between atoms: N_22  and  N_24
REMARK   12  A    between atoms: N_24  and  C_27
REMARK   13  A    between atoms: C_27  and  N_28
REMARK                            x       y       z     vdW  Elec       q    Type
REMARK                         _______ _______ _______ _____ _____    ______ ____
ROOT
ATOM      1  N   UNL     1     -34.620  24.341   3.700  0.00  0.00    -0.183 NA
ATOM      2  C   UNL     1     -35.006  25.394   4.355  0.00  0.00    +0.096 C 
ENDROOT
BRANCH   2   6
ATOM      3  C   UNL     1     -32.129  28.124   5.959  0.00  0.00    -0.022 C 
ATOM      4  C   UNL     1     -32.747  27.192   6.792  0.00  0.00    -0.004 C 
ATOM      5  C   UNL     1     -32.449  28.165   4.601  0.00  0.00    -0.004 C 
ATOM      6  C   UNL     1     -34.005  26.344   4.913  0.00  0.00    +0.016 C 
ATOM      7  C   UNL     1     -33.684  26.302   6.270  0.00  0.00    +0.001 C 
ATOM      8  C   UNL     1     -33.387  27.277   4.079  0.00  0.00    +0.001 C 
BRANCH   3   9
ATOM      9  C   UNL     1     -31.125  29.076   6.517  0.00  0.00    +0.038 C 
BRANCH   9  10
ATOM     10  C   UNL     1     -29.713  28.885   5.950  0.00  0.00    +0.114 C 
BRANCH  10  12
ATOM     11  O   UNL     1     -27.982  28.937   7.633  0.00  0.00    -0.250 OA
ATOM     12  C   UNL     1     -28.779  28.284   6.971  0.00  0.00    +0.314 C 
BRANCH  12  13
ATOM     13  O   UNL     1     -28.933  26.943   7.103  0.00  0.00    -0.480 OA
ATOM     14  H   UNL     1     -29.316  26.590   7.883  0.00  0.00    +0.295 HD
ENDBRANCH  12  13
ENDBRANCH  10  12
ENDBRANCH   9  10
ENDBRANCH   3   9
ENDBRANCH   2   6
BRANCH   1  15
ATOM     15  N   UNL     1     -35.568  23.511   3.204  0.00  0.00    -0.218 N 
ATOM     16  H   UNL     1     -36.148  23.819   2.471  0.00  0.00    +0.176 HD
BRANCH  15  18
ATOM     17  S   UNL     1     -35.462  20.914   2.715  0.00  0.00    -0.017 S 
ATOM     18  C   UNL     1     -35.732  22.236   3.713  0.00  0.00    +0.151 C 
BRANCH  18  19
ATOM     19  N   UNL     1     -36.117  22.181   5.042  0.00  0.00    -0.313 N 
ATOM     20  C   UNL     1     -35.270  21.843   6.170  0.00  0.00    +0.110 C 
ATOM     21  H   UNL     1     -37.058  22.391   5.241  0.00  0.00    +0.149 HD
ENDBRANCH  18  19
ENDBRANCH  15  18
ENDBRANCH   1  15
BRANCH   2  22
ATOM     22  C   UNL     1     -36.458  25.694   4.563  0.00  0.00    +0.158 C 
BRANCH  22  23
ATOM     23  N   UNL     1     -37.190  25.890   3.523  0.00  0.00    -0.126 NA
BRANCH  23  24
ATOM     24  N   UNL     1     -36.766  26.924   2.758  0.00  0.00    -0.244 N 
ATOM     25  H   UNL     1     -36.551  27.785   3.184  0.00  0.00    +0.170 HD
BRANCH  24  27
ATOM     26  S   UNL     1     -37.866  27.334   0.388  0.00  0.00    -0.018 S 
ATOM     27  C   UNL     1     -36.632  26.792   1.389  0.00  0.00    +0.146 C 
BRANCH  27  28
ATOM     28  N   UNL     1     -35.450  26.207   0.969  0.00  0.00    -0.314 N 
ATOM     29  C   UNL     1     -35.314  25.146  -0.010  0.00  0.00    +0.110 C 
ATOM     30  H   UNL     1     -34.619  26.544   1.376  0.00  0.00    +0.149 HD
ENDBRANCH  27  28
ENDBRANCH  24  27
ENDBRANCH  23  24
ENDBRANCH  22  23
ENDBRANCH   2  22
TORSDOF 13
ENDMDL
MODEL 8
REMARK VINA RESULT:      -5.6      6.184      8.901
REMARK  Name = 57356914
REMARK  13 active torsions:
REMARK  status: ('A' for Active; 'I' for Inactive)
REMARK    1  A    between atoms: N_1  and  N_15
REMARK    2  A    between atoms: C_2  and  C_6
REMARK    3  A    between atoms: C_2  and  C_23
REMARK    4  A    between atoms: C_3  and  C_9
REMARK    5  A    between atoms: C_9  and  C_10
REMARK    6  A    between atoms: C_10  and  C_12
REMARK    7  A    between atoms: C_12  and  O_13
REMARK    8  A    between atoms: N_15  and  C_18
REMARK    9  A    between atoms: C_18  and  N_19
REMARK   10  A    between atoms: N_22  and  C_23
REMARK   11  A    between atoms: N_22  and  N_24
REMARK   12  A    between atoms: N_24  and  C_27
REMARK   13  A    between atoms: C_27  and  N_28
REMARK                            x       y       z     vdW  Elec       q    Type
REMARK                         _______ _______ _______ _____ _____    ______ ____
ROOT
ATOM      1  N   UNL     1     -35.036  20.653   2.887  0.00  0.00    -0.183 NA
ATOM      2  C   UNL     1     -34.841  20.410   1.626  0.00  0.00    +0.096 C 
ENDROOT
BRANCH   2   6
ATOM      3  C   UNL     1     -31.144  18.726   0.288  0.00  0.00    -0.022 C 
ATOM      4  C   UNL     1     -31.965  18.006   1.156  0.00  0.00    -0.004 C 
ATOM      5  C   UNL     1     -31.529  19.996  -0.143  0.00  0.00    -0.004 C 
ATOM      6  C   UNL     1     -33.555  19.824   1.161  0.00  0.00    +0.016 C 
ATOM      7  C   UNL     1     -33.170  18.555   1.592  0.00  0.00    +0.001 C 
ATOM      8  C   UNL     1     -32.733  20.545   0.294  0.00  0.00    +0.001 C 
BRANCH   3   9
ATOM      9  C   UNL     1     -29.855  18.139  -0.180  0.00  0.00    +0.038 C 
BRANCH   9  10
ATOM     10  C   UNL     1     -29.133  17.308   0.887  0.00  0.00    +0.114 C 
BRANCH  10  12
ATOM     11  O   UNL     1     -27.714  15.527   0.081  0.00  0.00    -0.250 OA
ATOM     12  C   UNL     1     -28.833  15.912   0.398  0.00  0.00    +0.314 C 
BRANCH  12  13
ATOM     13  O   UNL     1     -29.929  15.114   0.371  0.00  0.00    -0.480 OA
ATOM     14  H   UNL     1     -30.180  14.690  -0.426  0.00  0.00    +0.295 HD
ENDBRANCH  12  13
ENDBRANCH  10  12
ENDBRANCH   9  10
ENDBRANCH   3   9
ENDBRANCH   2   6
BRANCH   1  15
ATOM     15  N   UNL     1     -36.225  21.179   3.264  0.00  0.00    -0.218 N 
ATOM     16  H   UNL     1     -37.049  20.654   3.140  0.00  0.00    +0.176 HD
BRANCH  15  18
ATOM     17  S   UNL     1     -36.405  23.777   2.805  0.00  0.00    -0.017 S 
ATOM     18  C   UNL     1     -36.300  22.443   3.818  0.00  0.00    +0.151 C 
BRANCH  18  19
ATOM     19  N   UNL     1     -36.280  22.478   5.202  0.00  0.00    -0.313 N 
ATOM     20  C   UNL     1     -35.148  22.169   6.055  0.00  0.00    +0.110 C 
ATOM     21  H   UNL     1     -37.117  22.738   5.651  0.00  0.00    +0.149 HD
ENDBRANCH  18  19
ENDBRANCH  15  18
ENDBRANCH   1  15
BRANCH   2  22
ATOM     22  C   UNL     1     -35.897  20.701   0.605  0.00  0.00    +0.158 C 
BRANCH  22  23
ATOM     23  N   UNL     1     -36.993  20.029   0.662  0.00  0.00    -0.126 NA
BRANCH  23  24
ATOM     24  N   UNL     1     -36.798  18.701   0.842  0.00  0.00    -0.244 N 
ATOM     25  H   UNL     1     -36.532  18.367   1.729  0.00  0.00    +0.170 HD
BRANCH  24  27
ATOM     26  S   UNL     1     -35.645  17.401  -1.152  0.00  0.00    -0.018 S 
ATOM     27  C   UNL     1     -36.966  17.807  -0.198  0.00  0.00    +0.146 C 
BRANCH  27  28
ATOM     28  N   UNL     1     -38.253  17.320  -0.351  0.00  0.00    -0.314 N 
ATOM     29  C   UNL     1     -39.133  17.552  -1.480  0.00  0.00    +0.110 C 
ATOM     30  H   UNL     1     -38.605  16.762   0.379  0.00  0.00    +0.149 HD
ENDBRANCH  27  28
ENDBRANCH  24  27
ENDBRANCH  23  24
ENDBRANCH  22  23
ENDBRANCH   2  22
TORSDOF 13
ENDMDL
MODEL 9
REMARK VINA RESULT:      -5.6      1.330      3.465
REMARK  Name = 57356914
REMARK  13 active torsions:
REMARK  status: ('A' for Active; 'I' for Inactive)
REMARK    1  A    between atoms: N_1  and  N_15
REMARK    2  A    between atoms: C_2  and  C_6
REMARK    3  A    between atoms: C_2  and  C_23
REMARK    4  A    between atoms: C_3  and  C_9
REMARK    5  A    between atoms: C_9  and  C_10
REMARK    6  A    between atoms: C_10  and  C_12
REMARK    7  A    between atoms: C_12  and  O_13
REMARK    8  A    between atoms: N_15  and  C_18
REMARK    9  A    between atoms: C_18  and  N_19
REMARK   10  A    between atoms: N_22  and  C_23
REMARK   11  A    between atoms: N_22  and  N_24
REMARK   12  A    between atoms: N_24  and  C_27
REMARK   13  A    between atoms: C_27  and  N_28
REMARK                            x       y       z     vdW  Elec       q    Type
REMARK                         _______ _______ _______ _____ _____    ______ ____
ROOT
ATOM      1  N   UNL     1     -35.270  26.707   2.938  0.00  0.00    -0.183 NA
ATOM      2  C   UNL     1     -34.635  26.184   3.943  0.00  0.00    +0.096 C 
ENDROOT
BRANCH   2   6
ATOM      3  C   UNL     1     -31.843  28.517   6.193  0.00  0.00    -0.022 C 
ATOM      4  C   UNL     1     -32.086  28.820   4.854  0.00  0.00    -0.004 C 
ATOM      5  C   UNL     1     -32.510  27.452   6.799  0.00  0.00    -0.004 C 
ATOM      6  C   UNL     1     -33.664  26.996   4.726  0.00  0.00    +0.016 C 
ATOM      7  C   UNL     1     -32.996  28.060   4.120  0.00  0.00    +0.001 C 
ATOM      8  C   UNL     1     -33.420  26.691   6.066  0.00  0.00    +0.001 C 
BRANCH   3   9
ATOM      9  C   UNL     1     -30.870  29.330   6.979  0.00  0.00    +0.038 C 
BRANCH   9  10
ATOM     10  C   UNL     1     -29.427  29.227   6.469  0.00  0.00    +0.114 C 
BRANCH  10  12
ATOM     11  O   UNL     1     -28.633  26.963   6.748  0.00  0.00    -0.250 OA
ATOM     12  C   UNL     1     -28.670  28.117   7.157  0.00  0.00    +0.314 C 
BRANCH  12  13
ATOM     13  O   UNL     1     -28.008  28.536   8.264  0.00  0.00    -0.480 OA
ATOM     14  H   UNL     1     -28.384  28.401   9.113  0.00  0.00    +0.295 HD
ENDBRANCH  12  13
ENDBRANCH  10  12
ENDBRANCH   9  10
ENDBRANCH   3   9
ENDBRANCH   2   6
BRANCH   1  15
ATOM     15  N   UNL     1     -36.150  25.932   2.262  0.00  0.00    -0.218 N 
ATOM     16  H   UNL     1     -35.839  25.098   1.841  0.00  0.00    +0.176 HD
BRANCH  15  18
ATOM     17  S   UNL     1     -38.036  26.939   0.705  0.00  0.00    -0.017 S 
ATOM     18  C   UNL     1     -37.479  26.295   2.152  0.00  0.00    +0.151 C 
BRANCH  18  19
ATOM     19  N   UNL     1     -38.241  26.083   3.289  0.00  0.00    -0.313 N 
ATOM     20  C   UNL     1     -39.475  25.325   3.369  0.00  0.00    +0.110 C 
ATOM     21  H   UNL     1     -37.913  26.487   4.125  0.00  0.00    +0.149 HD
ENDBRANCH  18  19
ENDBRANCH  15  18
ENDBRANCH   1  15
BRANCH   2  22
ATOM     22  C   UNL     1     -34.861  24.762   4.353  0.00  0.00    +0.158 C 
BRANCH  22  23
ATOM     23  N   UNL     1     -35.971  24.470   4.936  0.00  0.00    -0.126 NA
BRANCH  23  24
ATOM     24  N   UNL     1     -36.494  23.288   4.531  0.00  0.00    -0.244 N 
ATOM     25  H   UNL     1     -37.393  23.268   4.132  0.00  0.00    +0.170 HD
BRANCH  24  27
ATOM     26  S   UNL     1     -35.047  21.765   6.138  0.00  0.00    -0.018 S 
ATOM     27  C   UNL     1     -35.786  22.109   4.670  0.00  0.00    +0.146 C 
BRANCH  27  28
ATOM     28  N   UNL     1     -35.761  21.304   3.544  0.00  0.00    -0.314 N 
ATOM     29  C   UNL     1     -36.271  21.646   2.231  0.00  0.00    +0.110 C 
ATOM     30  H   UNL     1     -35.356  20.413   3.645  0.00  0.00    +0.149 HD
ENDBRANCH  27  28
ENDBRANCH  24  27
ENDBRANCH  23  24
ENDBRANCH  22  23
ENDBRANCH   2  22
TORSDOF 13
ENDMDL
