MODEL 1
REMARK VINA RESULT:      -6.9      0.000      0.000
REMARK  Name = 56599461
REMARK  4 active torsions:
REMARK  status: ('A' for Active; 'I' for Inactive)
REMARK    1  A    between atoms: C_7  and  C_27
REMARK    2  A    between atoms: C_8  and  O_23
REMARK    3  A    between atoms: C_13  and  O_25
REMARK    4  A    between atoms: C_27  and  O_28
REMARK                            x       y       z     vdW  Elec       q    Type
REMARK                         _______ _______ _______ _____ _____    ______ ____
ROOT
ATOM      1  O   UNL     1     -34.183  25.472   2.038  0.00  0.00    -0.450 OA
ATOM      2  O   UNL     1     -34.330  26.651   0.083  0.00  0.00    -0.250 OA
ATOM      3  O   UNL     1     -33.346  28.571   4.007  0.00  0.00    -0.293 OA
ATOM      4  C   UNL     1     -34.867  23.990   3.782  0.00  0.00    +0.044 C 
ATOM      5  C   UNL     1     -36.023  23.037   3.602  0.00  0.00    +0.006 C 
ATOM      6  C   UNL     1     -34.941  25.406   3.269  0.00  0.00    +0.189 C 
ATOM      7  C   UNL     1     -35.657  23.533   4.978  0.00  0.00    +0.033 C 
ATOM      8  C   UNL     1     -36.338  25.850   2.812  0.00  0.00    +0.134 C 
ATOM      9  C   UNL     1     -35.929  27.061   1.916  0.00  0.00    +0.122 C 
ATOM     10  C   UNL     1     -37.299  23.499   2.974  0.00  0.00    +0.003 C 
ATOM     11  C   UNL     1     -37.081  24.713   2.071  0.00  0.00    +0.031 C 
ATOM     12  C   UNL     1     -35.458  28.259   2.817  0.00  0.00    +0.073 C 
ATOM     13  C   UNL     1     -34.318  26.400   4.266  0.00  0.00    +0.207 C 
ATOM     14  C   UNL     1     -35.667  21.617   3.291  0.00  0.00    +0.000 C 
ATOM     15  C   UNL     1     -34.738  26.416   1.208  0.00  0.00    +0.319 C 
ATOM     16  C   UNL     1     -37.046  27.458   0.940  0.00  0.00    +0.013 C 
ATOM     17  C   UNL     1     -34.266  27.817   3.695  0.00  0.00    +0.181 C 
ATOM     18  C   UNL     1     -35.270  29.633   2.082  0.00  0.00    +0.007 C 
ATOM     19  C   UNL     1     -36.794  28.768   0.207  0.00  0.00    +0.001 C 
ATOM     20  C   UNL     1     -36.499  29.900   1.178  0.00  0.00    +0.000 C 
ATOM     21  C   UNL     1     -33.986  29.730   1.232  0.00  0.00    +0.000 C 
ATOM     22  C   UNL     1     -35.229  30.791   3.113  0.00  0.00    +0.000 C 
ENDROOT
BRANCH   8  23
ATOM     23  O   UNL     1     -37.139  26.255   3.917  0.00  0.00    -0.383 OA
ATOM     24  H   UNL     1     -36.863  25.772   4.711  0.00  0.00    +0.210 HD
ENDBRANCH   8  23
BRANCH  13  25
ATOM     25  O   UNL     1     -32.985  26.009   4.568  0.00  0.00    -0.374 OA
ATOM     26  H   UNL     1     -32.445  26.799   4.728  0.00  0.00    +0.211 HD
ENDBRANCH  13  25
BRANCH   7  27
ATOM     27  C   UNL     1     -35.142  22.633   6.033  0.00  0.00    +0.137 C 
BRANCH  27  28
ATOM     28  O   UNL     1     -36.209  21.861   6.576  0.00  0.00    -0.382 OA
ATOM     29  H   UNL     1     -36.644  21.366   5.864  0.00  0.00    +0.210 HD
ENDBRANCH  27  28
ENDBRANCH   7  27
TORSDOF 4
ENDMDL
MODEL 2
REMARK VINA RESULT:      -6.3      3.311      5.614
REMARK  Name = 56599461
REMARK  4 active torsions:
REMARK  status: ('A' for Active; 'I' for Inactive)
REMARK    1  A    between atoms: C_7  and  C_27
REMARK    2  A    between atoms: C_8  and  O_23
REMARK    3  A    between atoms: C_13  and  O_25
REMARK    4  A    between atoms: C_27  and  O_28
REMARK                            x       y       z     vdW  Elec       q    Type
REMARK                         _______ _______ _______ _____ _____    ______ ____
ROOT
ATOM      1  O   UNL     1     -37.091  22.165   2.972  0.00  0.00    -0.450 OA
ATOM      2  O   UNL     1     -37.044  24.108   4.179  0.00  0.00    -0.250 OA
ATOM      3  O   UNL     1     -40.440  23.013   1.472  0.00  0.00    -0.293 OA
ATOM      4  C   UNL     1     -36.322  20.484   1.459  0.00  0.00    +0.044 C 
ATOM      5  C   UNL     1     -34.876  20.403   1.035  0.00  0.00    +0.006 C 
ATOM      6  C   UNL     1     -37.025  21.812   1.569  0.00  0.00    +0.189 C 
ATOM      7  C   UNL     1     -35.962  19.880   0.129  0.00  0.00    +0.033 C 
ATOM      8  C   UNL     1     -36.252  22.999   0.975  0.00  0.00    +0.134 C 
ATOM      9  C   UNL     1     -36.983  24.163   1.713  0.00  0.00    +0.122 C 
ATOM     10  C   UNL     1     -34.128  21.636   0.644  0.00  0.00    +0.003 C 
ATOM     11  C   UNL     1     -34.736  22.892   1.267  0.00  0.00    +0.031 C 
ATOM     12  C   UNL     1     -38.425  24.352   1.118  0.00  0.00    +0.073 C 
ATOM     13  C   UNL     1     -38.465  21.736   1.029  0.00  0.00    +0.207 C 
ATOM     14  C   UNL     1     -34.040  19.374   1.731  0.00  0.00    +0.000 C 
ATOM     15  C   UNL     1     -37.050  23.532   3.103  0.00  0.00    +0.319 C 
ATOM     16  C   UNL     1     -36.162  25.460   1.697  0.00  0.00    +0.013 C 
ATOM     17  C   UNL     1     -39.228  23.040   1.263  0.00  0.00    +0.181 C 
ATOM     18  C   UNL     1     -39.185  25.650   1.568  0.00  0.00    +0.007 C 
ATOM     19  C   UNL     1     -36.921  26.682   2.197  0.00  0.00    +0.001 C 
ATOM     20  C   UNL     1     -38.232  26.865   1.450  0.00  0.00    +0.000 C 
ATOM     21  C   UNL     1     -39.752  25.590   3.001  0.00  0.00    +0.000 C 
ATOM     22  C   UNL     1     -40.373  25.934   0.613  0.00  0.00    +0.000 C 
ENDROOT
BRANCH   8  23
ATOM     23  O   UNL     1     -36.425  23.074  -0.436  0.00  0.00    -0.383 OA
ATOM     24  H   UNL     1     -37.142  23.693  -0.642  0.00  0.00    +0.210 HD
ENDBRANCH   8  23
BRANCH  13  25
ATOM     25  O   UNL     1     -39.174  20.698   1.694  0.00  0.00    -0.374 OA
ATOM     26  H   UNL     1     -39.112  19.881   1.174  0.00  0.00    +0.211 HD
ENDBRANCH  13  25
BRANCH   7  27
ATOM     27  C   UNL     1     -36.091  18.445  -0.208  0.00  0.00    +0.137 C 
BRANCH  27  28
ATOM     28  O   UNL     1     -37.181  17.875   0.511  0.00  0.00    -0.382 OA
ATOM     29  H   UNL     1     -37.196  16.916   0.367  0.00  0.00    +0.210 HD
ENDBRANCH  27  28
ENDBRANCH   7  27
TORSDOF 4
ENDMDL
MODEL 3
REMARK VINA RESULT:      -6.2      4.231      8.052
REMARK  Name = 56599461
REMARK  4 active torsions:
REMARK  status: ('A' for Active; 'I' for Inactive)
REMARK    1  A    between atoms: C_7  and  C_27
REMARK    2  A    between atoms: C_8  and  O_23
REMARK    3  A    between atoms: C_13  and  O_25
REMARK    4  A    between atoms: C_27  and  O_28
REMARK                            x       y       z     vdW  Elec       q    Type
REMARK                         _______ _______ _______ _____ _____    ______ ____
ROOT
ATOM      1  O   UNL     1     -35.422  22.064   0.149  0.00  0.00    -0.450 OA
ATOM      2  O   UNL     1     -33.316  21.295  -0.308  0.00  0.00    -0.250 OA
ATOM      3  O   UNL     1     -37.017  19.309  -1.862  0.00  0.00    -0.293 OA
ATOM      4  C   UNL     1     -37.269  22.792   1.478  0.00  0.00    +0.044 C 
ATOM      5  C   UNL     1     -37.095  23.188   2.923  0.00  0.00    +0.006 C 
ATOM      6  C   UNL     1     -36.557  21.590   0.911  0.00  0.00    +0.189 C 
ATOM      7  C   UNL     1     -38.421  22.659   2.436  0.00  0.00    +0.033 C 
ATOM      8  C   UNL     1     -35.888  20.688   1.959  0.00  0.00    +0.134 C 
ATOM      9  C   UNL     1     -34.883  19.938   1.031  0.00  0.00    +0.122 C 
ATOM     10  C   UNL     1     -36.270  22.353   3.847  0.00  0.00    +0.003 C 
ATOM     11  C   UNL     1     -35.236  21.520   3.090  0.00  0.00    +0.031 C 
ATOM     12  C   UNL     1     -35.653  18.910   0.127  0.00  0.00    +0.073 C 
ATOM     13  C   UNL     1     -37.468  20.790  -0.038  0.00  0.00    +0.207 C 
ATOM     14  C   UNL     1     -37.030  24.657   3.203  0.00  0.00    +0.000 C 
ATOM     15  C   UNL     1     -34.410  21.136   0.208  0.00  0.00    +0.319 C 
ATOM     16  C   UNL     1     -33.741  19.287   1.826  0.00  0.00    +0.013 C 
ATOM     17  C   UNL     1     -36.713  19.650  -0.720  0.00  0.00    +0.181 C 
ATOM     18  C   UNL     1     -34.758  17.893  -0.667  0.00  0.00    +0.007 C 
ATOM     19  C   UNL     1     -32.864  18.354   1.003  0.00  0.00    +0.001 C 
ATOM     20  C   UNL     1     -33.693  17.300   0.288  0.00  0.00    +0.000 C 
ATOM     21  C   UNL     1     -34.052  18.494  -1.900  0.00  0.00    +0.000 C 
ATOM     22  C   UNL     1     -35.614  16.699  -1.161  0.00  0.00    +0.000 C 
ENDROOT
BRANCH   8  23
ATOM     23  O   UNL     1     -36.828  19.799   2.552  0.00  0.00    -0.383 OA
ATOM     24  H   UNL     1     -36.502  19.516   3.420  0.00  0.00    +0.210 HD
ENDBRANCH   8  23
BRANCH  13  25
ATOM     25  O   UNL     1     -37.969  21.645  -1.057  0.00  0.00    -0.374 OA
ATOM     26  H   UNL     1     -38.223  21.113  -1.828  0.00  0.00    +0.211 HD
ENDBRANCH  13  25
BRANCH   7  27
ATOM     27  C   UNL     1     -39.643  23.492   2.404  0.00  0.00    +0.137 C 
BRANCH  27  28
ATOM     28  O   UNL     1     -40.562  22.968   1.449  0.00  0.00    -0.382 OA
ATOM     29  H   UNL     1     -40.525  21.999   1.463  0.00  0.00    +0.210 HD
ENDBRANCH  27  28
ENDBRANCH   7  27
TORSDOF 4
ENDMDL
MODEL 4
REMARK VINA RESULT:      -6.1      2.393      3.975
REMARK  Name = 56599461
REMARK  4 active torsions:
REMARK  status: ('A' for Active; 'I' for Inactive)
REMARK    1  A    between atoms: C_7  and  C_27
REMARK    2  A    between atoms: C_8  and  O_23
REMARK    3  A    between atoms: C_13  and  O_25
REMARK    4  A    between atoms: C_27  and  O_28
REMARK                            x       y       z     vdW  Elec       q    Type
REMARK                         _______ _______ _______ _____ _____    ______ ____
ROOT
ATOM      1  O   UNL     1     -32.607  25.853   3.129  0.00  0.00    -0.450 OA
ATOM      2  O   UNL     1     -30.640  26.900   2.612  0.00  0.00    -0.250 OA
ATOM      3  O   UNL     1     -32.419  26.968   6.722  0.00  0.00    -0.293 OA
ATOM      4  C   UNL     1     -34.918  25.276   2.947  0.00  0.00    +0.044 C 
ATOM      5  C   UNL     1     -35.714  25.585   1.703  0.00  0.00    +0.006 C 
ATOM      6  C   UNL     1     -33.939  26.275   3.509  0.00  0.00    +0.189 C 
ATOM      7  C   UNL     1     -36.406  25.480   3.039  0.00  0.00    +0.033 C 
ATOM      8  C   UNL     1     -34.023  27.676   2.887  0.00  0.00    +0.134 C 
ATOM      9  C   UNL     1     -32.616  28.211   3.295  0.00  0.00    +0.122 C 
ATOM     10  C   UNL     1     -35.603  26.919   1.040  0.00  0.00    +0.003 C 
ATOM     11  C   UNL     1     -34.276  27.605   1.361  0.00  0.00    +0.031 C 
ATOM     12  C   UNL     1     -32.585  28.515   4.836  0.00  0.00    +0.073 C 
ATOM     13  C   UNL     1     -34.002  26.324   5.047  0.00  0.00    +0.207 C 
ATOM     14  C   UNL     1     -35.927  24.446   0.755  0.00  0.00    +0.000 C 
ATOM     15  C   UNL     1     -31.804  26.957   2.974  0.00  0.00    +0.319 C 
ATOM     16  C   UNL     1     -32.189  29.418   2.446  0.00  0.00    +0.013 C 
ATOM     17  C   UNL     1     -32.920  27.232   5.630  0.00  0.00    +0.181 C 
ATOM     18  C   UNL     1     -31.331  29.307   5.352  0.00  0.00    +0.007 C 
ATOM     19  C   UNL     1     -30.936  30.121   2.949  0.00  0.00    +0.001 C 
ATOM     20  C   UNL     1     -31.068  30.511   4.412  0.00  0.00    +0.000 C 
ATOM     21  C   UNL     1     -30.046  28.463   5.463  0.00  0.00    +0.000 C 
ATOM     22  C   UNL     1     -31.615  29.904   6.755  0.00  0.00    +0.000 C 
ENDROOT
BRANCH   8  23
ATOM     23  O   UNL     1     -35.072  28.440   3.472  0.00  0.00    -0.383 OA
ATOM     24  H   UNL     1     -35.908  28.235   3.027  0.00  0.00    +0.210 HD
ENDBRANCH   8  23
BRANCH  13  25
ATOM     25  O   UNL     1     -33.803  25.021   5.578  0.00  0.00    -0.374 OA
ATOM     26  H   UNL     1     -34.540  24.448   5.314  0.00  0.00    +0.211 HD
ENDBRANCH  13  25
BRANCH   7  27
ATOM     27  C   UNL     1     -37.385  24.413   3.343  0.00  0.00    +0.137 C 
BRANCH  27  28
ATOM     28  O   UNL     1     -38.461  24.946   4.111  0.00  0.00    -0.382 OA
ATOM     29  H   UNL     1     -38.259  24.857   5.055  0.00  0.00    +0.210 HD
ENDBRANCH  27  28
ENDBRANCH   7  27
TORSDOF 4
ENDMDL
MODEL 5
REMARK VINA RESULT:      -6.1      2.167      5.501
REMARK  Name = 56599461
REMARK  4 active torsions:
REMARK  status: ('A' for Active; 'I' for Inactive)
REMARK    1  A    between atoms: C_7  and  C_27
REMARK    2  A    between atoms: C_8  and  O_23
REMARK    3  A    between atoms: C_13  and  O_25
REMARK    4  A    between atoms: C_27  and  O_28
REMARK                            x       y       z     vdW  Elec       q    Type
REMARK                         _______ _______ _______ _____ _____    ______ ____
ROOT
ATOM      1  O   UNL     1     -35.006  27.486   3.846  0.00  0.00    -0.450 OA
ATOM      2  O   UNL     1     -36.702  26.939   2.411  0.00  0.00    -0.250 OA
ATOM      3  O   UNL     1     -35.255  24.176   5.625  0.00  0.00    -0.293 OA
ATOM      4  C   UNL     1     -32.834  28.211   4.526  0.00  0.00    +0.044 C 
ATOM      5  C   UNL     1     -31.903  28.921   3.573  0.00  0.00    +0.006 C 
ATOM      6  C   UNL     1     -33.652  27.028   4.074  0.00  0.00    +0.189 C 
ATOM      7  C   UNL     1     -31.345  28.122   4.724  0.00  0.00    +0.033 C 
ATOM      8  C   UNL     1     -33.264  26.468   2.698  0.00  0.00    +0.134 C 
ATOM      9  C   UNL     1     -34.576  25.688   2.372  0.00  0.00    +0.122 C 
ATOM     10  C   UNL     1     -31.717  28.421   2.178  0.00  0.00    +0.003 C 
ATOM     11  C   UNL     1     -32.915  27.601   1.702  0.00  0.00    +0.031 C 
ATOM     12  C   UNL     1     -34.666  24.397   3.263  0.00  0.00    +0.073 C 
ATOM     13  C   UNL     1     -33.696  25.929   5.151  0.00  0.00    +0.207 C 
ATOM     14  C   UNL     1     -31.834  30.411   3.704  0.00  0.00    +0.000 C 
ATOM     15  C   UNL     1     -35.579  26.741   2.843  0.00  0.00    +0.319 C 
ATOM     16  C   UNL     1     -34.707  25.383   0.873  0.00  0.00    +0.013 C 
ATOM     17  C   UNL     1     -34.634  24.787   4.757  0.00  0.00    +0.181 C 
ATOM     18  C   UNL     1     -35.787  23.371   2.867  0.00  0.00    +0.007 C 
ATOM     19  C   UNL     1     -35.844  24.430   0.530  0.00  0.00    +0.001 C 
ATOM     20  C   UNL     1     -35.753  23.145   1.335  0.00  0.00    +0.000 C 
ATOM     21  C   UNL     1     -37.211  23.793   3.284  0.00  0.00    +0.000 C 
ATOM     22  C   UNL     1     -35.505  21.992   3.518  0.00  0.00    +0.000 C 
ENDROOT
BRANCH   8  23
ATOM     23  O   UNL     1     -32.140  25.600   2.791  0.00  0.00    -0.383 OA
ATOM     24  H   UNL     1     -32.049  25.100   1.965  0.00  0.00    +0.210 HD
ENDBRANCH   8  23
BRANCH  13  25
ATOM     25  O   UNL     1     -34.172  26.473   6.375  0.00  0.00    -0.374 OA
ATOM     26  H   UNL     1     -34.456  27.390   6.232  0.00  0.00    +0.211 HD
ENDBRANCH  13  25
BRANCH   7  27
ATOM     27  C   UNL     1     -30.606  28.751   5.841  0.00  0.00    +0.137 C 
BRANCH  27  28
ATOM     28  O   UNL     1     -30.156  27.750   6.750  0.00  0.00    -0.382 OA
ATOM     29  H   UNL     1     -30.751  26.986   6.709  0.00  0.00    +0.210 HD
ENDBRANCH  27  28
ENDBRANCH   7  27
TORSDOF 4
ENDMDL
MODEL 6
REMARK VINA RESULT:      -6.1      3.419      5.808
REMARK  Name = 56599461
REMARK  4 active torsions:
REMARK  status: ('A' for Active; 'I' for Inactive)
REMARK    1  A    between atoms: C_7  and  C_27
REMARK    2  A    between atoms: C_8  and  O_23
REMARK    3  A    between atoms: C_13  and  O_25
REMARK    4  A    between atoms: C_27  and  O_28
REMARK                            x       y       z     vdW  Elec       q    Type
REMARK                         _______ _______ _______ _____ _____    ______ ____
ROOT
ATOM      1  O   UNL     1     -39.188  23.921   3.312  0.00  0.00    -0.450 OA
ATOM      2  O   UNL     1     -40.619  25.706   3.329  0.00  0.00    -0.250 OA
ATOM      3  O   UNL     1     -41.127  22.215   0.570  0.00  0.00    -0.293 OA
ATOM      4  C   UNL     1     -37.104  22.760   3.192  0.00  0.00    +0.044 C 
ATOM      5  C   UNL     1     -35.789  23.475   3.376  0.00  0.00    +0.006 C 
ATOM      6  C   UNL     1     -38.218  23.377   2.385  0.00  0.00    +0.189 C 
ATOM      7  C   UNL     1     -35.858  22.217   2.546  0.00  0.00    +0.033 C 
ATOM      8  C   UNL     1     -37.812  24.619   1.578  0.00  0.00    +0.134 C 
ATOM      9  C   UNL     1     -39.227  25.234   1.346  0.00  0.00    +0.122 C 
ATOM     10  C   UNL     1     -35.533  24.783   2.700  0.00  0.00    +0.003 C 
ATOM     11  C   UNL     1     -36.833  25.517   2.372  0.00  0.00    +0.031 C 
ATOM     12  C   UNL     1     -40.019  24.376   0.294  0.00  0.00    +0.073 C 
ATOM     13  C   UNL     1     -38.929  22.329   1.510  0.00  0.00    +0.207 C 
ATOM     14  C   UNL     1     -35.149  23.347   4.723  0.00  0.00    +0.000 C 
ATOM     15  C   UNL     1     -39.790  25.021   2.751  0.00  0.00    +0.319 C 
ATOM     16  C   UNL     1     -39.154  26.719   0.963  0.00  0.00    +0.013 C 
ATOM     17  C   UNL     1     -40.144  22.920   0.794  0.00  0.00    +0.181 C 
ATOM     18  C   UNL     1     -41.350  25.012  -0.244  0.00  0.00    +0.007 C 
ATOM     19  C   UNL     1     -40.481  27.309   0.503  0.00  0.00    +0.001 C 
ATOM     20  C   UNL     1     -41.090  26.491  -0.624  0.00  0.00    +0.000 C 
ATOM     21  C   UNL     1     -42.532  24.944   0.745  0.00  0.00    +0.000 C 
ATOM     22  C   UNL     1     -41.795  24.299  -1.547  0.00  0.00    +0.000 C 
ENDROOT
BRANCH   8  23
ATOM     23  O   UNL     1     -37.184  24.257   0.353  0.00  0.00    -0.383 OA
ATOM     24  H   UNL     1     -37.354  24.942  -0.312  0.00  0.00    +0.210 HD
ENDBRANCH   8  23
BRANCH  13  25
ATOM     25  O   UNL     1     -39.388  21.256   2.321  0.00  0.00    -0.374 OA
ATOM     26  H   UNL     1     -40.078  20.765   1.847  0.00  0.00    +0.211 HD
ENDBRANCH  13  25
BRANCH   7  27
ATOM     27  C   UNL     1     -35.178  20.966   2.947  0.00  0.00    +0.137 C 
BRANCH  27  28
ATOM     28  O   UNL     1     -36.104  19.883   2.926  0.00  0.00    -0.382 OA
ATOM     29  H   UNL     1     -35.625  19.050   2.795  0.00  0.00    +0.210 HD
ENDBRANCH  27  28
ENDBRANCH   7  27
TORSDOF 4
ENDMDL
MODEL 7
REMARK VINA RESULT:      -6.0      3.458      5.871
REMARK  Name = 56599461
REMARK  4 active torsions:
REMARK  status: ('A' for Active; 'I' for Inactive)
REMARK    1  A    between atoms: C_7  and  C_27
REMARK    2  A    between atoms: C_8  and  O_23
REMARK    3  A    between atoms: C_13  and  O_25
REMARK    4  A    between atoms: C_27  and  O_28
REMARK                            x       y       z     vdW  Elec       q    Type
REMARK                         _______ _______ _______ _____ _____    ______ ____
ROOT
ATOM      1  O   UNL     1     -35.514  22.321   0.796  0.00  0.00    -0.450 OA
ATOM      2  O   UNL     1     -34.715  24.355   1.474  0.00  0.00    -0.250 OA
ATOM      3  O   UNL     1     -34.754  20.755   4.136  0.00  0.00    -0.293 OA
ATOM      4  C   UNL     1     -37.065  20.746  -0.108  0.00  0.00    +0.044 C 
ATOM      5  C   UNL     1     -38.266  21.188  -0.908  0.00  0.00    +0.006 C 
ATOM      6  C   UNL     1     -36.646  21.485   1.137  0.00  0.00    +0.189 C 
ATOM      7  C   UNL     1     -38.299  19.886  -0.147  0.00  0.00    +0.033 C 
ATOM      8  C   UNL     1     -37.666  22.515   1.645  0.00  0.00    +0.134 C 
ATOM      9  C   UNL     1     -36.719  23.380   2.533  0.00  0.00    +0.122 C 
ATOM     10  C   UNL     1     -39.112  22.328  -0.442  0.00  0.00    +0.003 C 
ATOM     11  C   UNL     1     -38.337  23.274   0.475  0.00  0.00    +0.031 C 
ATOM     12  C   UNL     1     -36.339  22.592   3.838  0.00  0.00    +0.073 C 
ATOM     13  C   UNL     1     -36.205  20.516   2.248  0.00  0.00    +0.207 C 
ATOM     14  C   UNL     1     -38.143  21.084  -2.396  0.00  0.00    +0.000 C 
ATOM     15  C   UNL     1     -35.528  23.451   1.577  0.00  0.00    +0.319 C 
ATOM     16  C   UNL     1     -37.314  24.764   2.831  0.00  0.00    +0.013 C 
ATOM     17  C   UNL     1     -35.651  21.260   3.463  0.00  0.00    +0.181 C 
ATOM     18  C   UNL     1     -35.613  23.425   4.953  0.00  0.00    +0.007 C 
ATOM     19  C   UNL     1     -36.545  25.561   3.876  0.00  0.00    +0.001 C 
ATOM     20  C   UNL     1     -36.364  24.764   5.158  0.00  0.00    +0.000 C 
ATOM     21  C   UNL     1     -34.127  23.718   4.662  0.00  0.00    +0.000 C 
ATOM     22  C   UNL     1     -35.680  22.676   6.309  0.00  0.00    +0.000 C 
ENDROOT
BRANCH   8  23
ATOM     23  O   UNL     1     -38.691  21.893   2.412  0.00  0.00    -0.383 OA
ATOM     24  H   UNL     1     -38.289  21.333   3.094  0.00  0.00    +0.210 HD
ENDBRANCH   8  23
BRANCH  13  25
ATOM     25  O   UNL     1     -35.179  19.661   1.762  0.00  0.00    -0.374 OA
ATOM     26  H   UNL     1     -34.573  20.171   1.202  0.00  0.00    +0.211 HD
ENDBRANCH  13  25
BRANCH   7  27
ATOM     27  C   UNL     1     -38.390  18.574  -0.826  0.00  0.00    +0.137 C 
BRANCH  27  28
ATOM     28  O   UNL     1     -37.818  17.561  -0.003  0.00  0.00    -0.382 OA
ATOM     29  H   UNL     1     -36.883  17.764   0.156  0.00  0.00    +0.210 HD
ENDBRANCH  27  28
ENDBRANCH   7  27
TORSDOF 4
ENDMDL
MODEL 8
REMARK VINA RESULT:      -5.9      3.845      5.537
REMARK  Name = 56599461
REMARK  4 active torsions:
REMARK  status: ('A' for Active; 'I' for Inactive)
REMARK    1  A    between atoms: C_7  and  C_27
REMARK    2  A    between atoms: C_8  and  O_23
REMARK    3  A    between atoms: C_13  and  O_25
REMARK    4  A    between atoms: C_27  and  O_28
REMARK                            x       y       z     vdW  Elec       q    Type
REMARK                         _______ _______ _______ _____ _____    ______ ____
ROOT
ATOM      1  O   UNL     1     -38.347  25.441   0.922  0.00  0.00    -0.450 OA
ATOM      2  O   UNL     1     -39.607  26.021  -0.898  0.00  0.00    -0.250 OA
ATOM      3  O   UNL     1     -40.855  26.928   3.306  0.00  0.00    -0.293 OA
ATOM      4  C   UNL     1     -37.103  24.024   2.388  0.00  0.00    +0.044 C 
ATOM      5  C   UNL     1     -36.620  22.663   1.951  0.00  0.00    +0.006 C 
ATOM      6  C   UNL     1     -38.482  24.513   2.024  0.00  0.00    +0.189 C 
ATOM      7  C   UNL     1     -36.884  22.942   3.409  0.00  0.00    +0.033 C 
ATOM      8  C   UNL     1     -39.406  23.440   1.431  0.00  0.00    +0.134 C 
ATOM      9  C   UNL     1     -40.446  24.371   0.733  0.00  0.00    +0.122 C 
ATOM     10  C   UNL     1     -37.528  21.737   1.208  0.00  0.00    +0.003 C 
ATOM     11  C   UNL     1     -38.638  22.492   0.478  0.00  0.00    +0.031 C 
ATOM     12  C   UNL     1     -41.357  25.059   1.812  0.00  0.00    +0.073 C 
ATOM     13  C   UNL     1     -39.144  25.258   3.197  0.00  0.00    +0.207 C 
ATOM     14  C   UNL     1     -35.183  22.571   1.543  0.00  0.00    +0.000 C 
ATOM     15  C   UNL     1     -39.467  25.378   0.129  0.00  0.00    +0.319 C 
ATOM     16  C   UNL     1     -41.258  23.628  -0.338  0.00  0.00    +0.013 C 
ATOM     17  C   UNL     1     -40.484  25.874   2.792  0.00  0.00    +0.181 C 
ATOM     18  C   UNL     1     -42.619  25.814   1.261  0.00  0.00    +0.007 C 
ATOM     19  C   UNL     1     -42.436  24.419  -0.887  0.00  0.00    +0.001 C 
ATOM     20  C   UNL     1     -43.342  24.911   0.230  0.00  0.00    +0.000 C 
ATOM     21  C   UNL     1     -42.310  27.178   0.609  0.00  0.00    +0.000 C 
ATOM     22  C   UNL     1     -43.634  26.068   2.405  0.00  0.00    +0.000 C 
ENDROOT
BRANCH   8  23
ATOM     23  O   UNL     1     -40.004  22.649   2.452  0.00  0.00    -0.383 OA
ATOM     24  H   UNL     1     -40.857  22.310   2.141  0.00  0.00    +0.210 HD
ENDBRANCH   8  23
BRANCH  13  25
ATOM     25  O   UNL     1     -38.300  26.315   3.634  0.00  0.00    -0.374 OA
ATOM     26  H   UNL     1     -38.759  26.835   4.312  0.00  0.00    +0.211 HD
ENDBRANCH  13  25
BRANCH   7  27
ATOM     27  C   UNL     1     -35.807  22.945   4.423  0.00  0.00    +0.137 C 
BRANCH  27  28
ATOM     28  O   UNL     1     -36.262  22.317   5.618  0.00  0.00    -0.382 OA
ATOM     29  H   UNL     1     -35.650  22.519   6.343  0.00  0.00    +0.210 HD
ENDBRANCH  27  28
ENDBRANCH   7  27
TORSDOF 4
ENDMDL
MODEL 9
REMARK VINA RESULT:      -5.9      3.076      6.062
REMARK  Name = 56599461
REMARK  4 active torsions:
REMARK  status: ('A' for Active; 'I' for Inactive)
REMARK    1  A    between atoms: C_7  and  C_27
REMARK    2  A    between atoms: C_8  and  O_23
REMARK    3  A    between atoms: C_13  and  O_25
REMARK    4  A    between atoms: C_27  and  O_28
REMARK                            x       y       z     vdW  Elec       q    Type
REMARK                         _______ _______ _______ _____ _____    ______ ____
ROOT
ATOM      1  O   UNL     1     -34.680  23.227   1.560  0.00  0.00    -0.450 OA
ATOM      2  O   UNL     1     -34.029  21.447   0.279  0.00  0.00    -0.250 OA
ATOM      3  O   UNL     1     -37.484  24.082  -0.804  0.00  0.00    -0.293 OA
ATOM      4  C   UNL     1     -35.359  24.406   3.524  0.00  0.00    +0.044 C 
ATOM      5  C   UNL     1     -35.175  23.820   4.902  0.00  0.00    +0.006 C 
ATOM      6  C   UNL     1     -35.832  23.554   2.374  0.00  0.00    +0.189 C 
ATOM      7  C   UNL     1     -36.277  24.816   4.643  0.00  0.00    +0.033 C 
ATOM      8  C   UNL     1     -36.348  22.165   2.775  0.00  0.00    +0.134 C 
ATOM      9  C   UNL     1     -36.231  21.451   1.393  0.00  0.00    +0.122 C 
ATOM     10  C   UNL     1     -35.528  22.394   5.175  0.00  0.00    +0.003 C 
ATOM     11  C   UNL     1     -35.489  21.545   3.904  0.00  0.00    +0.031 C 
ATOM     12  C   UNL     1     -37.351  21.973   0.424  0.00  0.00    +0.073 C 
ATOM     13  C   UNL     1     -36.841  24.309   1.490  0.00  0.00    +0.207 C 
ATOM     14  C   UNL     1     -33.998  24.319   5.681  0.00  0.00    +0.000 C 
ATOM     15  C   UNL     1     -34.863  21.995   0.982  0.00  0.00    +0.319 C 
ATOM     16  C   UNL     1     -36.235  19.921   1.533  0.00  0.00    +0.013 C 
ATOM     17  C   UNL     1     -37.221  23.502   0.248  0.00  0.00    +0.181 C 
ATOM     18  C   UNL     1     -37.534  21.163  -0.909  0.00  0.00    +0.007 C 
ATOM     19  C   UNL     1     -36.355  19.176   0.210  0.00  0.00    +0.001 C 
ATOM     20  C   UNL     1     -37.561  19.649  -0.585  0.00  0.00    +0.000 C 
ATOM     21  C   UNL     1     -36.449  21.433  -1.971  0.00  0.00    +0.000 C 
ATOM     22  C   UNL     1     -38.904  21.495  -1.554  0.00  0.00    +0.000 C 
ENDROOT
BRANCH   8  23
ATOM     23  O   UNL     1     -37.696  22.224   3.229  0.00  0.00    -0.383 OA
ATOM     24  H   UNL     1     -38.183  22.883   2.710  0.00  0.00    +0.210 HD
ENDBRANCH   8  23
BRANCH  13  25
ATOM     25  O   UNL     1     -36.273  25.535   1.049  0.00  0.00    -0.374 OA
ATOM     26  H   UNL     1     -35.305  25.459   1.044  0.00  0.00    +0.211 HD
ENDBRANCH  13  25
BRANCH   7  27
ATOM     27  C   UNL     1     -36.296  26.157   5.268  0.00  0.00    +0.137 C 
BRANCH  27  28
ATOM     28  O   UNL     1     -35.643  27.098   4.420  0.00  0.00    -0.382 OA
ATOM     29  H   UNL     1     -34.778  26.748   4.155  0.00  0.00    +0.210 HD
ENDBRANCH  27  28
ENDBRANCH   7  27
TORSDOF 4
ENDMDL
