MODEL 1
REMARK VINA RESULT:      -6.7      0.000      0.000
REMARK  Name = 5317333
REMARK  7 active torsions:
REMARK  status: ('A' for Active; 'I' for Inactive)
REMARK    1  A    between atoms: C_3  and  C_16
REMARK    2  A    between atoms: C_9  and  O_12
REMARK    3  A    between atoms: C_10  and  O_14
REMARK    4  A    between atoms: C_16  and  C_17
REMARK    5  A    between atoms: C_18  and  C_24
REMARK    6  A    between atoms: C_20  and  O_26
REMARK    7  A    between atoms: C_21  and  O_28
REMARK                            x       y       z     vdW  Elec       q    Type
REMARK                         _______ _______ _______ _____ _____    ______ ____
ROOT
ATOM      1  O   UNL     1     -36.984  20.323   0.749  0.00  0.00    -0.448 OA
ATOM      2  O   UNL     1     -37.409  18.554  -0.598  0.00  0.00    -0.245 OA
ATOM      3  C   UNL     1     -36.163  20.868   1.808  0.00  0.00    +0.178 C 
ATOM      4  C   UNL     1     -34.708  20.905   1.366  0.00  0.00    +0.071 C 
ATOM      5  C   UNL     1     -34.313  19.514   0.977  0.00  0.00    -0.006 C 
ATOM      6  C   UNL     1     -35.264  18.669   0.390  0.00  0.00    +0.106 C 
ATOM      7  C   UNL     1     -36.640  19.157   0.139  0.00  0.00    +0.344 C 
ATOM      8  C   UNL     1     -33.002  19.058   1.153  0.00  0.00    +0.033 C 
ATOM      9  C   UNL     1     -34.909  17.374  -0.002  0.00  0.00    +0.143 C 
ATOM     10  C   UNL     1     -32.650  17.764   0.766  0.00  0.00    +0.136 C 
ATOM     11  C   UNL     1     -33.604  16.922   0.192  0.00  0.00    +0.073 C 
ENDROOT
BRANCH   9  12
ATOM     12  O   UNL     1     -35.799  16.507  -0.565  0.00  0.00    -0.505 OA
ATOM     13  H   UNL     1     -35.921  16.500  -1.494  0.00  0.00    +0.292 HD
ENDBRANCH   9  12
BRANCH  10  14
ATOM     14  O   UNL     1     -31.376  17.323   0.948  0.00  0.00    -0.505 OA
ATOM     15  H   UNL     1     -30.663  17.931   0.930  0.00  0.00    +0.292 HD
ENDBRANCH  10  14
BRANCH   3  16
ATOM     16  C   UNL     1     -36.684  22.263   2.123  0.00  0.00    +0.071 C 
BRANCH  16  17
ATOM     17  C   UNL     1     -36.237  22.732   3.482  0.00  0.00    -0.010 C 
ATOM     18  C   UNL     1     -36.494  24.029   3.905  0.00  0.00    +0.065 C 
ATOM     19  C   UNL     1     -35.562  21.837   4.301  0.00  0.00    +0.033 C 
ATOM     20  C   UNL     1     -36.069  24.439   5.169  0.00  0.00    +0.139 C 
ATOM     21  C   UNL     1     -35.137  22.246   5.566  0.00  0.00    +0.136 C 
ATOM     22  C   UNL     1     -35.390  23.546   6.000  0.00  0.00    +0.073 C 
BRANCH  18  24
ATOM     23  O   UNL     1     -36.590  25.793   2.341  0.00  0.00    -0.291 OA
ATOM     24  C   UNL     1     -37.204  24.967   3.042  0.00  0.00    +0.176 C 
ATOM     25  C   UNL     1     -38.726  24.951   2.986  0.00  0.00    +0.077 C 
ENDBRANCH  18  24
BRANCH  20  26
ATOM     26  O   UNL     1     -36.306  25.706   5.613  0.00  0.00    -0.505 OA
ATOM     27  H   UNL     1     -36.783  25.842   6.407  0.00  0.00    +0.292 HD
ENDBRANCH  20  26
BRANCH  21  28
ATOM     28  O   UNL     1     -34.475  21.375   6.375  0.00  0.00    -0.505 OA
ATOM     29  H   UNL     1     -33.640  21.609   6.733  0.00  0.00    +0.292 HD
ENDBRANCH  21  28
ENDBRANCH  16  17
ENDBRANCH   3  16
TORSDOF 7
ENDMDL
MODEL 2
REMARK VINA RESULT:      -6.6      1.693      7.347
REMARK  Name = 5317333
REMARK  7 active torsions:
REMARK  status: ('A' for Active; 'I' for Inactive)
REMARK    1  A    between atoms: C_3  and  C_16
REMARK    2  A    between atoms: C_9  and  O_12
REMARK    3  A    between atoms: C_10  and  O_14
REMARK    4  A    between atoms: C_16  and  C_17
REMARK    5  A    between atoms: C_18  and  C_24
REMARK    6  A    between atoms: C_20  and  O_26
REMARK    7  A    between atoms: C_21  and  O_28
REMARK                            x       y       z     vdW  Elec       q    Type
REMARK                         _______ _______ _______ _____ _____    ______ ____
ROOT
ATOM      1  O   UNL     1     -35.187  21.038   2.512  0.00  0.00    -0.448 OA
ATOM      2  O   UNL     1     -35.198  20.706   4.752  0.00  0.00    -0.245 OA
ATOM      3  C   UNL     1     -35.519  21.924   1.419  0.00  0.00    +0.178 C 
ATOM      4  C   UNL     1     -34.774  23.242   1.577  0.00  0.00    +0.071 C 
ATOM      5  C   UNL     1     -35.128  23.808   2.918  0.00  0.00    -0.006 C 
ATOM      6  C   UNL     1     -35.369  22.938   3.989  0.00  0.00    +0.106 C 
ATOM      7  C   UNL     1     -35.255  21.473   3.799  0.00  0.00    +0.344 C 
ATOM      8  C   UNL     1     -35.183  25.190   3.128  0.00  0.00    +0.033 C 
ATOM      9  C   UNL     1     -35.679  23.447   5.254  0.00  0.00    +0.143 C 
ATOM     10  C   UNL     1     -35.496  25.697   4.390  0.00  0.00    +0.136 C 
ATOM     11  C   UNL     1     -35.747  24.827   5.450  0.00  0.00    +0.073 C 
ENDROOT
BRANCH   9  12
ATOM     12  O   UNL     1     -35.935  22.645   6.327  0.00  0.00    -0.505 OA
ATOM     13  H   UNL     1     -35.447  21.854   6.447  0.00  0.00    +0.292 HD
ENDBRANCH   9  12
BRANCH  10  14
ATOM     14  O   UNL     1     -35.556  27.042   4.586  0.00  0.00    -0.505 OA
ATOM     15  H   UNL     1     -35.412  27.398   5.441  0.00  0.00    +0.292 HD
ENDBRANCH  10  14
BRANCH   3  16
ATOM     16  C   UNL     1     -35.136  21.222   0.124  0.00  0.00    +0.071 C 
BRANCH  16  17
ATOM     17  C   UNL     1     -35.891  19.933  -0.057  0.00  0.00    -0.010 C 
ATOM     18  C   UNL     1     -35.225  18.715  -0.066  0.00  0.00    +0.065 C 
ATOM     19  C   UNL     1     -37.270  19.991  -0.216  0.00  0.00    +0.033 C 
ATOM     20  C   UNL     1     -35.949  17.534  -0.236  0.00  0.00    +0.139 C 
ATOM     21  C   UNL     1     -37.994  18.811  -0.387  0.00  0.00    +0.136 C 
ATOM     22  C   UNL     1     -37.334  17.582  -0.396  0.00  0.00    +0.073 C 
BRANCH  18  24
ATOM     23  O   UNL     1     -33.012  18.629  -0.880  0.00  0.00    -0.291 OA
ATOM     24  C   UNL     1     -33.777  18.657   0.103  0.00  0.00    +0.176 C 
ATOM     25  C   UNL     1     -33.171  18.628   1.499  0.00  0.00    +0.077 C 
ENDBRANCH  18  24
BRANCH  20  26
ATOM     26  O   UNL     1     -35.323  16.323  -0.250  0.00  0.00    -0.505 OA
ATOM     27  H   UNL     1     -35.681  15.606   0.236  0.00  0.00    +0.292 HD
ENDBRANCH  20  26
BRANCH  21  28
ATOM     28  O   UNL     1     -39.345  18.858  -0.543  0.00  0.00    -0.505 OA
ATOM     29  H   UNL     1     -39.793  19.681  -0.507  0.00  0.00    +0.292 HD
ENDBRANCH  21  28
ENDBRANCH  16  17
ENDBRANCH   3  16
TORSDOF 7
ENDMDL
MODEL 3
REMARK VINA RESULT:      -6.5      4.022      8.537
REMARK  Name = 5317333
REMARK  7 active torsions:
REMARK  status: ('A' for Active; 'I' for Inactive)
REMARK    1  A    between atoms: C_3  and  C_16
REMARK    2  A    between atoms: C_9  and  O_12
REMARK    3  A    between atoms: C_10  and  O_14
REMARK    4  A    between atoms: C_16  and  C_17
REMARK    5  A    between atoms: C_18  and  C_24
REMARK    6  A    between atoms: C_20  and  O_26
REMARK    7  A    between atoms: C_21  and  O_28
REMARK                            x       y       z     vdW  Elec       q    Type
REMARK                         _______ _______ _______ _____ _____    ______ ____
ROOT
ATOM      1  O   UNL     1     -33.567  25.902   5.603  0.00  0.00    -0.448 OA
ATOM      2  O   UNL     1     -32.663  27.363   7.077  0.00  0.00    -0.245 OA
ATOM      3  C   UNL     1     -34.099  25.697   4.274  0.00  0.00    +0.178 C 
ATOM      4  C   UNL     1     -33.035  26.024   3.236  0.00  0.00    +0.071 C 
ATOM      5  C   UNL     1     -32.583  27.433   3.474  0.00  0.00    -0.006 C 
ATOM      6  C   UNL     1     -32.545  27.928   4.784  0.00  0.00    +0.106 C 
ATOM      7  C   UNL     1     -32.930  27.060   5.921  0.00  0.00    +0.344 C 
ATOM      8  C   UNL     1     -32.161  28.246   2.417  0.00  0.00    +0.033 C 
ATOM      9  C   UNL     1     -32.104  29.233   5.030  0.00  0.00    +0.143 C 
ATOM     10  C   UNL     1     -31.725  29.548   2.664  0.00  0.00    +0.136 C 
ATOM     11  C   UNL     1     -31.699  30.042   3.968  0.00  0.00    +0.073 C 
ENDROOT
BRANCH   9  12
ATOM     12  O   UNL     1     -32.060  29.769   6.284  0.00  0.00    -0.505 OA
ATOM     13  H   UNL     1     -32.414  30.621   6.441  0.00  0.00    +0.292 HD
ENDBRANCH   9  12
BRANCH  10  14
ATOM     14  O   UNL     1     -31.323  30.337   1.631  0.00  0.00    -0.505 OA
ATOM     15  H   UNL     1     -31.957  30.700   1.043  0.00  0.00    +0.292 HD
ENDBRANCH  10  14
BRANCH   3  16
ATOM     16  C   UNL     1     -34.543  24.245   4.173  0.00  0.00    +0.071 C 
BRANCH  16  17
ATOM     17  C   UNL     1     -35.972  24.128   3.715  0.00  0.00    -0.010 C 
ATOM     18  C   UNL     1     -36.472  22.920   3.247  0.00  0.00    +0.065 C 
ATOM     19  C   UNL     1     -36.779  25.257   3.771  0.00  0.00    +0.033 C 
ATOM     20  C   UNL     1     -37.800  22.839   2.828  0.00  0.00    +0.139 C 
ATOM     21  C   UNL     1     -38.107  25.177   3.352  0.00  0.00    +0.136 C 
ATOM     22  C   UNL     1     -38.618  23.968   2.881  0.00  0.00    +0.073 C 
BRANCH  18  24
ATOM     23  O   UNL     1     -35.413  21.042   4.205  0.00  0.00    -0.291 OA
ATOM     24  C   UNL     1     -35.623  21.735   3.192  0.00  0.00    +0.176 C 
ATOM     25  C   UNL     1     -34.971  21.322   1.879  0.00  0.00    +0.077 C 
ENDBRANCH  18  24
BRANCH  20  26
ATOM     26  O   UNL     1     -38.319  21.667   2.364  0.00  0.00    -0.505 OA
ATOM     27  H   UNL     1     -38.908  21.672   1.635  0.00  0.00    +0.292 HD
ENDBRANCH  20  26
BRANCH  21  28
ATOM     28  O   UNL     1     -38.904  26.279   3.403  0.00  0.00    -0.505 OA
ATOM     29  H   UNL     1     -38.671  27.049   2.922  0.00  0.00    +0.292 HD
ENDBRANCH  21  28
ENDBRANCH  16  17
ENDBRANCH   3  16
TORSDOF 7
ENDMDL
MODEL 4
REMARK VINA RESULT:      -6.5      1.932      7.173
REMARK  Name = 5317333
REMARK  7 active torsions:
REMARK  status: ('A' for Active; 'I' for Inactive)
REMARK    1  A    between atoms: C_3  and  C_16
REMARK    2  A    between atoms: C_9  and  O_12
REMARK    3  A    between atoms: C_10  and  O_14
REMARK    4  A    between atoms: C_16  and  C_17
REMARK    5  A    between atoms: C_18  and  C_24
REMARK    6  A    between atoms: C_20  and  O_26
REMARK    7  A    between atoms: C_21  and  O_28
REMARK                            x       y       z     vdW  Elec       q    Type
REMARK                         _______ _______ _______ _____ _____    ______ ____
ROOT
ATOM      1  O   UNL     1     -37.409  22.178   2.582  0.00  0.00    -0.448 OA
ATOM      2  O   UNL     1     -38.835  23.924   2.790  0.00  0.00    -0.245 OA
ATOM      3  C   UNL     1     -36.039  21.720   2.651  0.00  0.00    +0.178 C 
ATOM      4  C   UNL     1     -35.485  21.954   4.049  0.00  0.00    +0.071 C 
ATOM      5  C   UNL     1     -35.630  23.413   4.358  0.00  0.00    -0.006 C 
ATOM      6  C   UNL     1     -36.729  24.116   3.848  0.00  0.00    +0.106 C 
ATOM      7  C   UNL     1     -37.746  23.418   3.027  0.00  0.00    +0.344 C 
ATOM      8  C   UNL     1     -34.710  24.073   5.179  0.00  0.00    +0.033 C 
ATOM      9  C   UNL     1     -36.895  25.474   4.144  0.00  0.00    +0.143 C 
ATOM     10  C   UNL     1     -34.875  25.428   5.471  0.00  0.00    +0.136 C 
ATOM     11  C   UNL     1     -35.964  26.127   4.951  0.00  0.00    +0.073 C 
ENDROOT
BRANCH   9  12
ATOM     12  O   UNL     1     -37.938  26.208   3.663  0.00  0.00    -0.505 OA
ATOM     13  H   UNL     1     -37.829  27.123   3.497  0.00  0.00    +0.292 HD
ENDBRANCH   9  12
BRANCH  10  14
ATOM     14  O   UNL     1     -33.972  26.067   6.264  0.00  0.00    -0.505 OA
ATOM     15  H   UNL     1     -34.139  26.162   7.181  0.00  0.00    +0.292 HD
ENDBRANCH  10  14
BRANCH   3  16
ATOM     16  C   UNL     1     -36.030  20.241   2.291  0.00  0.00    +0.071 C 
BRANCH  16  17
ATOM     17  C   UNL     1     -35.163  19.963   1.092  0.00  0.00    -0.010 C 
ATOM     18  C   UNL     1     -35.681  19.327  -0.027  0.00  0.00    +0.065 C 
ATOM     19  C   UNL     1     -33.831  20.357   1.134  0.00  0.00    +0.033 C 
ATOM     20  C   UNL     1     -34.856  19.081  -1.125  0.00  0.00    +0.139 C 
ATOM     21  C   UNL     1     -33.005  20.111   0.037  0.00  0.00    +0.136 C 
ATOM     22  C   UNL     1     -33.517  19.474  -1.093  0.00  0.00    +0.073 C 
BRANCH  18  24
ATOM     23  O   UNL     1     -37.407  17.722   0.072  0.00  0.00    -0.291 OA
ATOM     24  C   UNL     1     -37.080  18.915  -0.068  0.00  0.00    +0.176 C 
ATOM     25  C   UNL     1     -38.175  19.950  -0.287  0.00  0.00    +0.077 C 
ENDBRANCH  18  24
BRANCH  20  26
ATOM     26  O   UNL     1     -35.336  18.458  -2.239  0.00  0.00    -0.505 OA
ATOM     27  H   UNL     1     -35.228  17.533  -2.342  0.00  0.00    +0.292 HD
ENDBRANCH  20  26
BRANCH  21  28
ATOM     28  O   UNL     1     -31.700  20.494   0.069  0.00  0.00    -0.505 OA
ATOM     29  H   UNL     1     -31.025  19.877  -0.138  0.00  0.00    +0.292 HD
ENDBRANCH  21  28
ENDBRANCH  16  17
ENDBRANCH   3  16
TORSDOF 7
ENDMDL
MODEL 5
REMARK VINA RESULT:      -6.5      1.826      2.503
REMARK  Name = 5317333
REMARK  7 active torsions:
REMARK  status: ('A' for Active; 'I' for Inactive)
REMARK    1  A    between atoms: C_3  and  C_16
REMARK    2  A    between atoms: C_9  and  O_12
REMARK    3  A    between atoms: C_10  and  O_14
REMARK    4  A    between atoms: C_16  and  C_17
REMARK    5  A    between atoms: C_18  and  C_24
REMARK    6  A    between atoms: C_20  and  O_26
REMARK    7  A    between atoms: C_21  and  O_28
REMARK                            x       y       z     vdW  Elec       q    Type
REMARK                         _______ _______ _______ _____ _____    ______ ____
ROOT
ATOM      1  O   UNL     1     -34.735  22.174   0.886  0.00  0.00    -0.448 OA
ATOM      2  O   UNL     1     -32.853  22.901  -0.142  0.00  0.00    -0.245 OA
ATOM      3  C   UNL     1     -35.569  21.042   1.222  0.00  0.00    +0.178 C 
ATOM      4  C   UNL     1     -34.777  20.045   2.056  0.00  0.00    +0.071 C 
ATOM      5  C   UNL     1     -33.559  19.662   1.272  0.00  0.00    -0.006 C 
ATOM      6  C   UNL     1     -32.950  20.611   0.442  0.00  0.00    +0.106 C 
ATOM      7  C   UNL     1     -33.496  21.986   0.356  0.00  0.00    +0.344 C 
ATOM      8  C   UNL     1     -32.997  18.386   1.387  0.00  0.00    +0.033 C 
ATOM      9  C   UNL     1     -31.799  20.281  -0.281  0.00  0.00    +0.143 C 
ATOM     10  C   UNL     1     -31.850  18.056   0.663  0.00  0.00    +0.136 C 
ATOM     11  C   UNL     1     -31.255  19.001  -0.172  0.00  0.00    +0.073 C 
ENDROOT
BRANCH   9  12
ATOM     12  O   UNL     1     -31.175  21.162  -1.113  0.00  0.00    -0.505 OA
ATOM     13  H   UNL     1     -30.303  20.990  -1.409  0.00  0.00    +0.292 HD
ENDBRANCH   9  12
BRANCH  10  14
ATOM     14  O   UNL     1     -31.313  16.811   0.773  0.00  0.00    -0.505 OA
ATOM     15  H   UNL     1     -31.501  16.283   1.525  0.00  0.00    +0.292 HD
ENDBRANCH  10  14
BRANCH   3  16
ATOM     16  C   UNL     1     -36.775  21.570   1.987  0.00  0.00    +0.071 C 
BRANCH  16  17
ATOM     17  C   UNL     1     -36.368  22.278   3.252  0.00  0.00    -0.010 C 
ATOM     18  C   UNL     1     -36.737  23.597   3.477  0.00  0.00    +0.065 C 
ATOM     19  C   UNL     1     -35.615  21.579   4.187  0.00  0.00    +0.033 C 
ATOM     20  C   UNL     1     -36.347  24.230   4.658  0.00  0.00    +0.139 C 
ATOM     21  C   UNL     1     -35.224  22.212   5.368  0.00  0.00    +0.136 C 
ATOM     22  C   UNL     1     -35.590  23.537   5.604  0.00  0.00    +0.073 C 
BRANCH  18  24
ATOM     23  O   UNL     1     -36.989  25.060   1.644  0.00  0.00    -0.291 OA
ATOM     24  C   UNL     1     -37.529  24.327   2.494  0.00  0.00    +0.176 C 
ATOM     25  C   UNL     1     -39.047  24.204   2.491  0.00  0.00    +0.077 C 
ENDBRANCH  18  24
BRANCH  20  26
ATOM     26  O   UNL     1     -36.693  25.525   4.908  0.00  0.00    -0.505 OA
ATOM     27  H   UNL     1     -36.141  26.063   5.440  0.00  0.00    +0.292 HD
ENDBRANCH  20  26
BRANCH  21  28
ATOM     28  O   UNL     1     -34.486  21.536   6.290  0.00  0.00    -0.505 OA
ATOM     29  H   UNL     1     -34.600  21.712   7.203  0.00  0.00    +0.292 HD
ENDBRANCH  21  28
ENDBRANCH  16  17
ENDBRANCH   3  16
TORSDOF 7
ENDMDL
MODEL 6
REMARK VINA RESULT:      -6.5      2.107      7.193
REMARK  Name = 5317333
REMARK  7 active torsions:
REMARK  status: ('A' for Active; 'I' for Inactive)
REMARK    1  A    between atoms: C_3  and  C_16
REMARK    2  A    between atoms: C_9  and  O_12
REMARK    3  A    between atoms: C_10  and  O_14
REMARK    4  A    between atoms: C_16  and  C_17
REMARK    5  A    between atoms: C_18  and  C_24
REMARK    6  A    between atoms: C_20  and  O_26
REMARK    7  A    between atoms: C_21  and  O_28
REMARK                            x       y       z     vdW  Elec       q    Type
REMARK                         _______ _______ _______ _____ _____    ______ ____
ROOT
ATOM      1  O   UNL     1     -36.969  20.684   1.533  0.00  0.00    -0.448 OA
ATOM      2  O   UNL     1     -39.177  21.183   1.495  0.00  0.00    -0.245 OA
ATOM      3  C   UNL     1     -35.619  21.179   1.689  0.00  0.00    +0.178 C 
ATOM      4  C   UNL     1     -35.458  21.818   3.061  0.00  0.00    +0.071 C 
ATOM      5  C   UNL     1     -36.494  22.893   3.188  0.00  0.00    -0.006 C 
ATOM      6  C   UNL     1     -37.739  22.722   2.571  0.00  0.00    +0.106 C 
ATOM      7  C   UNL     1     -38.035  21.481   1.817  0.00  0.00    +0.344 C 
ATOM      8  C   UNL     1     -36.252  24.044   3.945  0.00  0.00    +0.033 C 
ATOM      9  C   UNL     1     -38.729  23.703   2.697  0.00  0.00    +0.143 C 
ATOM     10  C   UNL     1     -37.238  25.025   4.067  0.00  0.00    +0.136 C 
ATOM     11  C   UNL     1     -38.473  24.855   3.441  0.00  0.00    +0.073 C 
ENDROOT
BRANCH   9  12
ATOM     12  O   UNL     1     -39.953  23.593   2.107  0.00  0.00    -0.505 OA
ATOM     13  H   UNL     1     -40.395  24.359   1.799  0.00  0.00    +0.292 HD
ENDBRANCH   9  12
BRANCH  10  14
ATOM     14  O   UNL     1     -36.995  26.146   4.798  0.00  0.00    -0.505 OA
ATOM     15  H   UNL     1     -36.908  26.975   4.369  0.00  0.00    +0.292 HD
ENDBRANCH  10  14
BRANCH   3  16
ATOM     16  C   UNL     1     -34.673  20.001   1.511  0.00  0.00    +0.071 C 
BRANCH  16  17
ATOM     17  C   UNL     1     -33.456  20.378   0.709  0.00  0.00    -0.010 C 
ATOM     18  C   UNL     1     -32.452  19.451   0.463  0.00  0.00    +0.065 C 
ATOM     19  C   UNL     1     -33.361  21.675   0.222  0.00  0.00    +0.033 C 
ATOM     20  C   UNL     1     -31.335  19.826  -0.283  0.00  0.00    +0.139 C 
ATOM     21  C   UNL     1     -32.244  22.051  -0.524  0.00  0.00    +0.136 C 
ATOM     22  C   UNL     1     -31.231  21.127  -0.777  0.00  0.00    +0.073 C 
BRANCH  18  24
ATOM     23  O   UNL     1     -31.864  17.705   1.937  0.00  0.00    -0.291 OA
ATOM     24  C   UNL     1     -32.556  18.088   0.974  0.00  0.00    +0.176 C 
ATOM     25  C   UNL     1     -33.521  17.102   0.332  0.00  0.00    +0.077 C 
ENDBRANCH  18  24
BRANCH  20  26
ATOM     26  O   UNL     1     -30.333  18.938  -0.542  0.00  0.00    -0.505 OA
ATOM     27  H   UNL     1     -30.330  18.455  -1.344  0.00  0.00    +0.292 HD
ENDBRANCH  20  26
BRANCH  21  28
ATOM     28  O   UNL     1     -32.142  23.320  -1.005  0.00  0.00    -0.505 OA
ATOM     29  H   UNL     1     -32.861  23.915  -0.914  0.00  0.00    +0.292 HD
ENDBRANCH  21  28
ENDBRANCH  16  17
ENDBRANCH   3  16
TORSDOF 7
ENDMDL
MODEL 7
REMARK VINA RESULT:      -6.4      3.417      7.549
REMARK  Name = 5317333
REMARK  7 active torsions:
REMARK  status: ('A' for Active; 'I' for Inactive)
REMARK    1  A    between atoms: C_3  and  C_16
REMARK    2  A    between atoms: C_9  and  O_12
REMARK    3  A    between atoms: C_10  and  O_14
REMARK    4  A    between atoms: C_16  and  C_17
REMARK    5  A    between atoms: C_18  and  C_24
REMARK    6  A    between atoms: C_20  and  O_26
REMARK    7  A    between atoms: C_21  and  O_28
REMARK                            x       y       z     vdW  Elec       q    Type
REMARK                         _______ _______ _______ _____ _____    ______ ____
ROOT
ATOM      1  O   UNL     1     -35.044  25.701   3.505  0.00  0.00    -0.448 OA
ATOM      2  O   UNL     1     -34.120  27.099   1.983  0.00  0.00    -0.245 OA
ATOM      3  C   UNL     1     -34.883  25.001   4.760  0.00  0.00    +0.178 C 
ATOM      4  C   UNL     1     -34.646  26.002   5.883  0.00  0.00    +0.071 C 
ATOM      5  C   UNL     1     -33.451  26.826   5.514  0.00  0.00    -0.006 C 
ATOM      6  C   UNL     1     -33.212  27.125   4.167  0.00  0.00    +0.106 C 
ATOM      7  C   UNL     1     -34.146  26.646   3.120  0.00  0.00    +0.344 C 
ATOM      8  C   UNL     1     -32.593  27.335   6.495  0.00  0.00    +0.033 C 
ATOM      9  C   UNL     1     -32.115  27.913   3.803  0.00  0.00    +0.143 C 
ATOM     10  C   UNL     1     -31.496  28.118   6.131  0.00  0.00    +0.136 C 
ATOM     11  C   UNL     1     -31.256  28.403   4.787  0.00  0.00    +0.073 C 
ENDROOT
BRANCH   9  12
ATOM     12  O   UNL     1     -31.830  28.222   2.506  0.00  0.00    -0.505 OA
ATOM     13  H   UNL     1     -32.442  28.717   1.998  0.00  0.00    +0.292 HD
ENDBRANCH   9  12
BRANCH  10  14
ATOM     14  O   UNL     1     -30.660  28.603   7.089  0.00  0.00    -0.505 OA
ATOM     15  H   UNL     1     -30.420  29.509   7.086  0.00  0.00    +0.292 HD
ENDBRANCH  10  14
BRANCH   3  16
ATOM     16  C   UNL     1     -36.146  24.187   5.001  0.00  0.00    +0.071 C 
BRANCH  16  17
ATOM     17  C   UNL     1     -36.375  23.176   3.909  0.00  0.00    -0.010 C 
ATOM     18  C   UNL     1     -37.408  23.339   2.995  0.00  0.00    +0.065 C 
ATOM     19  C   UNL     1     -35.530  22.076   3.839  0.00  0.00    +0.033 C 
ATOM     20  C   UNL     1     -37.598  22.386   1.994  0.00  0.00    +0.139 C 
ATOM     21  C   UNL     1     -35.720  21.123   2.838  0.00  0.00    +0.136 C 
ATOM     22  C   UNL     1     -36.754  21.278   1.915  0.00  0.00    +0.073 C 
BRANCH  18  24
ATOM     23  O   UNL     1     -39.352  24.458   3.725  0.00  0.00    -0.291 OA
ATOM     24  C   UNL     1     -38.293  24.496   3.071  0.00  0.00    +0.176 C 
ATOM     25  C   UNL     1     -37.933  25.782   2.340  0.00  0.00    +0.077 C 
ENDBRANCH  18  24
BRANCH  20  26
ATOM     26  O   UNL     1     -38.603  22.518   1.082  0.00  0.00    -0.505 OA
ATOM     27  H   UNL     1     -38.757  21.841   0.453  0.00  0.00    +0.292 HD
ENDBRANCH  20  26
BRANCH  21  28
ATOM     28  O   UNL     1     -34.897  20.043   2.762  0.00  0.00    -0.505 OA
ATOM     29  H   UNL     1     -34.046  20.072   3.156  0.00  0.00    +0.292 HD
ENDBRANCH  21  28
ENDBRANCH  16  17
ENDBRANCH   3  16
TORSDOF 7
ENDMDL
MODEL 8
REMARK VINA RESULT:      -6.4      2.247      3.356
REMARK  Name = 5317333
REMARK  7 active torsions:
REMARK  status: ('A' for Active; 'I' for Inactive)
REMARK    1  A    between atoms: C_3  and  C_16
REMARK    2  A    between atoms: C_9  and  O_12
REMARK    3  A    between atoms: C_10  and  O_14
REMARK    4  A    between atoms: C_16  and  C_17
REMARK    5  A    between atoms: C_18  and  C_24
REMARK    6  A    between atoms: C_20  and  O_26
REMARK    7  A    between atoms: C_21  and  O_28
REMARK                            x       y       z     vdW  Elec       q    Type
REMARK                         _______ _______ _______ _____ _____    ______ ____
ROOT
ATOM      1  O   UNL     1     -33.776  18.892   1.589  0.00  0.00    -0.448 OA
ATOM      2  O   UNL     1     -32.274  17.235   1.240  0.00  0.00    -0.245 OA
ATOM      3  C   UNL     1     -34.013  20.317   1.651  0.00  0.00    +0.178 C 
ATOM      4  C   UNL     1     -33.680  20.955   0.310  0.00  0.00    +0.071 C 
ATOM      5  C   UNL     1     -32.260  20.612  -0.019  0.00  0.00    -0.006 C 
ATOM      6  C   UNL     1     -31.743  19.374   0.382  0.00  0.00    +0.106 C 
ATOM      7  C   UNL     1     -32.600  18.407   1.108  0.00  0.00    +0.344 C 
ATOM      8  C   UNL     1     -31.455  21.489  -0.755  0.00  0.00    +0.033 C 
ATOM      9  C   UNL     1     -30.426  19.024   0.065  0.00  0.00    +0.143 C 
ATOM     10  C   UNL     1     -30.140  21.141  -1.067  0.00  0.00    +0.136 C 
ATOM     11  C   UNL     1     -29.626  19.912  -0.655  0.00  0.00    +0.073 C 
ENDROOT
BRANCH   9  12
ATOM     12  O   UNL     1     -29.869  17.838   0.443  0.00  0.00    -0.505 OA
ATOM     13  H   UNL     1     -30.069  17.473   1.282  0.00  0.00    +0.292 HD
ENDBRANCH   9  12
BRANCH  10  14
ATOM     14  O   UNL     1     -29.360  22.001  -1.776  0.00  0.00    -0.505 OA
ATOM     15  H   UNL     1     -29.715  22.456  -2.515  0.00  0.00    +0.292 HD
ENDBRANCH  10  14
BRANCH   3  16
ATOM     16  C   UNL     1     -35.475  20.526   2.017  0.00  0.00    +0.071 C 
BRANCH  16  17
ATOM     17  C   UNL     1     -35.636  21.536   3.123  0.00  0.00    -0.010 C 
ATOM     18  C   UNL     1     -36.217  22.772   2.877  0.00  0.00    +0.065 C 
ATOM     19  C   UNL     1     -35.187  21.201   4.394  0.00  0.00    +0.033 C 
ATOM     20  C   UNL     1     -36.353  23.690   3.919  0.00  0.00    +0.139 C 
ATOM     21  C   UNL     1     -35.323  22.118   5.437  0.00  0.00    +0.136 C 
ATOM     22  C   UNL     1     -35.906  23.362   5.200  0.00  0.00    +0.073 C 
BRANCH  18  24
ATOM     23  O   UNL     1     -35.983  23.788   0.760  0.00  0.00    -0.291 OA
ATOM     24  C   UNL     1     -36.688  23.121   1.541  0.00  0.00    +0.176 C 
ATOM     25  C   UNL     1     -38.065  22.670   1.074  0.00  0.00    +0.077 C 
ENDBRANCH  18  24
BRANCH  20  26
ATOM     26  O   UNL     1     -36.920  24.912   3.709  0.00  0.00    -0.505 OA
ATOM     27  H   UNL     1     -36.731  25.622   4.290  0.00  0.00    +0.292 HD
ENDBRANCH  20  26
BRANCH  21  28
ATOM     28  O   UNL     1     -34.886  21.798   6.685  0.00  0.00    -0.505 OA
ATOM     29  H   UNL     1     -34.725  22.475   7.314  0.00  0.00    +0.292 HD
ENDBRANCH  21  28
ENDBRANCH  16  17
ENDBRANCH   3  16
TORSDOF 7
ENDMDL
MODEL 9
REMARK VINA RESULT:      -6.3      3.643      8.138
REMARK  Name = 5317333
REMARK  7 active torsions:
REMARK  status: ('A' for Active; 'I' for Inactive)
REMARK    1  A    between atoms: C_3  and  C_16
REMARK    2  A    between atoms: C_9  and  O_12
REMARK    3  A    between atoms: C_10  and  O_14
REMARK    4  A    between atoms: C_16  and  C_17
REMARK    5  A    between atoms: C_18  and  C_24
REMARK    6  A    between atoms: C_20  and  O_26
REMARK    7  A    between atoms: C_21  and  O_28
REMARK                            x       y       z     vdW  Elec       q    Type
REMARK                         _______ _______ _______ _____ _____    ______ ____
ROOT
ATOM      1  O   UNL     1     -34.340  25.672   3.428  0.00  0.00    -0.448 OA
ATOM      2  O   UNL     1     -33.713  27.376   2.076  0.00  0.00    -0.245 OA
ATOM      3  C   UNL     1     -34.081  24.934   4.644  0.00  0.00    +0.178 C 
ATOM      4  C   UNL     1     -34.171  25.866   5.844  0.00  0.00    +0.071 C 
ATOM      5  C   UNL     1     -33.204  26.988   5.623  0.00  0.00    -0.006 C 
ATOM      6  C   UNL     1     -32.971  27.447   4.320  0.00  0.00    +0.106 C 
ATOM      7  C   UNL     1     -33.689  26.839   3.176  0.00  0.00    +0.344 C 
ATOM      8  C   UNL     1     -32.562  27.612   6.698  0.00  0.00    +0.033 C 
ATOM      9  C   UNL     1     -32.089  28.509   4.095  0.00  0.00    +0.143 C 
ATOM     10  C   UNL     1     -31.680  28.669   6.472  0.00  0.00    +0.136 C 
ATOM     11  C   UNL     1     -31.441  29.115   5.172  0.00  0.00    +0.073 C 
ENDROOT
BRANCH   9  12
ATOM     12  O   UNL     1     -31.816  28.985   2.846  0.00  0.00    -0.505 OA
ATOM     13  H   UNL     1     -31.718  29.907   2.708  0.00  0.00    +0.292 HD
ENDBRANCH   9  12
BRANCH  10  14
ATOM     14  O   UNL     1     -31.052  29.267   7.521  0.00  0.00    -0.505 OA
ATOM     15  H   UNL     1     -31.538  29.809   8.111  0.00  0.00    +0.292 HD
ENDBRANCH  10  14
BRANCH   3  16
ATOM     16  C   UNL     1     -35.109  23.815   4.732  0.00  0.00    +0.071 C 
BRANCH  16  17
ATOM     17  C   UNL     1     -36.270  24.048   3.802  0.00  0.00    -0.010 C 
ATOM     18  C   UNL     1     -36.420  23.289   2.650  0.00  0.00    +0.065 C 
ATOM     19  C   UNL     1     -37.186  25.041   4.125  0.00  0.00    +0.033 C 
ATOM     20  C   UNL     1     -37.505  23.525   1.805  0.00  0.00    +0.139 C 
ATOM     21  C   UNL     1     -38.270  25.279   3.280  0.00  0.00    +0.136 C 
ATOM     22  C   UNL     1     -38.431  24.521   2.121  0.00  0.00    +0.073 C 
BRANCH  18  24
ATOM     23  O   UNL     1     -34.538  22.451   1.500  0.00  0.00    -0.291 OA
ATOM     24  C   UNL     1     -35.457  22.245   2.315  0.00  0.00    +0.176 C 
ATOM     25  C   UNL     1     -35.563  20.871   2.963  0.00  0.00    +0.077 C 
ENDBRANCH  18  24
BRANCH  20  26
ATOM     26  O   UNL     1     -37.680  22.796   0.666  0.00  0.00    -0.505 OA
ATOM     27  H   UNL     1     -37.023  22.806  -0.002  0.00  0.00    +0.292 HD
ENDBRANCH  20  26
BRANCH  21  28
ATOM     28  O   UNL     1     -39.172  26.250   3.588  0.00  0.00    -0.505 OA
ATOM     29  H   UNL     1     -40.011  26.018   3.936  0.00  0.00    +0.292 HD
ENDBRANCH  21  28
ENDBRANCH  16  17
ENDBRANCH   3  16
TORSDOF 7
ENDMDL
