MODEL 1
REMARK VINA RESULT:      -5.9      0.000      0.000
REMARK  Name = 52951535
REMARK  11 active torsions:
REMARK  status: ('A' for Active; 'I' for Inactive)
REMARK    1  A    between atoms: N_2  and  C_17
REMARK    2  A    between atoms: C_3  and  C_6
REMARK    3  A    between atoms: C_6  and  C_9
REMARK    4  A    between atoms: C_17  and  C_18
REMARK    5  A    between atoms: C_18  and  C_19
REMARK    6  A    between atoms: C_19  and  N_20
REMARK    7  A    between atoms: N_20  and  C_23
REMARK    8  A    between atoms: C_23  and  C_24
REMARK    9  A    between atoms: C_24  and  C_25
REMARK   10  A    between atoms: C_25  and  C_26
REMARK   11  A    between atoms: C_26  and  N_27
REMARK                            x       y       z     vdW  Elec       q    Type
REMARK                         _______ _______ _______ _____ _____    ______ ____
ROOT
ATOM      1  O   UNL     1     -37.141  19.892   0.638  0.00  0.00    -0.267 OA
ATOM      2  N   UNL     1     -37.755  21.377   2.354  0.00  0.00    -0.298 N 
ATOM      3  C   UNL     1     -36.909  20.558   1.634  0.00  0.00    +0.285 C 
ATOM      4  H   UNL     1     -37.396  21.845   3.142  0.00  0.00    +0.150 HD
ENDROOT
BRANCH   3   6
ATOM      5  O   UNL     1     -35.414  20.359   3.393  0.00  0.00    -0.282 OA
ATOM      6  C   UNL     1     -35.518  20.533   2.187  0.00  0.00    +0.250 C 
BRANCH   6   9
ATOM      7  N   UNL     1     -32.970  21.689  -0.151  0.00  0.00    -0.311 N 
ATOM      8  C   UNL     1     -33.281  19.829   1.040  0.00  0.00    +0.018 C 
ATOM      9  C   UNL     1     -34.353  20.729   1.295  0.00  0.00    +0.059 C 
ATOM     10  C   UNL     1     -32.427  20.456   0.131  0.00  0.00    +0.048 C 
ATOM     11  C   UNL     1     -34.134  21.863   0.548  0.00  0.00    +0.065 C 
ATOM     12  C   UNL     1     -32.953  18.538   1.499  0.00  0.00    +0.001 C 
ATOM     13  C   UNL     1     -31.257  19.852  -0.346  0.00  0.00    +0.015 C 
ATOM     14  C   UNL     1     -31.787  17.922   1.032  0.00  0.00    +0.000 C 
ATOM     15  C   UNL     1     -30.953  18.571   0.123  0.00  0.00    +0.001 C 
ATOM     16  H   UNL     1     -32.577  22.350  -0.766  0.00  0.00    +0.152 HD
ENDBRANCH   6   9
ENDBRANCH   3   6
BRANCH   2  17
ATOM     17  C   UNL     1     -39.134  21.581   2.006  0.00  0.00    +0.088 C 
BRANCH  17  18
ATOM     18  C   UNL     1     -39.638  22.967   2.400  0.00  0.00    -0.002 C 
BRANCH  18  19
ATOM     19  C   UNL     1     -38.545  24.035   2.493  0.00  0.00    -0.080 C 
BRANCH  19  20
ATOM     20  N   UNL     1     -38.501  24.655   3.810  0.00  0.00    +0.384 N 
ATOM     21  H   UNL     1     -39.075  25.499   3.802  0.00  0.00    -0.085 HD
ATOM     22  H   UNL     1     -38.857  23.990   4.496  0.00  0.00    -0.085 HD
BRANCH  20  23
ATOM     23  C   UNL     1     -37.134  25.013   4.170  0.00  0.00    -0.082 C 
BRANCH  23  24
ATOM     24  C   UNL     1     -36.138  24.133   3.413  0.00  0.00    -0.026 C 
BRANCH  24  25
ATOM     25  C   UNL     1     -34.965  23.731   4.313  0.00  0.00    -0.026 C 
BRANCH  25  26
ATOM     26  C   UNL     1     -35.388  23.338   5.730  0.00  0.00    -0.086 C 
BRANCH  26  27
ATOM     27  N   UNL     1     -35.974  22.003   5.783  0.00  0.00    +0.380 N 
ATOM     28  H   UNL     1     -35.357  21.382   6.306  0.00  0.00    -0.089 HD
ATOM     29  H   UNL     1     -36.090  21.645   4.835  0.00  0.00    -0.089 HD
ATOM     30  H   UNL     1     -36.882  22.048   6.244  0.00  0.00    -0.089 HD
ENDBRANCH  26  27
ENDBRANCH  25  26
ENDBRANCH  24  25
ENDBRANCH  23  24
ENDBRANCH  20  23
ENDBRANCH  19  20
ENDBRANCH  18  19
ENDBRANCH  17  18
ENDBRANCH   2  17
TORSDOF 11
ENDMDL
MODEL 2
REMARK VINA RESULT:      -5.4      4.629      6.933
REMARK  Name = 52951535
REMARK  11 active torsions:
REMARK  status: ('A' for Active; 'I' for Inactive)
REMARK    1  A    between atoms: N_2  and  C_17
REMARK    2  A    between atoms: C_3  and  C_6
REMARK    3  A    between atoms: C_6  and  C_9
REMARK    4  A    between atoms: C_17  and  C_18
REMARK    5  A    between atoms: C_18  and  C_19
REMARK    6  A    between atoms: C_19  and  N_20
REMARK    7  A    between atoms: N_20  and  C_23
REMARK    8  A    between atoms: C_23  and  C_24
REMARK    9  A    between atoms: C_24  and  C_25
REMARK   10  A    between atoms: C_25  and  C_26
REMARK   11  A    between atoms: C_26  and  N_27
REMARK                            x       y       z     vdW  Elec       q    Type
REMARK                         _______ _______ _______ _____ _____    ______ ____
ROOT
ATOM      1  O   UNL     1     -33.082  25.592   4.386  0.00  0.00    -0.267 OA
ATOM      2  N   UNL     1     -33.734  26.528   6.441  0.00  0.00    -0.298 N 
ATOM      3  C   UNL     1     -33.885  25.794   5.282  0.00  0.00    +0.285 C 
ATOM      4  H   UNL     1     -34.496  26.586   7.061  0.00  0.00    +0.150 HD
ENDROOT
BRANCH   3   6
ATOM      5  O   UNL     1     -36.198  25.905   5.320  0.00  0.00    -0.282 OA
ATOM      6  C   UNL     1     -35.238  25.164   5.168  0.00  0.00    +0.250 C 
BRANCH   6   9
ATOM      7  N   UNL     1     -35.656  21.543   5.261  0.00  0.00    -0.311 N 
ATOM      8  C   UNL     1     -35.292  23.040   3.650  0.00  0.00    +0.018 C 
ATOM      9  C   UNL     1     -35.369  23.713   4.901  0.00  0.00    +0.059 C 
ATOM     10  C   UNL     1     -35.476  21.680   3.904  0.00  0.00    +0.048 C 
ATOM     11  C   UNL     1     -35.593  22.766   5.873  0.00  0.00    +0.065 C 
ATOM     12  C   UNL     1     -35.084  23.460   2.321  0.00  0.00    +0.001 C 
ATOM     13  C   UNL     1     -35.460  20.714   2.891  0.00  0.00    +0.015 C 
ATOM     14  C   UNL     1     -35.065  22.506   1.298  0.00  0.00    +0.000 C 
ATOM     15  C   UNL     1     -35.251  21.153   1.581  0.00  0.00    +0.001 C 
ATOM     16  H   UNL     1     -35.808  20.687   5.726  0.00  0.00    +0.152 HD
ENDBRANCH   6   9
ENDBRANCH   3   6
BRANCH   2  17
ATOM     17  C   UNL     1     -32.517  27.211   6.785  0.00  0.00    +0.088 C 
BRANCH  17  18
ATOM     18  C   UNL     1     -32.153  28.300   5.779  0.00  0.00    -0.002 C 
BRANCH  18  19
ATOM     19  C   UNL     1     -31.761  29.639   6.411  0.00  0.00    -0.080 C 
BRANCH  19  20
ATOM     20  N   UNL     1     -32.367  30.767   5.716  0.00  0.00    +0.384 N 
ATOM     21  H   UNL     1     -33.353  30.827   5.973  0.00  0.00    -0.085 HD
ATOM     22  H   UNL     1     -31.876  31.619   5.988  0.00  0.00    -0.085 HD
BRANCH  20  23
ATOM     23  C   UNL     1     -32.259  30.606   4.271  0.00  0.00    -0.082 C 
BRANCH  23  24
ATOM     24  C   UNL     1     -33.588  30.951   3.598  0.00  0.00    -0.026 C 
BRANCH  24  25
ATOM     25  C   UNL     1     -33.827  30.069   2.367  0.00  0.00    -0.026 C 
BRANCH  25  26
ATOM     26  C   UNL     1     -35.194  29.382   2.364  0.00  0.00    -0.086 C 
BRANCH  26  27
ATOM     27  N   UNL     1     -35.302  28.357   3.396  0.00  0.00    +0.380 N 
ATOM     28  H   UNL     1     -36.070  28.588   4.025  0.00  0.00    -0.089 HD
ATOM     29  H   UNL     1     -34.431  28.315   3.925  0.00  0.00    -0.089 HD
ATOM     30  H   UNL     1     -35.479  27.453   2.959  0.00  0.00    -0.089 HD
ENDBRANCH  26  27
ENDBRANCH  25  26
ENDBRANCH  24  25
ENDBRANCH  23  24
ENDBRANCH  20  23
ENDBRANCH  19  20
ENDBRANCH  18  19
ENDBRANCH  17  18
ENDBRANCH   2  17
TORSDOF 11
ENDMDL
MODEL 3
REMARK VINA RESULT:      -5.4      5.632      7.695
REMARK  Name = 52951535
REMARK  11 active torsions:
REMARK  status: ('A' for Active; 'I' for Inactive)
REMARK    1  A    between atoms: N_2  and  C_17
REMARK    2  A    between atoms: C_3  and  C_6
REMARK    3  A    between atoms: C_6  and  C_9
REMARK    4  A    between atoms: C_17  and  C_18
REMARK    5  A    between atoms: C_18  and  C_19
REMARK    6  A    between atoms: C_19  and  N_20
REMARK    7  A    between atoms: N_20  and  C_23
REMARK    8  A    between atoms: C_23  and  C_24
REMARK    9  A    between atoms: C_24  and  C_25
REMARK   10  A    between atoms: C_25  and  C_26
REMARK   11  A    between atoms: C_26  and  N_27
REMARK                            x       y       z     vdW  Elec       q    Type
REMARK                         _______ _______ _______ _____ _____    ______ ____
ROOT
ATOM      1  O   UNL     1     -33.117  25.654   4.394  0.00  0.00    -0.267 OA
ATOM      2  N   UNL     1     -33.645  26.648   6.457  0.00  0.00    -0.298 N 
ATOM      3  C   UNL     1     -33.860  25.870   5.337  0.00  0.00    +0.285 C 
ATOM      4  H   UNL     1     -34.363  26.711   7.128  0.00  0.00    +0.150 HD
ENDROOT
BRANCH   3   6
ATOM      5  O   UNL     1     -36.158  25.915   5.620  0.00  0.00    -0.282 OA
ATOM      6  C   UNL     1     -35.202  25.207   5.342  0.00  0.00    +0.250 C 
BRANCH   6   9
ATOM      7  N   UNL     1     -35.560  21.578   5.342  0.00  0.00    -0.311 N 
ATOM      8  C   UNL     1     -35.304  23.131   3.762  0.00  0.00    +0.018 C 
ATOM      9  C   UNL     1     -35.325  23.763   5.036  0.00  0.00    +0.059 C 
ATOM     10  C   UNL     1     -35.454  21.761   3.982  0.00  0.00    +0.048 C 
ATOM     11  C   UNL     1     -35.484  22.782   5.988  0.00  0.00    +0.065 C 
ATOM     12  C   UNL     1     -35.173  23.595   2.438  0.00  0.00    +0.001 C 
ATOM     13  C   UNL     1     -35.478  20.826   2.940  0.00  0.00    +0.015 C 
ATOM     14  C   UNL     1     -35.195  22.673   1.386  0.00  0.00    +0.000 C 
ATOM     15  C   UNL     1     -35.345  21.310   1.635  0.00  0.00    +0.001 C 
ATOM     16  H   UNL     1     -35.675  20.707   5.786  0.00  0.00    +0.152 HD
ENDBRANCH   6   9
ENDBRANCH   3   6
BRANCH   2  17
ATOM     17  C   UNL     1     -32.424  27.369   6.690  0.00  0.00    +0.088 C 
BRANCH  17  18
ATOM     18  C   UNL     1     -32.248  28.546   5.735  0.00  0.00    -0.002 C 
BRANCH  18  19
ATOM     19  C   UNL     1     -31.510  29.745   6.336  0.00  0.00    -0.080 C 
BRANCH  19  20
ATOM     20  N   UNL     1     -30.549  29.339   7.352  0.00  0.00    +0.384 N 
ATOM     21  H   UNL     1     -30.721  29.870   8.206  0.00  0.00    -0.085 HD
ATOM     22  H   UNL     1     -30.661  28.340   7.526  0.00  0.00    -0.085 HD
BRANCH  20  23
ATOM     23  C   UNL     1     -29.183  29.585   6.903  0.00  0.00    -0.082 C 
BRANCH  23  24
ATOM     24  C   UNL     1     -28.191  29.269   8.024  0.00  0.00    -0.026 C 
BRANCH  24  25
ATOM     25  C   UNL     1     -27.201  28.183   7.591  0.00  0.00    -0.026 C 
BRANCH  25  26
ATOM     26  C   UNL     1     -27.873  26.951   6.981  0.00  0.00    -0.086 C 
BRANCH  26  27
ATOM     27  N   UNL     1     -27.392  26.666   5.634  0.00  0.00    +0.380 N 
ATOM     28  H   UNL     1     -28.102  26.938   4.955  0.00  0.00    -0.089 HD
ATOM     29  H   UNL     1     -27.202  25.668   5.545  0.00  0.00    -0.089 HD
ATOM     30  H   UNL     1     -26.536  27.193   5.461  0.00  0.00    -0.089 HD
ENDBRANCH  26  27
ENDBRANCH  25  26
ENDBRANCH  24  25
ENDBRANCH  23  24
ENDBRANCH  20  23
ENDBRANCH  19  20
ENDBRANCH  18  19
ENDBRANCH  17  18
ENDBRANCH   2  17
TORSDOF 11
ENDMDL
MODEL 4
REMARK VINA RESULT:      -5.3      1.525      3.011
REMARK  Name = 52951535
REMARK  11 active torsions:
REMARK  status: ('A' for Active; 'I' for Inactive)
REMARK    1  A    between atoms: N_2  and  C_17
REMARK    2  A    between atoms: C_3  and  C_6
REMARK    3  A    between atoms: C_6  and  C_9
REMARK    4  A    between atoms: C_17  and  C_18
REMARK    5  A    between atoms: C_18  and  C_19
REMARK    6  A    between atoms: C_19  and  N_20
REMARK    7  A    between atoms: N_20  and  C_23
REMARK    8  A    between atoms: C_23  and  C_24
REMARK    9  A    between atoms: C_24  and  C_25
REMARK   10  A    between atoms: C_25  and  C_26
REMARK   11  A    between atoms: C_26  and  N_27
REMARK                            x       y       z     vdW  Elec       q    Type
REMARK                         _______ _______ _______ _____ _____    ______ ____
ROOT
ATOM      1  O   UNL     1     -35.235  20.618   4.193  0.00  0.00    -0.267 OA
ATOM      2  N   UNL     1     -35.795  22.880   3.887  0.00  0.00    -0.298 N 
ATOM      3  C   UNL     1     -35.533  21.580   3.504  0.00  0.00    +0.285 C 
ATOM      4  H   UNL     1     -36.023  23.536   3.190  0.00  0.00    +0.150 HD
ENDROOT
BRANCH   3   6
ATOM      5  O   UNL     1     -36.801  21.258   1.594  0.00  0.00    -0.282 OA
ATOM      6  C   UNL     1     -35.665  21.374   2.028  0.00  0.00    +0.250 C 
BRANCH   6   9
ATOM      7  N   UNL     1     -32.896  21.903  -0.285  0.00  0.00    -0.311 N 
ATOM      8  C   UNL     1     -33.547  20.221   1.026  0.00  0.00    +0.018 C 
ATOM      9  C   UNL     1     -34.460  21.303   1.170  0.00  0.00    +0.059 C 
ATOM     10  C   UNL     1     -32.576  20.624   0.108  0.00  0.00    +0.048 C 
ATOM     11  C   UNL     1     -34.033  22.322   0.351  0.00  0.00    +0.065 C 
ATOM     12  C   UNL     1     -33.453  18.934   1.593  0.00  0.00    +0.001 C 
ATOM     13  C   UNL     1     -31.511  19.800  -0.275  0.00  0.00    +0.015 C 
ATOM     14  C   UNL     1     -32.395  18.099   1.219  0.00  0.00    +0.000 C 
ATOM     15  C   UNL     1     -31.439  18.527   0.298  0.00  0.00    +0.001 C 
ATOM     16  H   UNL     1     -32.382  22.439  -0.932  0.00  0.00    +0.152 HD
ENDBRANCH   6   9
ENDBRANCH   3   6
BRANCH   2  17
ATOM     17  C   UNL     1     -35.753  23.320   5.255  0.00  0.00    +0.088 C 
BRANCH  17  18
ATOM     18  C   UNL     1     -35.036  24.659   5.416  0.00  0.00    -0.002 C 
BRANCH  18  19
ATOM     19  C   UNL     1     -35.967  25.873   5.466  0.00  0.00    -0.080 C 
BRANCH  19  20
ATOM     20  N   UNL     1     -35.531  26.930   4.565  0.00  0.00    +0.384 N 
ATOM     21  H   UNL     1     -36.228  27.676   4.563  0.00  0.00    -0.085 HD
ATOM     22  H   UNL     1     -34.632  27.285   4.889  0.00  0.00    -0.085 HD
BRANCH  20  23
ATOM     23  C   UNL     1     -35.371  26.423   3.207  0.00  0.00    -0.082 C 
BRANCH  23  24
ATOM     24  C   UNL     1     -36.605  26.757   2.367  0.00  0.00    -0.026 C 
BRANCH  24  25
ATOM     25  C   UNL     1     -37.392  25.490   2.019  0.00  0.00    -0.026 C 
BRANCH  25  26
ATOM     26  C   UNL     1     -38.836  25.509   2.527  0.00  0.00    -0.086 C 
BRANCH  26  27
ATOM     27  N   UNL     1     -38.969  24.894   3.842  0.00  0.00    +0.380 N 
ATOM     28  H   UNL     1     -38.047  24.636   4.192  0.00  0.00    -0.089 HD
ATOM     29  H   UNL     1     -39.550  24.059   3.769  0.00  0.00    -0.089 HD
ATOM     30  H   UNL     1     -39.403  25.556   4.485  0.00  0.00    -0.089 HD
ENDBRANCH  26  27
ENDBRANCH  25  26
ENDBRANCH  24  25
ENDBRANCH  23  24
ENDBRANCH  20  23
ENDBRANCH  19  20
ENDBRANCH  18  19
ENDBRANCH  17  18
ENDBRANCH   2  17
TORSDOF 11
ENDMDL
MODEL 5
REMARK VINA RESULT:      -5.2      5.046      6.995
REMARK  Name = 52951535
REMARK  11 active torsions:
REMARK  status: ('A' for Active; 'I' for Inactive)
REMARK    1  A    between atoms: N_2  and  C_17
REMARK    2  A    between atoms: C_3  and  C_6
REMARK    3  A    between atoms: C_6  and  C_9
REMARK    4  A    between atoms: C_17  and  C_18
REMARK    5  A    between atoms: C_18  and  C_19
REMARK    6  A    between atoms: C_19  and  N_20
REMARK    7  A    between atoms: N_20  and  C_23
REMARK    8  A    between atoms: C_23  and  C_24
REMARK    9  A    between atoms: C_24  and  C_25
REMARK   10  A    between atoms: C_25  and  C_26
REMARK   11  A    between atoms: C_26  and  N_27
REMARK                            x       y       z     vdW  Elec       q    Type
REMARK                         _______ _______ _______ _____ _____    ______ ____
ROOT
ATOM      1  O   UNL     1     -33.467  27.367   3.297  0.00  0.00    -0.267 OA
ATOM      2  N   UNL     1     -35.565  28.395   3.040  0.00  0.00    -0.298 N 
ATOM      3  C   UNL     1     -34.673  27.432   3.468  0.00  0.00    +0.285 C 
ATOM      4  H   UNL     1     -36.516  28.288   3.270  0.00  0.00    +0.150 HD
ENDROOT
BRANCH   3   6
ATOM      5  O   UNL     1     -35.789  26.672   5.350  0.00  0.00    -0.282 OA
ATOM      6  C   UNL     1     -35.330  26.348   4.264  0.00  0.00    +0.250 C 
BRANCH   6   9
ATOM      7  N   UNL     1     -35.556  23.283   2.302  0.00  0.00    -0.311 N 
ATOM      8  C   UNL     1     -35.309  23.745   4.469  0.00  0.00    +0.018 C 
ATOM      9  C   UNL     1     -35.390  24.964   3.740  0.00  0.00    +0.059 C 
ATOM     10  C   UNL     1     -35.415  22.706   3.543  0.00  0.00    +0.048 C 
ATOM     11  C   UNL     1     -35.543  24.647   2.410  0.00  0.00    +0.065 C 
ATOM     12  C   UNL     1     -35.153  23.425   5.833  0.00  0.00    +0.001 C 
ATOM     13  C   UNL     1     -35.374  21.357   3.914  0.00  0.00    +0.015 C 
ATOM     14  C   UNL     1     -35.111  22.081   6.219  0.00  0.00    +0.000 C 
ATOM     15  C   UNL     1     -35.220  21.064   5.272  0.00  0.00    +0.001 C 
ATOM     16  H   UNL     1     -35.653  22.786   1.457  0.00  0.00    +0.152 HD
ENDBRANCH   6   9
ENDBRANCH   3   6
BRANCH   2  17
ATOM     17  C   UNL     1     -35.170  29.546   2.275  0.00  0.00    +0.088 C 
BRANCH  17  18
ATOM     18  C   UNL     1     -35.029  30.799   3.136  0.00  0.00    -0.002 C 
BRANCH  18  19
ATOM     19  C   UNL     1     -33.606  31.359   3.210  0.00  0.00    -0.080 C 
BRANCH  19  20
ATOM     20  N   UNL     1     -32.658  30.373   3.709  0.00  0.00    +0.384 N 
ATOM     21  H   UNL     1     -33.133  29.475   3.812  0.00  0.00    -0.085 HD
ATOM     22  H   UNL     1     -31.889  30.293   3.043  0.00  0.00    -0.085 HD
BRANCH  20  23
ATOM     23  C   UNL     1     -32.117  30.778   5.001  0.00  0.00    -0.082 C 
BRANCH  23  24
ATOM     24  C   UNL     1     -30.749  30.135   5.230  0.00  0.00    -0.026 C 
BRANCH  24  25
ATOM     25  C   UNL     1     -30.892  28.657   5.606  0.00  0.00    -0.026 C 
BRANCH  25  26
ATOM     26  C   UNL     1     -31.894  28.409   6.736  0.00  0.00    -0.086 C 
BRANCH  26  27
ATOM     27  N   UNL     1     -32.842  27.348   6.414  0.00  0.00    +0.380 N 
ATOM     28  H   UNL     1     -32.652  26.534   6.998  0.00  0.00    -0.089 HD
ATOM     29  H   UNL     1     -32.744  27.092   5.432  0.00  0.00    -0.089 HD
ATOM     30  H   UNL     1     -33.791  27.677   6.588  0.00  0.00    -0.089 HD
ENDBRANCH  26  27
ENDBRANCH  25  26
ENDBRANCH  24  25
ENDBRANCH  23  24
ENDBRANCH  20  23
ENDBRANCH  19  20
ENDBRANCH  18  19
ENDBRANCH  17  18
ENDBRANCH   2  17
TORSDOF 11
ENDMDL
MODEL 6
REMARK VINA RESULT:      -5.2      5.419      7.714
REMARK  Name = 52951535
REMARK  11 active torsions:
REMARK  status: ('A' for Active; 'I' for Inactive)
REMARK    1  A    between atoms: N_2  and  C_17
REMARK    2  A    between atoms: C_3  and  C_6
REMARK    3  A    between atoms: C_6  and  C_9
REMARK    4  A    between atoms: C_17  and  C_18
REMARK    5  A    between atoms: C_18  and  C_19
REMARK    6  A    between atoms: C_19  and  N_20
REMARK    7  A    between atoms: N_20  and  C_23
REMARK    8  A    between atoms: C_23  and  C_24
REMARK    9  A    between atoms: C_24  and  C_25
REMARK   10  A    between atoms: C_25  and  C_26
REMARK   11  A    between atoms: C_26  and  N_27
REMARK                            x       y       z     vdW  Elec       q    Type
REMARK                         _______ _______ _______ _____ _____    ______ ____
ROOT
ATOM      1  O   UNL     1     -32.090  27.003   3.744  0.00  0.00    -0.267 OA
ATOM      2  N   UNL     1     -33.288  27.425   5.722  0.00  0.00    -0.298 N 
ATOM      3  C   UNL     1     -33.118  27.075   4.398  0.00  0.00    +0.285 C 
ATOM      4  H   UNL     1     -34.201  27.429   6.092  0.00  0.00    +0.150 HD
ENDROOT
BRANCH   3   6
ATOM      5  O   UNL     1     -35.192  27.643   3.536  0.00  0.00    -0.282 OA
ATOM      6  C   UNL     1     -34.407  26.724   3.722  0.00  0.00    +0.250 C 
BRANCH   6   9
ATOM      7  N   UNL     1     -35.050  23.554   2.040  0.00  0.00    -0.311 N 
ATOM      8  C   UNL     1     -34.917  24.203   4.169  0.00  0.00    +0.018 C 
ATOM      9  C   UNL     1     -34.690  25.326   3.325  0.00  0.00    +0.059 C 
ATOM     10  C   UNL     1     -35.140  23.105   3.338  0.00  0.00    +0.048 C 
ATOM     11  C   UNL     1     -34.778  24.895   2.022  0.00  0.00    +0.065 C 
ATOM     12  C   UNL     1     -34.954  24.016   5.566  0.00  0.00    +0.001 C 
ATOM     13  C   UNL     1     -35.400  21.822   3.835  0.00  0.00    +0.015 C 
ATOM     14  C   UNL     1     -35.213  22.740   6.077  0.00  0.00    +0.000 C 
ATOM     15  C   UNL     1     -35.432  21.660   5.222  0.00  0.00    +0.001 C 
ATOM     16  H   UNL     1     -35.164  22.991   1.240  0.00  0.00    +0.152 HD
ENDBRANCH   6   9
ENDBRANCH   3   6
BRANCH   2  17
ATOM     17  C   UNL     1     -32.198  27.782   6.586  0.00  0.00    +0.088 C 
BRANCH  17  18
ATOM     18  C   UNL     1     -31.709  29.209   6.352  0.00  0.00    -0.002 C 
BRANCH  18  19
ATOM     19  C   UNL     1     -30.273  29.308   5.827  0.00  0.00    -0.080 C 
BRANCH  19  20
ATOM     20  N   UNL     1     -30.233  29.533   4.389  0.00  0.00    +0.384 N 
ATOM     21  H   UNL     1     -29.296  29.839   4.125  0.00  0.00    -0.085 HD
ATOM     22  H   UNL     1     -30.469  28.660   3.916  0.00  0.00    -0.085 HD
BRANCH  20  23
ATOM     23  C   UNL     1     -31.198  30.553   3.995  0.00  0.00    -0.082 C 
BRANCH  23  24
ATOM     24  C   UNL     1     -31.616  30.354   2.537  0.00  0.00    -0.026 C 
BRANCH  24  25
ATOM     25  C   UNL     1     -33.138  30.238   2.413  0.00  0.00    -0.026 C 
BRANCH  25  26
ATOM     26  C   UNL     1     -33.898  30.919   3.553  0.00  0.00    -0.086 C 
BRANCH  26  27
ATOM     27  N   UNL     1     -35.329  30.639   3.511  0.00  0.00    +0.380 N 
ATOM     28  H   UNL     1     -35.475  29.639   3.377  0.00  0.00    -0.089 HD
ATOM     29  H   UNL     1     -35.753  31.151   2.738  0.00  0.00    -0.089 HD
ATOM     30  H   UNL     1     -35.758  30.931   4.389  0.00  0.00    -0.089 HD
ENDBRANCH  26  27
ENDBRANCH  25  26
ENDBRANCH  24  25
ENDBRANCH  23  24
ENDBRANCH  20  23
ENDBRANCH  19  20
ENDBRANCH  18  19
ENDBRANCH  17  18
ENDBRANCH   2  17
TORSDOF 11
ENDMDL
MODEL 7
REMARK VINA RESULT:      -5.2      4.948      6.857
REMARK  Name = 52951535
REMARK  11 active torsions:
REMARK  status: ('A' for Active; 'I' for Inactive)
REMARK    1  A    between atoms: N_2  and  C_17
REMARK    2  A    between atoms: C_3  and  C_6
REMARK    3  A    between atoms: C_6  and  C_9
REMARK    4  A    between atoms: C_17  and  C_18
REMARK    5  A    between atoms: C_18  and  C_19
REMARK    6  A    between atoms: C_19  and  N_20
REMARK    7  A    between atoms: N_20  and  C_23
REMARK    8  A    between atoms: C_23  and  C_24
REMARK    9  A    between atoms: C_24  and  C_25
REMARK   10  A    between atoms: C_25  and  C_26
REMARK   11  A    between atoms: C_26  and  N_27
REMARK                            x       y       z     vdW  Elec       q    Type
REMARK                         _______ _______ _______ _____ _____    ______ ____
ROOT
ATOM      1  O   UNL     1     -33.104  25.972   4.507  0.00  0.00    -0.267 OA
ATOM      2  N   UNL     1     -34.708  27.420   3.582  0.00  0.00    -0.298 N 
ATOM      3  C   UNL     1     -34.250  26.351   4.325  0.00  0.00    +0.285 C 
ATOM      4  H   UNL     1     -35.678  27.582   3.544  0.00  0.00    +0.150 HD
ENDROOT
BRANCH   3   6
ATOM      5  O   UNL     1     -36.118  26.251   5.690  0.00  0.00    -0.282 OA
ATOM      6  C   UNL     1     -35.355  25.596   4.995  0.00  0.00    +0.250 C 
BRANCH   6   9
ATOM      7  N   UNL     1     -35.787  21.988   5.302  0.00  0.00    -0.311 N 
ATOM      8  C   UNL     1     -35.342  23.379   3.617  0.00  0.00    +0.018 C 
ATOM      9  C   UNL     1     -35.477  24.131   4.817  0.00  0.00    +0.059 C 
ATOM     10  C   UNL     1     -35.542  22.038   3.949  0.00  0.00    +0.048 C 
ATOM     11  C   UNL     1     -35.750  23.248   5.836  0.00  0.00    +0.065 C 
ATOM     12  C   UNL     1     -35.069  23.712   2.275  0.00  0.00    +0.001 C 
ATOM     13  C   UNL     1     -35.481  21.008   3.003  0.00  0.00    +0.015 C 
ATOM     14  C   UNL     1     -35.005  22.693   1.318  0.00  0.00    +0.000 C 
ATOM     15  C   UNL     1     -35.209  21.362   1.679  0.00  0.00    +0.001 C 
ATOM     16  H   UNL     1     -35.964  21.165   5.813  0.00  0.00    +0.152 HD
ENDBRANCH   6   9
ENDBRANCH   3   6
BRANCH   2  17
ATOM     17  C   UNL     1     -33.837  28.308   2.863  0.00  0.00    +0.088 C 
BRANCH  17  18
ATOM     18  C   UNL     1     -34.325  29.754   2.888  0.00  0.00    -0.002 C 
BRANCH  18  19
ATOM     19  C   UNL     1     -33.388  30.726   3.610  0.00  0.00    -0.080 C 
BRANCH  19  20
ATOM     20  N   UNL     1     -32.008  30.583   3.168  0.00  0.00    +0.384 N 
ATOM     21  H   UNL     1     -31.958  29.845   2.464  0.00  0.00    -0.085 HD
ATOM     22  H   UNL     1     -31.698  31.471   2.775  0.00  0.00    -0.085 HD
BRANCH  20  23
ATOM     23  C   UNL     1     -31.138  30.236   4.285  0.00  0.00    -0.082 C 
BRANCH  23  24
ATOM     24  C   UNL     1     -31.626  30.911   5.568  0.00  0.00    -0.026 C 
BRANCH  24  25
ATOM     25  C   UNL     1     -31.634  29.924   6.740  0.00  0.00    -0.026 C 
BRANCH  25  26
ATOM     26  C   UNL     1     -31.607  28.457   6.303  0.00  0.00    -0.086 C 
BRANCH  26  27
ATOM     27  N   UNL     1     -32.521  27.630   7.081  0.00  0.00    +0.380 N 
ATOM     28  H   UNL     1     -32.714  28.084   7.974  0.00  0.00    -0.089 HD
ATOM     29  H   UNL     1     -32.094  26.718   7.250  0.00  0.00    -0.089 HD
ATOM     30  H   UNL     1     -33.392  27.508   6.566  0.00  0.00    -0.089 HD
ENDBRANCH  26  27
ENDBRANCH  25  26
ENDBRANCH  24  25
ENDBRANCH  23  24
ENDBRANCH  20  23
ENDBRANCH  19  20
ENDBRANCH  18  19
ENDBRANCH  17  18
ENDBRANCH   2  17
TORSDOF 11
ENDMDL
MODEL 8
REMARK VINA RESULT:      -5.2      4.783      7.926
REMARK  Name = 52951535
REMARK  11 active torsions:
REMARK  status: ('A' for Active; 'I' for Inactive)
REMARK    1  A    between atoms: N_2  and  C_17
REMARK    2  A    between atoms: C_3  and  C_6
REMARK    3  A    between atoms: C_6  and  C_9
REMARK    4  A    between atoms: C_17  and  C_18
REMARK    5  A    between atoms: C_18  and  C_19
REMARK    6  A    between atoms: C_19  and  N_20
REMARK    7  A    between atoms: N_20  and  C_23
REMARK    8  A    between atoms: C_23  and  C_24
REMARK    9  A    between atoms: C_24  and  C_25
REMARK   10  A    between atoms: C_25  and  C_26
REMARK   11  A    between atoms: C_26  and  N_27
REMARK                            x       y       z     vdW  Elec       q    Type
REMARK                         _______ _______ _______ _____ _____    ______ ____
ROOT
ATOM      1  O   UNL     1     -35.793  26.283   5.611  0.00  0.00    -0.267 OA
ATOM      2  N   UNL     1     -34.562  24.306   5.298  0.00  0.00    -0.298 N 
ATOM      3  C   UNL     1     -34.817  25.660   5.226  0.00  0.00    +0.285 C 
ATOM      4  H   UNL     1     -33.712  23.969   4.934  0.00  0.00    +0.150 HD
ENDROOT
BRANCH   3   6
ATOM      5  O   UNL     1     -33.449  26.168   3.428  0.00  0.00    -0.282 OA
ATOM      6  C   UNL     1     -33.696  26.427   4.597  0.00  0.00    +0.250 C 
BRANCH   6   9
ATOM      7  N   UNL     1     -31.886  28.380   7.088  0.00  0.00    -0.311 N 
ATOM      8  C   UNL     1     -32.473  28.705   4.961  0.00  0.00    +0.018 C 
ATOM      9  C   UNL     1     -32.939  27.428   5.382  0.00  0.00    +0.059 C 
ATOM     10  C   UNL     1     -31.816  29.280   6.049  0.00  0.00    +0.048 C 
ATOM     11  C   UNL     1     -32.563  27.257   6.694  0.00  0.00    +0.065 C 
ATOM     12  C   UNL     1     -32.547  29.428   3.753  0.00  0.00    +0.001 C 
ATOM     13  C   UNL     1     -31.226  30.549   5.991  0.00  0.00    +0.015 C 
ATOM     14  C   UNL     1     -31.963  30.697   3.680  0.00  0.00    +0.000 C 
ATOM     15  C   UNL     1     -31.313  31.247   4.784  0.00  0.00    +0.001 C 
ATOM     16  H   UNL     1     -31.504  28.523   7.984  0.00  0.00    +0.152 HD
ENDBRANCH   6   9
ENDBRANCH   3   6
BRANCH   2  17
ATOM     17  C   UNL     1     -35.479  23.364   5.879  0.00  0.00    +0.088 C 
BRANCH  17  18
ATOM     18  C   UNL     1     -35.097  21.916   5.581  0.00  0.00    -0.002 C 
BRANCH  18  19
ATOM     19  C   UNL     1     -35.550  21.411   4.208  0.00  0.00    -0.080 C 
BRANCH  19  20
ATOM     20  N   UNL     1     -36.697  22.155   3.706  0.00  0.00    +0.384 N 
ATOM     21  H   UNL     1     -37.547  21.790   4.137  0.00  0.00    -0.085 HD
ATOM     22  H   UNL     1     -36.575  23.140   3.940  0.00  0.00    -0.085 HD
BRANCH  20  23
ATOM     23  C   UNL     1     -36.804  22.029   2.257  0.00  0.00    -0.082 C 
BRANCH  23  24
ATOM     24  C   UNL     1     -37.397  23.304   1.656  0.00  0.00    -0.026 C 
BRANCH  24  25
ATOM     25  C   UNL     1     -36.768  24.552   2.283  0.00  0.00    -0.026 C 
BRANCH  25  26
ATOM     26  C   UNL     1     -37.796  25.545   2.831  0.00  0.00    -0.086 C 
BRANCH  26  27
ATOM     27  N   UNL     1     -38.295  25.158   4.145  0.00  0.00    +0.380 N 
ATOM     28  H   UNL     1     -38.535  24.167   4.139  0.00  0.00    -0.089 HD
ATOM     29  H   UNL     1     -39.126  25.707   4.368  0.00  0.00    -0.089 HD
ATOM     30  H   UNL     1     -37.575  25.329   4.846  0.00  0.00    -0.089 HD
ENDBRANCH  26  27
ENDBRANCH  25  26
ENDBRANCH  24  25
ENDBRANCH  23  24
ENDBRANCH  20  23
ENDBRANCH  19  20
ENDBRANCH  18  19
ENDBRANCH  17  18
ENDBRANCH   2  17
TORSDOF 11
ENDMDL
MODEL 9
REMARK VINA RESULT:      -5.1      1.754      2.877
REMARK  Name = 52951535
REMARK  11 active torsions:
REMARK  status: ('A' for Active; 'I' for Inactive)
REMARK    1  A    between atoms: N_2  and  C_17
REMARK    2  A    between atoms: C_3  and  C_6
REMARK    3  A    between atoms: C_6  and  C_9
REMARK    4  A    between atoms: C_17  and  C_18
REMARK    5  A    between atoms: C_18  and  C_19
REMARK    6  A    between atoms: C_19  and  N_20
REMARK    7  A    between atoms: N_20  and  C_23
REMARK    8  A    between atoms: C_23  and  C_24
REMARK    9  A    between atoms: C_24  and  C_25
REMARK   10  A    between atoms: C_25  and  C_26
REMARK   11  A    between atoms: C_26  and  N_27
REMARK                            x       y       z     vdW  Elec       q    Type
REMARK                         _______ _______ _______ _____ _____    ______ ____
ROOT
ATOM      1  O   UNL     1     -34.897  20.216   2.613  0.00  0.00    -0.267 OA
ATOM      2  N   UNL     1     -36.748  20.497   1.193  0.00  0.00    -0.298 N 
ATOM      3  C   UNL     1     -35.497  20.047   1.565  0.00  0.00    +0.285 C 
ATOM      4  H   UNL     1     -37.082  20.265   0.296  0.00  0.00    +0.150 HD
ENDROOT
BRANCH   3   6
ATOM      5  O   UNL     1     -35.554  18.842  -0.412  0.00  0.00    -0.282 OA
ATOM      6  C   UNL     1     -34.838  19.226   0.501  0.00  0.00    +0.250 C 
BRANCH   6   9
ATOM      7  N   UNL     1     -31.529  17.821   1.109  0.00  0.00    -0.311 N 
ATOM      8  C   UNL     1     -32.297  19.636   0.065  0.00  0.00    +0.018 C 
ATOM      9  C   UNL     1     -33.396  18.901   0.591  0.00  0.00    +0.059 C 
ATOM     10  C   UNL     1     -31.138  18.936   0.404  0.00  0.00    +0.048 C 
ATOM     11  C   UNL     1     -32.892  17.791   1.228  0.00  0.00    +0.065 C 
ATOM     12  C   UNL     1     -32.177  20.832  -0.670  0.00  0.00    +0.001 C 
ATOM     13  C   UNL     1     -29.858  19.375   0.044  0.00  0.00    +0.015 C 
ATOM     14  C   UNL     1     -30.905  21.284  -1.037  0.00  0.00    +0.000 C 
ATOM     15  C   UNL     1     -29.764  20.564  -0.685  0.00  0.00    +0.001 C 
ATOM     16  H   UNL     1     -30.916  17.143   1.476  0.00  0.00    +0.152 HD
ENDBRANCH   6   9
ENDBRANCH   3   6
BRANCH   2  17
ATOM     17  C   UNL     1     -37.586  21.288   2.051  0.00  0.00    +0.088 C 
BRANCH  17  18
ATOM     18  C   UNL     1     -37.236  22.774   2.003  0.00  0.00    -0.002 C 
BRANCH  18  19
ATOM     19  C   UNL     1     -36.834  23.374   3.353  0.00  0.00    -0.080 C 
BRANCH  19  20
ATOM     20  N   UNL     1     -36.323  22.362   4.268  0.00  0.00    +0.384 N 
ATOM     21  H   UNL     1     -37.104  21.808   4.623  0.00  0.00    -0.085 HD
ATOM     22  H   UNL     1     -35.666  21.768   3.763  0.00  0.00    -0.085 HD
BRANCH  20  23
ATOM     23  C   UNL     1     -35.628  22.981   5.391  0.00  0.00    -0.082 C 
BRANCH  23  24
ATOM     24  C   UNL     1     -34.468  23.841   4.888  0.00  0.00    -0.026 C 
BRANCH  24  25
ATOM     25  C   UNL     1     -34.479  25.222   5.552  0.00  0.00    -0.026 C 
BRANCH  25  26
ATOM     26  C   UNL     1     -35.205  26.289   4.731  0.00  0.00    -0.086 C 
BRANCH  26  27
ATOM     27  N   UNL     1     -36.546  26.561   5.235  0.00  0.00    +0.380 N 
ATOM     28  H   UNL     1     -37.228  26.387   4.498  0.00  0.00    -0.089 HD
ATOM     29  H   UNL     1     -36.607  27.535   5.532  0.00  0.00    -0.089 HD
ATOM     30  H   UNL     1     -36.741  25.950   6.029  0.00  0.00    -0.089 HD
ENDBRANCH  26  27
ENDBRANCH  25  26
ENDBRANCH  24  25
ENDBRANCH  23  24
ENDBRANCH  20  23
ENDBRANCH  19  20
ENDBRANCH  18  19
ENDBRANCH  17  18
ENDBRANCH   2  17
TORSDOF 11
ENDMDL
