MODEL 1
REMARK VINA RESULT:      -6.9      0.000      0.000
REMARK  Name = 60209141
REMARK  2 active torsions:
REMARK  status: ('A' for Active; 'I' for Inactive)
REMARK    1  A    between atoms: C_11  and  C_31
REMARK    2  A    between atoms: C_12  and  O_34
REMARK                            x       y       z     vdW  Elec       q    Type
REMARK                         _______ _______ _______ _____ _____    ______ ____
ROOT
ATOM      1  S   UNL     1     -35.014  25.413  -1.125  0.00  0.00    -0.080 S 
ATOM      2  S   UNL     1     -33.622  23.908  -1.317  0.00  0.00    -0.082 S 
ATOM      3  O   UNL     1     -36.095  24.169   3.573  0.00  0.00    -0.447 OA
ATOM      4  O   UNL     1     -35.502  29.076   2.547  0.00  0.00    -0.273 OA
ATOM      5  O   UNL     1     -35.220  23.776   5.677  0.00  0.00    -0.250 OA
ATOM      6  O   UNL     1     -38.021  28.336   0.354  0.00  0.00    -0.273 OA
ATOM      7  O   UNL     1     -39.393  24.502   3.740  0.00  0.00    -0.275 OA
ATOM      8  N   UNL     1     -33.717  27.616   2.694  0.00  0.00    -0.302 N 
ATOM      9  N   UNL     1     -36.502  26.814   1.214  0.00  0.00    -0.296 N 
ATOM     10  N   UNL     1     -38.457  25.071   1.686  0.00  0.00    -0.298 N 
ATOM     11  C   UNL     1     -33.458  27.728   4.130  0.00  0.00    +0.099 C 
ATOM     12  C   UNL     1     -33.752  26.356   4.788  0.00  0.00    +0.139 C 
ATOM     13  C   UNL     1     -35.249  26.020   4.780  0.00  0.00    +0.140 C 
ATOM     14  C   UNL     1     -35.261  27.455   0.778  0.00  0.00    +0.160 C 
ATOM     15  C   UNL     1     -34.817  28.172   2.063  0.00  0.00    +0.241 C 
ATOM     16  C   UNL     1     -35.494  24.527   4.749  0.00  0.00    +0.320 C 
ATOM     17  C   UNL     1     -34.286  26.417   0.211  0.00  0.00    +0.098 C 
ATOM     18  C   UNL     1     -36.720  22.866   3.517  0.00  0.00    +0.200 C 
ATOM     19  C   UNL     1     -38.873  26.466   1.637  0.00  0.00    +0.149 C 
ATOM     20  C   UNL     1     -37.979  22.906   2.627  0.00  0.00    +0.133 C 
ATOM     21  C   UNL     1     -37.777  27.288   0.950  0.00  0.00    +0.241 C 
ATOM     22  C   UNL     1     -38.712  24.228   2.757  0.00  0.00    +0.227 C 
ATOM     23  C   UNL     1     -35.727  21.815   3.090  0.00  0.00    +0.013 C 
ATOM     24  C   UNL     1     -40.214  26.605   0.932  0.00  0.00    +0.031 C 
ATOM     25  C   UNL     1     -35.065  21.695   1.927  0.00  0.00    -0.026 C 
ATOM     26  C   UNL     1     -35.118  22.604   0.727  0.00  0.00    +0.038 C 
ATOM     27  C   UNL     1     -33.710  22.972   0.260  0.00  0.00    +0.073 C 
ATOM     28  H   UNL     1     -33.071  27.118   2.144  0.00  0.00    +0.150 HD
ATOM     29  H   UNL     1     -36.425  25.982   1.735  0.00  0.00    +0.150 HD
ATOM     30  H   UNL     1     -37.966  24.707   0.914  0.00  0.00    +0.150 HD
ENDROOT
BRANCH  11  31
ATOM     31  C   UNL     1     -32.019  28.194   4.342  0.00  0.00    +0.020 C 
ATOM     32  C   UNL     1     -31.987  29.652   4.794  0.00  0.00    +0.002 C 
ATOM     33  C   UNL     1     -31.202  28.010   3.065  0.00  0.00    +0.002 C 
ENDBRANCH  11  31
BRANCH  12  34
ATOM     34  O   UNL     1     -33.329  26.356   6.151  0.00  0.00    -0.382 OA
ATOM     35  H   UNL     1     -32.632  27.020   6.274  0.00  0.00    +0.210 HD
ENDBRANCH  12  34
TORSDOF 2
ENDMDL
MODEL 2
REMARK VINA RESULT:      -6.5      2.189      5.367
REMARK  Name = 60209141
REMARK  2 active torsions:
REMARK  status: ('A' for Active; 'I' for Inactive)
REMARK    1  A    between atoms: C_11  and  C_31
REMARK    2  A    between atoms: C_12  and  O_34
REMARK                            x       y       z     vdW  Elec       q    Type
REMARK                         _______ _______ _______ _____ _____    ______ ____
ROOT
ATOM      1  S   UNL     1     -31.723  26.633   1.021  0.00  0.00    -0.080 S 
ATOM      2  S   UNL     1     -31.678  25.292  -0.541  0.00  0.00    -0.082 S 
ATOM      3  O   UNL     1     -36.676  27.100   0.818  0.00  0.00    -0.447 OA
ATOM      4  O   UNL     1     -34.575  26.603   5.381  0.00  0.00    -0.273 OA
ATOM      5  O   UNL     1     -38.689  25.961   0.839  0.00  0.00    -0.250 OA
ATOM      6  O   UNL     1     -32.922  29.393   4.294  0.00  0.00    -0.273 OA
ATOM      7  O   UNL     1     -37.185  30.345   1.299  0.00  0.00    -0.275 OA
ATOM      8  N   UNL     1     -34.799  24.827   3.919  0.00  0.00    -0.302 N 
ATOM      9  N   UNL     1     -33.885  27.789   2.929  0.00  0.00    -0.296 N 
ATOM     10  N   UNL     1     -34.955  29.681   1.395  0.00  0.00    -0.298 N 
ATOM     11  C   UNL     1     -36.135  24.381   4.317  0.00  0.00    +0.099 C 
ATOM     12  C   UNL     1     -37.099  24.599   3.123  0.00  0.00    +0.139 C 
ATOM     13  C   UNL     1     -37.350  26.086   2.847  0.00  0.00    +0.140 C 
ATOM     14  C   UNL     1     -33.171  26.609   3.420  0.00  0.00    +0.160 C 
ATOM     15  C   UNL     1     -34.209  25.995   4.372  0.00  0.00    +0.241 C 
ATOM     16  C   UNL     1     -37.666  26.347   1.390  0.00  0.00    +0.320 C 
ATOM     17  C   UNL     1     -32.717  25.727   2.252  0.00  0.00    +0.098 C 
ATOM     18  C   UNL     1     -36.975  27.740  -0.445  0.00  0.00    +0.200 C 
ATOM     19  C   UNL     1     -34.667  30.087   2.763  0.00  0.00    +0.149 C 
ATOM     20  C   UNL     1     -36.262  29.103  -0.544  0.00  0.00    +0.133 C 
ATOM     21  C   UNL     1     -33.689  29.084   3.384  0.00  0.00    +0.241 C 
ATOM     22  C   UNL     1     -36.203  29.801   0.802  0.00  0.00    +0.227 C 
ATOM     23  C   UNL     1     -36.657  26.821  -1.596  0.00  0.00    +0.013 C 
ATOM     24  C   UNL     1     -34.123  31.507   2.802  0.00  0.00    +0.031 C 
ATOM     25  C   UNL     1     -35.471  26.318  -1.979  0.00  0.00    -0.026 C 
ATOM     26  C   UNL     1     -34.123  26.520  -1.338  0.00  0.00    +0.038 C 
ATOM     27  C   UNL     1     -33.415  25.181  -1.126  0.00  0.00    +0.073 C 
ATOM     28  H   UNL     1     -34.289  24.263   3.294  0.00  0.00    +0.150 HD
ATOM     29  H   UNL     1     -34.555  27.652   2.221  0.00  0.00    +0.150 HD
ATOM     30  H   UNL     1     -34.222  29.299   0.861  0.00  0.00    +0.150 HD
ENDROOT
BRANCH  11  31
ATOM     31  C   UNL     1     -36.061  22.923   4.764  0.00  0.00    +0.020 C 
ATOM     32  C   UNL     1     -35.196  22.787   6.015  0.00  0.00    +0.002 C 
ATOM     33  C   UNL     1     -35.518  22.044   3.638  0.00  0.00    +0.002 C 
ENDBRANCH  11  31
BRANCH  12  34
ATOM     34  O   UNL     1     -38.366  24.001   3.390  0.00  0.00    -0.382 OA
ATOM     35  H   UNL     1     -38.512  23.262   2.778  0.00  0.00    +0.210 HD
ENDBRANCH  12  34
TORSDOF 2
ENDMDL
MODEL 3
REMARK VINA RESULT:      -6.4      3.039      4.714
REMARK  Name = 60209141
REMARK  2 active torsions:
REMARK  status: ('A' for Active; 'I' for Inactive)
REMARK    1  A    between atoms: C_11  and  C_31
REMARK    2  A    between atoms: C_12  and  O_34
REMARK                            x       y       z     vdW  Elec       q    Type
REMARK                         _______ _______ _______ _____ _____    ______ ____
ROOT
ATOM      1  S   UNL     1     -36.284  27.285   0.100  0.00  0.00    -0.080 S 
ATOM      2  S   UNL     1     -34.447  27.041  -0.798  0.00  0.00    -0.082 S 
ATOM      3  O   UNL     1     -37.389  22.443  -0.252  0.00  0.00    -0.447 OA
ATOM      4  O   UNL     1     -38.410  24.746   4.122  0.00  0.00    -0.273 OA
ATOM      5  O   UNL     1     -36.674  20.297   0.229  0.00  0.00    -0.250 OA
ATOM      6  O   UNL     1     -40.258  26.698   2.006  0.00  0.00    -0.273 OA
ATOM      7  O   UNL     1     -40.598  22.424  -1.103  0.00  0.00    -0.275 OA
ATOM      8  N   UNL     1     -36.260  24.183   3.491  0.00  0.00    -0.302 N 
ATOM      9  N   UNL     1     -38.415  25.434   1.398  0.00  0.00    -0.296 N 
ATOM     10  N   UNL     1     -39.691  24.541  -0.759  0.00  0.00    -0.298 N 
ATOM     11  C   UNL     1     -36.218  22.826   4.038  0.00  0.00    +0.099 C 
ATOM     12  C   UNL     1     -36.094  21.827   2.861  0.00  0.00    +0.139 C 
ATOM     13  C   UNL     1     -37.372  21.767   2.016  0.00  0.00    +0.140 C 
ATOM     14  C   UNL     1     -37.429  26.007   2.316  0.00  0.00    +0.160 C 
ATOM     15  C   UNL     1     -37.407  24.958   3.437  0.00  0.00    +0.241 C 
ATOM     16  C   UNL     1     -37.084  21.398   0.576  0.00  0.00    +0.320 C 
ATOM     17  C   UNL     1     -36.100  26.257   1.595  0.00  0.00    +0.098 C 
ATOM     18  C   UNL     1     -37.518  22.155  -1.664  0.00  0.00    +0.200 C 
ATOM     19  C   UNL     1     -40.553  24.971   0.332  0.00  0.00    +0.149 C 
ATOM     20  C   UNL     1     -38.606  23.043  -2.302  0.00  0.00    +0.133 C 
ATOM     21  C   UNL     1     -39.738  25.838   1.298  0.00  0.00    +0.241 C 
ATOM     22  C   UNL     1     -39.759  23.286  -1.346  0.00  0.00    +0.227 C 
ATOM     23  C   UNL     1     -36.184  22.266  -2.355  0.00  0.00    +0.013 C 
ATOM     24  C   UNL     1     -41.772  25.709  -0.201  0.00  0.00    +0.031 C 
ATOM     25  C   UNL     1     -35.394  23.343  -2.510  0.00  0.00    -0.026 C 
ATOM     26  C   UNL     1     -35.623  24.745  -2.008  0.00  0.00    +0.038 C 
ATOM     27  C   UNL     1     -34.384  25.272  -1.283  0.00  0.00    +0.073 C 
ATOM     28  H   UNL     1     -35.425  24.567   3.140  0.00  0.00    +0.150 HD
ATOM     29  H   UNL     1     -38.115  24.707   0.806  0.00  0.00    +0.150 HD
ATOM     30  H   UNL     1     -39.022  25.178  -1.099  0.00  0.00    +0.150 HD
ENDROOT
BRANCH  11  31
ATOM     31  C   UNL     1     -35.060  22.725   5.029  0.00  0.00    +0.020 C 
ATOM     32  C   UNL     1     -35.536  22.130   6.353  0.00  0.00    +0.002 C 
ATOM     33  C   UNL     1     -34.426  24.096   5.255  0.00  0.00    +0.002 C 
ENDBRANCH  11  31
BRANCH  12  34
ATOM     34  O   UNL     1     -35.852  20.508   3.349  0.00  0.00    -0.382 OA
ATOM     35  H   UNL     1     -35.134  20.100   2.839  0.00  0.00    +0.210 HD
ENDBRANCH  12  34
TORSDOF 2
ENDMDL
MODEL 4
REMARK VINA RESULT:      -6.1      2.408      3.320
REMARK  Name = 60209141
REMARK  2 active torsions:
REMARK  status: ('A' for Active; 'I' for Inactive)
REMARK    1  A    between atoms: C_11  and  C_31
REMARK    2  A    between atoms: C_12  and  O_34
REMARK                            x       y       z     vdW  Elec       q    Type
REMARK                         _______ _______ _______ _____ _____    ______ ____
ROOT
ATOM      1  S   UNL     1     -36.638  25.456  -1.709  0.00  0.00    -0.080 S 
ATOM      2  S   UNL     1     -34.946  24.686  -2.594  0.00  0.00    -0.082 S 
ATOM      3  O   UNL     1     -37.068  21.609   1.422  0.00  0.00    -0.447 OA
ATOM      4  O   UNL     1     -37.725  26.238   3.325  0.00  0.00    -0.273 OA
ATOM      5  O   UNL     1     -35.982  20.336   3.019  0.00  0.00    -0.250 OA
ATOM      6  O   UNL     1     -40.142  26.270   0.905  0.00  0.00    -0.273 OA
ATOM      7  O   UNL     1     -40.332  21.010   1.495  0.00  0.00    -0.275 OA
ATOM      8  N   UNL     1     -35.640  25.409   2.777  0.00  0.00    -0.302 N 
ATOM      9  N   UNL     1     -38.250  24.933   0.894  0.00  0.00    -0.296 N 
ATOM     10  N   UNL     1     -39.701  22.821   0.174  0.00  0.00    -0.298 N 
ATOM     11  C   UNL     1     -35.316  24.764   4.050  0.00  0.00    +0.099 C 
ATOM     12  C   UNL     1     -35.232  23.234   3.817  0.00  0.00    +0.139 C 
ATOM     13  C   UNL     1     -36.603  22.620   3.511  0.00  0.00    +0.140 C 
ATOM     14  C   UNL     1     -37.229  25.977   0.980  0.00  0.00    +0.160 C 
ATOM     15  C   UNL     1     -36.881  25.944   2.476  0.00  0.00    +0.241 C 
ATOM     16  C   UNL     1     -36.489  21.385   2.642  0.00  0.00    +0.320 C 
ATOM     17  C   UNL     1     -36.078  25.690   0.010  0.00  0.00    +0.098 C 
ATOM     18  C   UNL     1     -37.370  20.452   0.608  0.00  0.00    +0.200 C 
ATOM     19  C   UNL     1     -40.437  23.865   0.872  0.00  0.00    +0.149 C 
ATOM     20  C   UNL     1     -38.660  20.682  -0.204  0.00  0.00    +0.133 C 
ATOM     21  C   UNL     1     -39.617  25.159   0.839  0.00  0.00    +0.241 C 
ATOM     22  C   UNL     1     -39.675  21.494   0.578  0.00  0.00    +0.227 C 
ATOM     23  C   UNL     1     -36.188  20.081  -0.251  0.00  0.00    +0.013 C 
ATOM     24  C   UNL     1     -41.818  24.052   0.262  0.00  0.00    +0.031 C 
ATOM     25  C   UNL     1     -35.597  20.784  -1.232  0.00  0.00    -0.026 C 
ATOM     26  C   UNL     1     -35.947  22.162  -1.731  0.00  0.00    +0.038 C 
ATOM     27  C   UNL     1     -34.701  23.045  -1.809  0.00  0.00    +0.073 C 
ATOM     28  H   UNL     1     -34.934  25.466   2.094  0.00  0.00    +0.150 HD
ATOM     29  H   UNL     1     -37.943  23.998   0.872  0.00  0.00    +0.150 HD
ATOM     30  H   UNL     1     -39.191  23.072  -0.630  0.00  0.00    +0.150 HD
ENDROOT
BRANCH  11  31
ATOM     31  C   UNL     1     -34.018  25.357   4.593  0.00  0.00    +0.020 C 
ATOM     32  C   UNL     1     -34.259  26.043   5.935  0.00  0.00    +0.002 C 
ATOM     33  C   UNL     1     -33.415  26.338   3.589  0.00  0.00    +0.002 C 
ENDBRANCH  11  31
BRANCH  12  34
ATOM     34  O   UNL     1     -34.728  22.580   4.980  0.00  0.00    -0.382 OA
ATOM     35  H   UNL     1     -34.469  21.672   4.755  0.00  0.00    +0.210 HD
ENDBRANCH  12  34
TORSDOF 2
ENDMDL
MODEL 5
REMARK VINA RESULT:      -6.0      2.776      6.402
REMARK  Name = 60209141
REMARK  2 active torsions:
REMARK  status: ('A' for Active; 'I' for Inactive)
REMARK    1  A    between atoms: C_11  and  C_31
REMARK    2  A    between atoms: C_12  and  O_34
REMARK                            x       y       z     vdW  Elec       q    Type
REMARK                         _______ _______ _______ _____ _____    ______ ____
ROOT
ATOM      1  S   UNL     1     -35.551  25.772  -1.799  0.00  0.00    -0.080 S 
ATOM      2  S   UNL     1     -37.586  26.040  -1.967  0.00  0.00    -0.082 S 
ATOM      3  O   UNL     1     -35.878  24.281   2.941  0.00  0.00    -0.447 OA
ATOM      4  O   UNL     1     -32.844  21.651  -0.117  0.00  0.00    -0.273 OA
ATOM      5  O   UNL     1     -36.886  22.788   4.391  0.00  0.00    -0.250 OA
ATOM      6  O   UNL     1     -31.438  24.751  -0.451  0.00  0.00    -0.273 OA
ATOM      7  O   UNL     1     -33.288  25.746   4.411  0.00  0.00    -0.275 OA
ATOM      8  N   UNL     1     -35.146  21.479  -0.209  0.00  0.00    -0.302 N 
ATOM      9  N   UNL     1     -33.630  24.332   0.172  0.00  0.00    -0.296 N 
ATOM     10  N   UNL     1     -33.460  26.135   2.121  0.00  0.00    -0.298 N 
ATOM     11  C   UNL     1     -35.327  20.414   0.779  0.00  0.00    +0.099 C 
ATOM     12  C   UNL     1     -36.102  20.996   1.988  0.00  0.00    +0.139 C 
ATOM     13  C   UNL     1     -35.261  22.002   2.784  0.00  0.00    +0.140 C 
ATOM     14  C   UNL     1     -34.053  23.547  -0.988  0.00  0.00    +0.160 C 
ATOM     15  C   UNL     1     -33.938  22.113  -0.447  0.00  0.00    +0.241 C 
ATOM     16  C   UNL     1     -36.121  23.043   3.470  0.00  0.00    +0.320 C 
ATOM     17  C   UNL     1     -35.445  23.984  -1.458  0.00  0.00    +0.098 C 
ATOM     18  C   UNL     1     -36.331  25.427   3.699  0.00  0.00    +0.200 C 
ATOM     19  C   UNL     1     -32.190  25.555   1.707  0.00  0.00    +0.149 C 
ATOM     20  C   UNL     1     -35.355  26.608   3.532  0.00  0.00    +0.133 C 
ATOM     21  C   UNL     1     -32.371  24.890   0.338  0.00  0.00    +0.241 C 
ATOM     22  C   UNL     1     -33.917  26.134   3.431  0.00  0.00    +0.227 C 
ATOM     23  C   UNL     1     -37.752  25.778   3.337  0.00  0.00    +0.013 C 
ATOM     24  C   UNL     1     -31.096  26.611   1.685  0.00  0.00    +0.031 C 
ATOM     25  C   UNL     1     -38.251  26.191   2.161  0.00  0.00    -0.026 C 
ATOM     26  C   UNL     1     -37.521  26.396   0.859  0.00  0.00    +0.038 C 
ATOM     27  C   UNL     1     -38.253  25.702  -0.291  0.00  0.00    +0.073 C 
ATOM     28  H   UNL     1     -35.928  21.760  -0.736  0.00  0.00    +0.150 HD
ATOM     29  H   UNL     1     -34.289  24.475   0.889  0.00  0.00    +0.150 HD
ATOM     30  H   UNL     1     -34.026  26.552   1.432  0.00  0.00    +0.150 HD
ENDROOT
BRANCH  11  31
ATOM     31  C   UNL     1     -36.047  19.240   0.120  0.00  0.00    +0.020 C 
ATOM     32  C   UNL     1     -35.043  18.196  -0.364  0.00  0.00    +0.002 C 
ATOM     33  C   UNL     1     -36.917  19.726  -1.039  0.00  0.00    +0.002 C 
ENDBRANCH  11  31
BRANCH  12  34
ATOM     34  O   UNL     1     -36.475  19.955   2.889  0.00  0.00    -0.382 OA
ATOM     35  H   UNL     1     -37.442  19.865   2.900  0.00  0.00    +0.210 HD
ENDBRANCH  12  34
TORSDOF 2
ENDMDL
MODEL 6
REMARK VINA RESULT:      -6.0      3.695      5.753
REMARK  Name = 60209141
REMARK  2 active torsions:
REMARK  status: ('A' for Active; 'I' for Inactive)
REMARK    1  A    between atoms: C_11  and  C_31
REMARK    2  A    between atoms: C_12  and  O_34
REMARK                            x       y       z     vdW  Elec       q    Type
REMARK                         _______ _______ _______ _____ _____    ______ ____
ROOT
ATOM      1  S   UNL     1     -38.301  27.135  -0.747  0.00  0.00    -0.080 S 
ATOM      2  S   UNL     1     -37.014  26.656  -2.281  0.00  0.00    -0.082 S 
ATOM      3  O   UNL     1     -40.110  22.505  -0.470  0.00  0.00    -0.447 OA
ATOM      4  O   UNL     1     -39.012  24.833   3.872  0.00  0.00    -0.273 OA
ATOM      5  O   UNL     1     -39.566  20.270  -0.231  0.00  0.00    -0.250 OA
ATOM      6  O   UNL     1     -41.253  27.070   2.577  0.00  0.00    -0.273 OA
ATOM      7  O   UNL     1     -43.365  22.954  -0.001  0.00  0.00    -0.275 OA
ATOM      8  N   UNL     1     -37.380  23.988   2.472  0.00  0.00    -0.302 N 
ATOM      9  N   UNL     1     -39.987  25.574   1.343  0.00  0.00    -0.296 N 
ATOM     10  N   UNL     1     -42.114  24.915  -0.113  0.00  0.00    -0.298 N 
ATOM     11  C   UNL     1     -37.314  22.627   3.007  0.00  0.00    +0.099 C 
ATOM     12  C   UNL     1     -37.799  21.646   1.911  0.00  0.00    +0.139 C 
ATOM     13  C   UNL     1     -39.301  21.785   1.633  0.00  0.00    +0.140 C 
ATOM     14  C   UNL     1     -38.653  25.983   1.783  0.00  0.00    +0.160 C 
ATOM     15  C   UNL     1     -38.338  24.917   2.843  0.00  0.00    +0.241 C 
ATOM     16  C   UNL     1     -39.652  21.409   0.210  0.00  0.00    +0.320 C 
ATOM     17  C   UNL     1     -37.690  26.060   0.593  0.00  0.00    +0.098 C 
ATOM     18  C   UNL     1     -40.819  22.268  -1.709  0.00  0.00    +0.200 C 
ATOM     19  C   UNL     1     -42.413  25.438   1.213  0.00  0.00    +0.149 C 
ATOM     20  C   UNL     1     -41.936  23.314  -1.903  0.00  0.00    +0.133 C 
ATOM     21  C   UNL     1     -41.174  26.161   1.753  0.00  0.00    +0.241 C 
ATOM     22  C   UNL     1     -42.578  23.696  -0.582  0.00  0.00    +0.227 C 
ATOM     23  C   UNL     1     -39.859  22.207  -2.869  0.00  0.00    +0.013 C 
ATOM     24  C   UNL     1     -43.629  26.351   1.172  0.00  0.00    +0.031 C 
ATOM     25  C   UNL     1     -39.053  23.165  -3.357  0.00  0.00    -0.026 C 
ATOM     26  C   UNL     1     -38.872  24.574  -2.856  0.00  0.00    +0.038 C 
ATOM     27  C   UNL     1     -37.389  24.906  -2.690  0.00  0.00    +0.073 C 
ATOM     28  H   UNL     1     -36.704  24.259   1.811  0.00  0.00    +0.150 HD
ATOM     29  H   UNL     1     -40.045  24.825   0.707  0.00  0.00    +0.150 HD
ATOM     30  H   UNL     1     -41.551  25.459  -0.709  0.00  0.00    +0.150 HD
ENDROOT
BRANCH  11  31
ATOM     31  C   UNL     1     -35.887  22.343   3.471  0.00  0.00    +0.020 C 
ATOM     32  C   UNL     1     -35.738  22.637   4.963  0.00  0.00    +0.002 C 
ATOM     33  C   UNL     1     -34.886  23.164   2.660  0.00  0.00    +0.002 C 
ENDBRANCH  11  31
BRANCH  12  34
ATOM     34  O   UNL     1     -37.569  20.296   2.312  0.00  0.00    -0.382 OA
ATOM     35  H   UNL     1     -37.340  19.761   1.535  0.00  0.00    +0.210 HD
ENDBRANCH  12  34
TORSDOF 2
ENDMDL
MODEL 7
REMARK VINA RESULT:      -6.0      1.264      1.333
REMARK  Name = 60209141
REMARK  2 active torsions:
REMARK  status: ('A' for Active; 'I' for Inactive)
REMARK    1  A    between atoms: C_11  and  C_31
REMARK    2  A    between atoms: C_12  and  O_34
REMARK                            x       y       z     vdW  Elec       q    Type
REMARK                         _______ _______ _______ _____ _____    ______ ____
ROOT
ATOM      1  S   UNL     1     -35.247  24.612  -1.678  0.00  0.00    -0.080 S 
ATOM      2  S   UNL     1     -33.640  23.333  -1.527  0.00  0.00    -0.082 S 
ATOM      3  O   UNL     1     -36.729  23.716   2.990  0.00  0.00    -0.447 OA
ATOM      4  O   UNL     1     -36.721  28.519   1.437  0.00  0.00    -0.273 OA
ATOM      5  O   UNL     1     -36.083  23.691   5.211  0.00  0.00    -0.250 OA
ATOM      6  O   UNL     1     -38.806  27.164  -0.912  0.00  0.00    -0.273 OA
ATOM      7  O   UNL     1     -40.035  23.542   2.750  0.00  0.00    -0.275 OA
ATOM      8  N   UNL     1     -34.778  27.382   1.959  0.00  0.00    -0.302 N 
ATOM      9  N   UNL     1     -37.207  26.000   0.292  0.00  0.00    -0.296 N 
ATOM     10  N   UNL     1     -38.936  24.031   0.757  0.00  0.00    -0.298 N 
ATOM     11  C   UNL     1     -34.724  27.685   3.390  0.00  0.00    +0.099 C 
ATOM     12  C   UNL     1     -34.900  26.361   4.176  0.00  0.00    +0.139 C 
ATOM     13  C   UNL     1     -36.319  25.794   4.045  0.00  0.00    +0.140 C 
ATOM     14  C   UNL     1     -36.025  26.779  -0.080  0.00  0.00    +0.160 C 
ATOM     15  C   UNL     1     -35.857  27.688   1.146  0.00  0.00    +0.241 C 
ATOM     16  C   UNL     1     -36.341  24.286   4.172  0.00  0.00    +0.320 C 
ATOM     17  C   UNL     1     -34.847  25.853  -0.403  0.00  0.00    +0.098 C 
ATOM     18  C   UNL     1     -37.149  22.332   3.027  0.00  0.00    +0.200 C 
ATOM     19  C   UNL     1     -39.538  25.329   0.490  0.00  0.00    +0.149 C 
ATOM     20  C   UNL     1     -38.275  22.080   2.006  0.00  0.00    +0.133 C 
ATOM     21  C   UNL     1     -38.493  26.237  -0.168  0.00  0.00    +0.241 C 
ATOM     22  C   UNL     1     -39.202  23.276   1.889  0.00  0.00    +0.227 C 
ATOM     23  C   UNL     1     -35.969  21.412   2.846  0.00  0.00    +0.013 C 
ATOM     24  C   UNL     1     -40.783  25.180  -0.370  0.00  0.00    +0.031 C 
ATOM     25  C   UNL     1     -35.153  21.276   1.787  0.00  0.00    -0.026 C 
ATOM     26  C   UNL     1     -35.182  22.032   0.485  0.00  0.00    +0.038 C 
ATOM     27  C   UNL     1     -33.793  22.566   0.134  0.00  0.00    +0.073 C 
ATOM     28  H   UNL     1     -34.003  26.937   1.550  0.00  0.00    +0.150 HD
ATOM     29  H   UNL     1     -37.078  25.250   0.917  0.00  0.00    +0.150 HD
ATOM     30  H   UNL     1     -38.303  23.669   0.095  0.00  0.00    +0.150 HD
ENDROOT
BRANCH  11  31
ATOM     31  C   UNL     1     -33.406  28.391   3.700  0.00  0.00    +0.020 C 
ATOM     32  C   UNL     1     -33.421  29.819   3.159  0.00  0.00    +0.002 C 
ATOM     33  C   UNL     1     -32.229  27.609   3.119  0.00  0.00    +0.002 C 
ENDBRANCH  11  31
BRANCH  12  34
ATOM     34  O   UNL     1     -34.659  26.572   5.567  0.00  0.00    -0.382 OA
ATOM     35  H   UNL     1     -33.816  27.040   5.683  0.00  0.00    +0.210 HD
ENDBRANCH  12  34
TORSDOF 2
ENDMDL
MODEL 8
REMARK VINA RESULT:      -5.8      2.753      6.722
REMARK  Name = 60209141
REMARK  2 active torsions:
REMARK  status: ('A' for Active; 'I' for Inactive)
REMARK    1  A    between atoms: C_11  and  C_31
REMARK    2  A    between atoms: C_12  and  O_34
REMARK                            x       y       z     vdW  Elec       q    Type
REMARK                         _______ _______ _______ _____ _____    ______ ____
ROOT
ATOM      1  S   UNL     1     -33.408  22.582   0.197  0.00  0.00    -0.080 S 
ATOM      2  S   UNL     1     -32.804  24.013  -1.154  0.00  0.00    -0.082 S 
ATOM      3  O   UNL     1     -36.742  25.615   2.313  0.00  0.00    -0.447 OA
ATOM      4  O   UNL     1     -38.193  20.876   1.355  0.00  0.00    -0.273 OA
ATOM      5  O   UNL     1     -38.554  27.000   1.930  0.00  0.00    -0.250 OA
ATOM      6  O   UNL     1     -35.492  20.250   3.358  0.00  0.00    -0.273 OA
ATOM      7  O   UNL     1     -36.449  24.972   5.556  0.00  0.00    -0.275 OA
ATOM      8  N   UNL     1     -37.975  22.465  -0.308  0.00  0.00    -0.302 N 
ATOM      9  N   UNL     1     -35.820  22.175   2.112  0.00  0.00    -0.296 N 
ATOM     10  N   UNL     1     -35.085  23.683   4.178  0.00  0.00    -0.298 N 
ATOM     11  C   UNL     1     -39.324  23.030  -0.252  0.00  0.00    +0.099 C 
ATOM     12  C   UNL     1     -39.219  24.502   0.222  0.00  0.00    +0.139 C 
ATOM     13  C   UNL     1     -38.790  24.607   1.691  0.00  0.00    +0.140 C 
ATOM     14  C   UNL     1     -35.955  21.571   0.786  0.00  0.00    +0.160 C 
ATOM     15  C   UNL     1     -37.481  21.554   0.610  0.00  0.00    +0.241 C 
ATOM     16  C   UNL     1     -38.038  25.890   1.972  0.00  0.00    +0.320 C 
ATOM     17  C   UNL     1     -35.162  22.369  -0.255  0.00  0.00    +0.098 C 
ATOM     18  C   UNL     1     -35.986  26.669   2.953  0.00  0.00    +0.200 C 
ATOM     19  C   UNL     1     -35.604  22.368   4.529  0.00  0.00    +0.149 C 
ATOM     20  C   UNL     1     -35.003  26.082   3.986  0.00  0.00    +0.133 C 
ATOM     21  C   UNL     1     -35.577  21.475   3.284  0.00  0.00    +0.241 C 
ATOM     22  C   UNL     1     -35.588  24.871   4.687  0.00  0.00    +0.227 C 
ATOM     23  C   UNL     1     -35.313  27.542   1.925  0.00  0.00    +0.013 C 
ATOM     24  C   UNL     1     -34.812  21.764   5.679  0.00  0.00    +0.031 C 
ATOM     25  C   UNL     1     -34.364  27.223   1.030  0.00  0.00    -0.026 C 
ATOM     26  C   UNL     1     -33.722  25.881   0.792  0.00  0.00    +0.038 C 
ATOM     27  C   UNL     1     -33.735  25.527  -0.696  0.00  0.00    +0.073 C 
ATOM     28  H   UNL     1     -37.384  22.749  -1.042  0.00  0.00    +0.150 HD
ATOM     29  H   UNL     1     -35.908  23.153   2.177  0.00  0.00    +0.150 HD
ATOM     30  H   UNL     1     -34.334  23.730   3.543  0.00  0.00    +0.150 HD
ENDROOT
BRANCH  11  31
ATOM     31  C   UNL     1     -39.979  22.892  -1.624  0.00  0.00    +0.020 C 
ATOM     32  C   UNL     1     -40.504  21.473  -1.829  0.00  0.00    +0.002 C 
ATOM     33  C   UNL     1     -38.993  23.264  -2.730  0.00  0.00    +0.002 C 
ENDBRANCH  11  31
BRANCH  12  34
ATOM     34  O   UNL     1     -40.483  25.154   0.106  0.00  0.00    -0.382 OA
ATOM     35  H   UNL     1     -40.359  26.033  -0.287  0.00  0.00    +0.210 HD
ENDBRANCH  12  34
TORSDOF 2
ENDMDL
MODEL 9
REMARK VINA RESULT:      -5.8      2.971      4.471
REMARK  Name = 60209141
REMARK  2 active torsions:
REMARK  status: ('A' for Active; 'I' for Inactive)
REMARK    1  A    between atoms: C_11  and  C_31
REMARK    2  A    between atoms: C_12  and  O_34
REMARK                            x       y       z     vdW  Elec       q    Type
REMARK                         _______ _______ _______ _____ _____    ______ ____
ROOT
ATOM      1  S   UNL     1     -34.671  25.416  -1.338  0.00  0.00    -0.080 S 
ATOM      2  S   UNL     1     -32.617  25.368  -1.216  0.00  0.00    -0.082 S 
ATOM      3  O   UNL     1     -35.166  20.990   0.888  0.00  0.00    -0.447 OA
ATOM      4  O   UNL     1     -38.263  24.691   2.366  0.00  0.00    -0.273 OA
ATOM      5  O   UNL     1     -34.621  19.737   2.755  0.00  0.00    -0.250 OA
ATOM      6  O   UNL     1     -39.028  24.606  -0.968  0.00  0.00    -0.273 OA
ATOM      7  O   UNL     1     -37.593  19.510  -0.824  0.00  0.00    -0.275 OA
ATOM      8  N   UNL     1     -36.037  24.621   2.978  0.00  0.00    -0.302 N 
ATOM      9  N   UNL     1     -37.036  23.885  -0.029  0.00  0.00    -0.296 N 
ATOM     10  N   UNL     1     -37.093  21.677  -1.514  0.00  0.00    -0.298 N 
ATOM     11  C   UNL     1     -36.168  23.818   4.194  0.00  0.00    +0.099 C 
ATOM     12  C   UNL     1     -35.442  22.467   3.969  0.00  0.00    +0.139 C 
ATOM     13  C   UNL     1     -36.169  21.583   2.948  0.00  0.00    +0.140 C 
ATOM     14  C   UNL     1     -36.635  25.123   0.640  0.00  0.00    +0.160 C 
ATOM     15  C   UNL     1     -37.072  24.846   2.086  0.00  0.00    +0.241 C 
ATOM     16  C   UNL     1     -35.217  20.662   2.216  0.00  0.00    +0.320 C 
ATOM     17  C   UNL     1     -35.142  25.395   0.423  0.00  0.00    +0.098 C 
ATOM     18  C   UNL     1     -34.599  20.012  -0.015  0.00  0.00    +0.200 C 
ATOM     19  C   UNL     1     -38.392  22.287  -1.269  0.00  0.00    +0.149 C 
ATOM     20  C   UNL     1     -35.316  20.055  -1.379  0.00  0.00    +0.133 C 
ATOM     21  C   UNL     1     -38.181  23.730  -0.796  0.00  0.00    +0.241 C 
ATOM     22  C   UNL     1     -36.796  20.354  -1.223  0.00  0.00    +0.227 C 
ATOM     23  C   UNL     1     -33.107  20.190  -0.126  0.00  0.00    +0.013 C 
ATOM     24  C   UNL     1     -39.264  22.219  -2.513  0.00  0.00    +0.031 C 
ATOM     25  C   UNL     1     -32.409  21.234  -0.604  0.00  0.00    -0.026 C 
ATOM     26  C   UNL     1     -32.936  22.537  -1.145  0.00  0.00    +0.038 C 
ATOM     27  C   UNL     1     -32.218  23.724  -0.502  0.00  0.00    +0.073 C 
ATOM     28  H   UNL     1     -35.162  25.026   2.783  0.00  0.00    +0.150 HD
ATOM     29  H   UNL     1     -36.448  23.102   0.072  0.00  0.00    +0.150 HD
ATOM     30  H   UNL     1     -36.385  22.236  -1.908  0.00  0.00    +0.150 HD
ENDROOT
BRANCH  11  31
ATOM     31  C   UNL     1     -35.605  24.606   5.375  0.00  0.00    +0.020 C 
ATOM     32  C   UNL     1     -36.392  25.899   5.582  0.00  0.00    +0.002 C 
ATOM     33  C   UNL     1     -34.123  24.908   5.161  0.00  0.00    +0.002 C 
ENDBRANCH  11  31
BRANCH  12  34
ATOM     34  O   UNL     1     -35.372  21.729   5.188  0.00  0.00    -0.382 OA
ATOM     35  H   UNL     1     -34.795  22.194   5.816  0.00  0.00    +0.210 HD
ENDBRANCH  12  34
TORSDOF 2
ENDMDL
