MODEL 1
REMARK VINA RESULT:      -6.2      0.000      0.000
REMARK  Name = 57367544
REMARK  6 active torsions:
REMARK  status: ('A' for Active; 'I' for Inactive)
REMARK    1  A    between atoms: C_3  and  C_18
REMARK    2  A    between atoms: C_4  and  C_13
REMARK    3  A    between atoms: C_5  and  C_26
REMARK    4  A    between atoms: C_6  and  C_22
REMARK    5  A    between atoms: C_22  and  O_23
REMARK    6  A    between atoms: C_26  and  O_27
REMARK                            x       y       z     vdW  Elec       q    Type
REMARK                         _______ _______ _______ _____ _____    ______ ____
ROOT
ATOM      1  C   UNL     1     -35.017  23.305   2.774  0.00  0.00    +0.011 C 
ATOM      2  C   UNL     1     -34.873  24.539   3.452  0.00  0.00    +0.011 C 
ATOM      3  C   UNL     1     -34.717  23.235   1.404  0.00  0.00    +0.053 C 
ATOM      4  C   UNL     1     -34.431  25.666   2.740  0.00  0.00    +0.053 C 
ATOM      5  C   UNL     1     -35.459  22.178   3.486  0.00  0.00    +0.076 C 
ATOM      6  C   UNL     1     -35.174  24.610   4.822  0.00  0.00    +0.076 C 
ATOM      7  C   UNL     1     -34.278  24.364   0.712  0.00  0.00    +0.005 C 
ATOM      8  C   UNL     1     -34.136  25.578   1.379  0.00  0.00    +0.005 C 
ATOM      9  C   UNL     1     -35.754  22.267   4.847  0.00  0.00    +0.007 C 
ATOM     10  C   UNL     1     -35.612  23.481   5.513  0.00  0.00    +0.007 C 
ENDROOT
BRANCH   4  13
ATOM     11  O   UNL     1     -35.177  27.800   3.402  0.00  0.00    -0.270 OA
ATOM     12  N   UNL     1     -32.965  27.315   3.775  0.00  0.00    -0.325 N 
ATOM     13  C   UNL     1     -34.237  26.994   3.314  0.00  0.00    +0.243 C 
ATOM     14  H   UNL     1     -32.793  28.201   4.168  0.00  0.00    +0.145 HD
ATOM     15  H   UNL     1     -32.237  26.657   3.707  0.00  0.00    +0.145 HD
ENDBRANCH   4  13
BRANCH   3  18
ATOM     16  O   UNL     1     -35.891  21.708   0.048  0.00  0.00    -0.270 OA
ATOM     17  N   UNL     1     -33.670  21.267   0.419  0.00  0.00    -0.325 N 
ATOM     18  C   UNL     1     -34.820  22.030   0.585  0.00  0.00    +0.243 C 
ATOM     19  H   UNL     1     -33.699  20.447  -0.126  0.00  0.00    +0.145 HD
ATOM     20  H   UNL     1     -32.828  21.547   0.844  0.00  0.00    +0.145 HD
ENDBRANCH   3  18
BRANCH   6  22
ATOM     21  O   UNL     1     -34.058  26.182   6.240  0.00  0.00    -0.245 OA
ATOM     22  C   UNL     1     -35.070  25.815   5.640  0.00  0.00    +0.338 C 
BRANCH  22  23
ATOM     23  O   UNL     1     -36.235  26.512   5.678  0.00  0.00    -0.477 OA
ATOM     24  H   UNL     1     -36.747  26.529   6.463  0.00  0.00    +0.295 HD
ENDBRANCH  22  23
ENDBRANCH   6  22
BRANCH   5  26
ATOM     25  O   UNL     1     -34.765  20.008   2.758  0.00  0.00    -0.245 OA
ATOM     26  C   UNL     1     -35.651  20.849   2.912  0.00  0.00    +0.338 C 
BRANCH  26  27
ATOM     27  O   UNL     1     -36.942  20.625   2.553  0.00  0.00    -0.477 OA
ATOM     28  H   UNL     1     -37.551  20.285   3.180  0.00  0.00    +0.295 HD
ENDBRANCH  26  27
ENDBRANCH   5  26
TORSDOF 6
ENDMDL
MODEL 2
REMARK VINA RESULT:      -6.2      0.003      5.038
REMARK  Name = 57367544
REMARK  6 active torsions:
REMARK  status: ('A' for Active; 'I' for Inactive)
REMARK    1  A    between atoms: C_3  and  C_18
REMARK    2  A    between atoms: C_4  and  C_13
REMARK    3  A    between atoms: C_5  and  C_26
REMARK    4  A    between atoms: C_6  and  C_22
REMARK    5  A    between atoms: C_22  and  O_23
REMARK    6  A    between atoms: C_26  and  O_27
REMARK                            x       y       z     vdW  Elec       q    Type
REMARK                         _______ _______ _______ _____ _____    ______ ____
ROOT
ATOM      1  C   UNL     1     -34.872  24.538   3.454  0.00  0.00    +0.011 C 
ATOM      2  C   UNL     1     -35.017  23.304   2.776  0.00  0.00    +0.011 C 
ATOM      3  C   UNL     1     -34.429  25.665   2.742  0.00  0.00    +0.053 C 
ATOM      4  C   UNL     1     -34.715  23.234   1.406  0.00  0.00    +0.053 C 
ATOM      5  C   UNL     1     -35.174  24.608   4.823  0.00  0.00    +0.076 C 
ATOM      6  C   UNL     1     -35.459  22.176   3.487  0.00  0.00    +0.076 C 
ATOM      7  C   UNL     1     -34.135  25.578   1.381  0.00  0.00    +0.005 C 
ATOM      8  C   UNL     1     -34.277  24.364   0.715  0.00  0.00    +0.005 C 
ATOM      9  C   UNL     1     -35.612  23.477   5.515  0.00  0.00    +0.007 C 
ATOM     10  C   UNL     1     -35.754  22.264   4.847  0.00  0.00    +0.007 C 
ENDROOT
BRANCH   4  13
ATOM     11  O   UNL     1     -35.894  21.711   0.050  0.00  0.00    -0.270 OA
ATOM     12  N   UNL     1     -33.674  21.265   0.416  0.00  0.00    -0.325 N 
ATOM     13  C   UNL     1     -34.822  22.030   0.587  0.00  0.00    +0.243 C 
ATOM     14  H   UNL     1     -33.705  20.445  -0.128  0.00  0.00    +0.145 HD
ATOM     15  H   UNL     1     -32.831  21.543   0.841  0.00  0.00    +0.145 HD
ENDBRANCH   4  13
BRANCH   3  18
ATOM     16  O   UNL     1     -35.180  27.798   3.402  0.00  0.00    -0.270 OA
ATOM     17  N   UNL     1     -32.968  27.319   3.776  0.00  0.00    -0.325 N 
ATOM     18  C   UNL     1     -34.239  26.994   3.316  0.00  0.00    +0.243 C 
ATOM     19  H   UNL     1     -32.799  28.206   4.169  0.00  0.00    +0.145 HD
ATOM     20  H   UNL     1     -32.238  26.662   3.709  0.00  0.00    +0.145 HD
ENDBRANCH   3  18
BRANCH   6  22
ATOM     21  O   UNL     1     -34.764  20.006   2.758  0.00  0.00    -0.245 OA
ATOM     22  C   UNL     1     -35.650  20.847   2.914  0.00  0.00    +0.338 C 
BRANCH  22  23
ATOM     23  O   UNL     1     -36.941  20.623   2.556  0.00  0.00    -0.477 OA
ATOM     24  H   UNL     1     -37.269  20.960   1.745  0.00  0.00    +0.295 HD
ENDBRANCH  22  23
ENDBRANCH   6  22
BRANCH   5  26
ATOM     25  O   UNL     1     -34.058  26.180   6.240  0.00  0.00    -0.245 OA
ATOM     26  C   UNL     1     -35.070  25.813   5.642  0.00  0.00    +0.338 C 
BRANCH  26  27
ATOM     27  O   UNL     1     -36.235  26.511   5.680  0.00  0.00    -0.477 OA
ATOM     28  H   UNL     1     -36.245  27.420   5.450  0.00  0.00    +0.295 HD
ENDBRANCH  26  27
ENDBRANCH   5  26
TORSDOF 6
ENDMDL
MODEL 3
REMARK VINA RESULT:      -6.1      1.375      6.089
REMARK  Name = 57367544
REMARK  6 active torsions:
REMARK  status: ('A' for Active; 'I' for Inactive)
REMARK    1  A    between atoms: C_3  and  C_18
REMARK    2  A    between atoms: C_4  and  C_13
REMARK    3  A    between atoms: C_5  and  C_26
REMARK    4  A    between atoms: C_6  and  C_22
REMARK    5  A    between atoms: C_22  and  O_23
REMARK    6  A    between atoms: C_26  and  O_27
REMARK                            x       y       z     vdW  Elec       q    Type
REMARK                         _______ _______ _______ _____ _____    ______ ____
ROOT
ATOM      1  C   UNL     1     -34.891  24.420   3.314  0.00  0.00    +0.011 C 
ATOM      2  C   UNL     1     -35.006  23.176   2.647  0.00  0.00    +0.011 C 
ATOM      3  C   UNL     1     -35.220  24.501   4.677  0.00  0.00    +0.053 C 
ATOM      4  C   UNL     1     -35.444  22.051   3.364  0.00  0.00    +0.053 C 
ATOM      5  C   UNL     1     -34.453  25.544   2.597  0.00  0.00    +0.076 C 
ATOM      6  C   UNL     1     -34.678  23.094   1.284  0.00  0.00    +0.076 C 
ATOM      7  C   UNL     1     -35.653  23.373   5.374  0.00  0.00    +0.005 C 
ATOM      8  C   UNL     1     -35.766  22.150   4.719  0.00  0.00    +0.005 C 
ATOM      9  C   UNL     1     -34.132  25.445   1.243  0.00  0.00    +0.007 C 
ATOM     10  C   UNL     1     -34.244  24.222   0.588  0.00  0.00    +0.007 C 
ENDROOT
BRANCH   4  13
ATOM     11  O   UNL     1     -34.643  19.934   2.714  0.00  0.00    -0.270 OA
ATOM     12  N   UNL     1     -36.877  20.338   2.390  0.00  0.00    -0.325 N 
ATOM     13  C   UNL     1     -35.605  20.713   2.803  0.00  0.00    +0.243 C 
ATOM     14  H   UNL     1     -37.027  19.444   2.005  0.00  0.00    +0.145 HD
ATOM     15  H   UNL     1     -37.629  20.966   2.482  0.00  0.00    +0.145 HD
ENDBRANCH   4  13
BRANCH   3  18
ATOM     16  O   UNL     1     -34.097  26.041   6.061  0.00  0.00    -0.270 OA
ATOM     17  N   UNL     1     -36.289  26.502   5.567  0.00  0.00    -0.325 N 
ATOM     18  C   UNL     1     -35.146  25.716   5.484  0.00  0.00    +0.243 C 
ATOM     19  H   UNL     1     -36.279  27.329   6.101  0.00  0.00    +0.145 HD
ATOM     20  H   UNL     1     -37.107  26.233   5.091  0.00  0.00    +0.145 HD
ENDBRANCH   3  18
BRANCH   6  22
ATOM     21  O   UNL     1     -35.753  21.481  -0.118  0.00  0.00    -0.245 OA
ATOM     22  C   UNL     1     -34.751  21.879   0.477  0.00  0.00    +0.338 C 
BRANCH  22  23
ATOM     23  O   UNL     1     -33.569  21.210   0.448  0.00  0.00    -0.477 OA
ATOM     24  H   UNL     1     -33.413  20.563  -0.212  0.00  0.00    +0.295 HD
ENDBRANCH  22  23
ENDBRANCH   6  22
BRANCH   5  26
ATOM     25  O   UNL     1     -35.165  27.748   3.199  0.00  0.00    -0.245 OA
ATOM     26  C   UNL     1     -34.290  26.883   3.160  0.00  0.00    +0.338 C 
BRANCH  26  27
ATOM     27  O   UNL     1     -33.039  27.085   3.650  0.00  0.00    -0.477 OA
ATOM     28  H   UNL     1     -32.912  27.637   4.397  0.00  0.00    +0.295 HD
ENDBRANCH  26  27
ENDBRANCH   5  26
TORSDOF 6
ENDMDL
MODEL 4
REMARK VINA RESULT:      -6.1      1.375      3.420
REMARK  Name = 57367544
REMARK  6 active torsions:
REMARK  status: ('A' for Active; 'I' for Inactive)
REMARK    1  A    between atoms: C_3  and  C_18
REMARK    2  A    between atoms: C_4  and  C_13
REMARK    3  A    between atoms: C_5  and  C_26
REMARK    4  A    between atoms: C_6  and  C_22
REMARK    5  A    between atoms: C_22  and  O_23
REMARK    6  A    between atoms: C_26  and  O_27
REMARK                            x       y       z     vdW  Elec       q    Type
REMARK                         _______ _______ _______ _____ _____    ______ ____
ROOT
ATOM      1  C   UNL     1     -35.005  23.178   2.649  0.00  0.00    +0.011 C 
ATOM      2  C   UNL     1     -34.890  24.421   3.316  0.00  0.00    +0.011 C 
ATOM      3  C   UNL     1     -35.441  22.052   3.366  0.00  0.00    +0.053 C 
ATOM      4  C   UNL     1     -35.216  24.502   4.679  0.00  0.00    +0.053 C 
ATOM      5  C   UNL     1     -34.678  23.097   1.286  0.00  0.00    +0.076 C 
ATOM      6  C   UNL     1     -34.452  25.547   2.600  0.00  0.00    +0.076 C 
ATOM      7  C   UNL     1     -35.763  22.150   4.720  0.00  0.00    +0.005 C 
ATOM      8  C   UNL     1     -35.650  23.373   5.376  0.00  0.00    +0.005 C 
ATOM      9  C   UNL     1     -34.245  24.226   0.590  0.00  0.00    +0.007 C 
ATOM     10  C   UNL     1     -34.132  25.449   1.246  0.00  0.00    +0.007 C 
ENDROOT
BRANCH   4  13
ATOM     11  O   UNL     1     -34.097  26.045   6.063  0.00  0.00    -0.270 OA
ATOM     12  N   UNL     1     -36.290  26.502   5.566  0.00  0.00    -0.325 N 
ATOM     13  C   UNL     1     -35.145  25.717   5.485  0.00  0.00    +0.243 C 
ATOM     14  H   UNL     1     -36.283  27.329   6.101  0.00  0.00    +0.145 HD
ATOM     15  H   UNL     1     -37.107  26.230   5.090  0.00  0.00    +0.145 HD
ENDBRANCH   4  13
BRANCH   3  18
ATOM     16  O   UNL     1     -34.646  19.933   2.711  0.00  0.00    -0.270 OA
ATOM     17  N   UNL     1     -36.880  20.344   2.392  0.00  0.00    -0.325 N 
ATOM     18  C   UNL     1     -35.606  20.714   2.804  0.00  0.00    +0.243 C 
ATOM     19  H   UNL     1     -37.032  19.450   2.007  0.00  0.00    +0.145 HD
ATOM     20  H   UNL     1     -37.631  20.974   2.486  0.00  0.00    +0.145 HD
ENDBRANCH   3  18
BRANCH   6  22
ATOM     21  O   UNL     1     -35.163  27.751   3.202  0.00  0.00    -0.245 OA
ATOM     22  C   UNL     1     -34.288  26.885   3.162  0.00  0.00    +0.338 C 
BRANCH  22  23
ATOM     23  O   UNL     1     -33.037  27.087   3.652  0.00  0.00    -0.477 OA
ATOM     24  H   UNL     1     -32.874  27.002   4.571  0.00  0.00    +0.295 HD
ENDBRANCH  22  23
ENDBRANCH   6  22
BRANCH   5  26
ATOM     25  O   UNL     1     -35.754  21.485  -0.116  0.00  0.00    -0.245 OA
ATOM     26  C   UNL     1     -34.752  21.882   0.479  0.00  0.00    +0.338 C 
BRANCH  26  27
ATOM     27  O   UNL     1     -33.570  21.212   0.449  0.00  0.00    -0.477 OA
ATOM     28  H   UNL     1     -32.820  21.602   0.045  0.00  0.00    +0.295 HD
ENDBRANCH  26  27
ENDBRANCH   5  26
TORSDOF 6
ENDMDL
MODEL 5
REMARK VINA RESULT:      -5.5      2.363      5.940
REMARK  Name = 57367544
REMARK  6 active torsions:
REMARK  status: ('A' for Active; 'I' for Inactive)
REMARK    1  A    between atoms: C_3  and  C_18
REMARK    2  A    between atoms: C_4  and  C_13
REMARK    3  A    between atoms: C_5  and  C_26
REMARK    4  A    between atoms: C_6  and  C_22
REMARK    5  A    between atoms: C_22  and  O_23
REMARK    6  A    between atoms: C_26  and  O_27
REMARK                            x       y       z     vdW  Elec       q    Type
REMARK                         _______ _______ _______ _____ _____    ______ ____
ROOT
ATOM      1  C   UNL     1     -33.575  25.902   3.441  0.00  0.00    +0.011 C 
ATOM      2  C   UNL     1     -34.505  24.846   3.284  0.00  0.00    +0.011 C 
ATOM      3  C   UNL     1     -33.543  26.616   4.650  0.00  0.00    +0.053 C 
ATOM      4  C   UNL     1     -35.375  24.536   4.342  0.00  0.00    +0.053 C 
ATOM      5  C   UNL     1     -32.705  26.212   2.384  0.00  0.00    +0.076 C 
ATOM      6  C   UNL     1     -34.538  24.133   2.075  0.00  0.00    +0.076 C 
ATOM      7  C   UNL     1     -34.414  26.293   5.691  0.00  0.00    +0.005 C 
ATOM      8  C   UNL     1     -35.329  25.255   5.537  0.00  0.00    +0.005 C 
ATOM      9  C   UNL     1     -32.751  25.492   1.189  0.00  0.00    +0.007 C 
ATOM     10  C   UNL     1     -33.666  24.455   1.036  0.00  0.00    +0.007 C 
ENDROOT
BRANCH   4  13
ATOM     11  O   UNL     1     -37.500  23.664   3.821  0.00  0.00    -0.270 OA
ATOM     12  N   UNL     1     -36.022  22.241   4.847  0.00  0.00    -0.325 N 
ATOM     13  C   UNL     1     -36.378  23.475   4.315  0.00  0.00    +0.243 C 
ATOM     14  H   UNL     1     -36.671  21.500   4.849  0.00  0.00    +0.145 HD
ATOM     15  H   UNL     1     -35.123  22.109   5.223  0.00  0.00    +0.145 HD
ENDBRANCH   4  13
BRANCH   3  18
ATOM     16  O   UNL     1     -31.524  27.521   5.458  0.00  0.00    -0.270 OA
ATOM     17  N   UNL     1     -33.058  29.003   4.613  0.00  0.00    -0.325 N 
ATOM     18  C   UNL     1     -32.636  27.721   4.945  0.00  0.00    +0.243 C 
ATOM     19  H   UNL     1     -32.474  29.775   4.796  0.00  0.00    +0.145 HD
ATOM     20  H   UNL     1     -33.938  29.139   4.195  0.00  0.00    +0.145 HD
ENDBRANCH   3  18
BRANCH   6  22
ATOM     21  O   UNL     1     -35.228  21.842   2.040  0.00  0.00    -0.245 OA
ATOM     22  C   UNL     1     -35.444  23.026   1.781  0.00  0.00    +0.338 C 
BRANCH  22  23
ATOM     23  O   UNL     1     -36.585  23.445   1.173  0.00  0.00    -0.477 OA
ATOM     24  H   UNL     1     -36.710  24.354   0.985  0.00  0.00    +0.295 HD
ENDBRANCH  22  23
ENDBRANCH   6  22
BRANCH   5  26
ATOM     25  O   UNL     1     -31.889  28.439   2.069  0.00  0.00    -0.245 OA
ATOM     26  C   UNL     1     -31.699  27.272   2.411  0.00  0.00    +0.338 C 
BRANCH  26  27
ATOM     27  O   UNL     1     -30.498  26.828   2.866  0.00  0.00    -0.477 OA
ATOM     28  H   UNL     1     -29.761  27.407   2.884  0.00  0.00    +0.295 HD
ENDBRANCH  26  27
ENDBRANCH   5  26
TORSDOF 6
ENDMDL
MODEL 6
REMARK VINA RESULT:      -5.5      2.365      3.970
REMARK  Name = 57367544
REMARK  6 active torsions:
REMARK  status: ('A' for Active; 'I' for Inactive)
REMARK    1  A    between atoms: C_3  and  C_18
REMARK    2  A    between atoms: C_4  and  C_13
REMARK    3  A    between atoms: C_5  and  C_26
REMARK    4  A    between atoms: C_6  and  C_22
REMARK    5  A    between atoms: C_22  and  O_23
REMARK    6  A    between atoms: C_26  and  O_27
REMARK                            x       y       z     vdW  Elec       q    Type
REMARK                         _______ _______ _______ _____ _____    ______ ____
ROOT
ATOM      1  C   UNL     1     -34.501  24.831   3.274  0.00  0.00    +0.011 C 
ATOM      2  C   UNL     1     -33.569  25.888   3.416  0.00  0.00    +0.011 C 
ATOM      3  C   UNL     1     -35.368  24.532   4.338  0.00  0.00    +0.053 C 
ATOM      4  C   UNL     1     -33.533  26.614   4.616  0.00  0.00    +0.053 C 
ATOM      5  C   UNL     1     -34.537  24.104   2.073  0.00  0.00    +0.076 C 
ATOM      6  C   UNL     1     -32.702  26.186   2.352  0.00  0.00    +0.076 C 
ATOM      7  C   UNL     1     -35.318  25.265   5.524  0.00  0.00    +0.005 C 
ATOM      8  C   UNL     1     -34.402  26.304   5.663  0.00  0.00    +0.005 C 
ATOM      9  C   UNL     1     -33.668  24.414   1.027  0.00  0.00    +0.007 C 
ATOM     10  C   UNL     1     -32.752  25.453   1.166  0.00  0.00    +0.007 C 
ENDROOT
BRANCH   4  13
ATOM     11  O   UNL     1     -31.506  27.531   5.392  0.00  0.00    -0.270 OA
ATOM     12  N   UNL     1     -33.058  29.004   4.562  0.00  0.00    -0.325 N 
ATOM     13  C   UNL     1     -32.626  27.725   4.894  0.00  0.00    +0.243 C 
ATOM     14  H   UNL     1     -32.477  29.780   4.735  0.00  0.00    +0.145 HD
ATOM     15  H   UNL     1     -33.945  29.133   4.157  0.00  0.00    +0.145 HD
ENDBRANCH   4  13
BRANCH   3  18
ATOM     16  O   UNL     1     -37.495  23.661   3.828  0.00  0.00    -0.270 OA
ATOM     17  N   UNL     1     -36.023  22.248   4.876  0.00  0.00    -0.325 N 
ATOM     18  C   UNL     1     -36.374  23.475   4.326  0.00  0.00    +0.243 C 
ATOM     19  H   UNL     1     -36.674  21.509   4.887  0.00  0.00    +0.145 HD
ATOM     20  H   UNL     1     -35.123  22.118   5.255  0.00  0.00    +0.145 HD
ENDBRANCH   3  18
BRANCH   6  22
ATOM     21  O   UNL     1     -31.884  28.408   2.008  0.00  0.00    -0.245 OA
ATOM     22  C   UNL     1     -31.696  27.244   2.364  0.00  0.00    +0.338 C 
BRANCH  22  23
ATOM     23  O   UNL     1     -30.494  26.805   2.820  0.00  0.00    -0.477 OA
ATOM     24  H   UNL     1     -29.902  26.368   2.239  0.00  0.00    +0.295 HD
ENDBRANCH  22  23
ENDBRANCH   6  22
BRANCH   5  26
ATOM     25  O   UNL     1     -35.231  21.814   2.071  0.00  0.00    -0.245 OA
ATOM     26  C   UNL     1     -35.446  22.995   1.795  0.00  0.00    +0.338 C 
BRANCH  26  27
ATOM     27  O   UNL     1     -36.587  23.406   1.183  0.00  0.00    -0.477 OA
ATOM     28  H   UNL     1     -37.372  22.901   1.266  0.00  0.00    +0.295 HD
ENDBRANCH  26  27
ENDBRANCH   5  26
TORSDOF 6
ENDMDL
MODEL 7
REMARK VINA RESULT:      -5.4      2.085      5.273
REMARK  Name = 57367544
REMARK  6 active torsions:
REMARK  status: ('A' for Active; 'I' for Inactive)
REMARK    1  A    between atoms: C_3  and  C_18
REMARK    2  A    between atoms: C_4  and  C_13
REMARK    3  A    between atoms: C_5  and  C_26
REMARK    4  A    between atoms: C_6  and  C_22
REMARK    5  A    between atoms: C_22  and  O_23
REMARK    6  A    between atoms: C_26  and  O_27
REMARK                            x       y       z     vdW  Elec       q    Type
REMARK                         _______ _______ _______ _____ _____    ______ ____
ROOT
ATOM      1  C   UNL     1     -33.759  25.783   3.499  0.00  0.00    +0.011 C 
ATOM      2  C   UNL     1     -34.651  24.715   3.239  0.00  0.00    +0.011 C 
ATOM      3  C   UNL     1     -32.806  26.135   2.529  0.00  0.00    +0.053 C 
ATOM      4  C   UNL     1     -34.563  24.031   2.015  0.00  0.00    +0.053 C 
ATOM      5  C   UNL     1     -33.846  26.467   4.723  0.00  0.00    +0.076 C 
ATOM      6  C   UNL     1     -35.603  24.362   4.209  0.00  0.00    +0.076 C 
ATOM      7  C   UNL     1     -32.734  25.446   1.319  0.00  0.00    +0.005 C 
ATOM      8  C   UNL     1     -33.611  24.395   1.062  0.00  0.00    +0.005 C 
ATOM      9  C   UNL     1     -34.799  26.102   5.676  0.00  0.00    +0.007 C 
ATOM     10  C   UNL     1     -35.675  25.052   5.418  0.00  0.00    +0.007 C 
ENDROOT
BRANCH   4  13
ATOM     11  O   UNL     1     -35.147  21.751   1.944  0.00  0.00    -0.270 OA
ATOM     12  N   UNL     1     -36.556  23.213   0.877  0.00  0.00    -0.325 N 
ATOM     13  C   UNL     1     -35.418  22.917   1.618  0.00  0.00    +0.243 C 
ATOM     14  H   UNL     1     -37.158  22.489   0.588  0.00  0.00    +0.145 HD
ATOM     15  H   UNL     1     -36.759  24.146   0.639  0.00  0.00    +0.145 HD
ENDBRANCH   4  13
BRANCH   3  18
ATOM     16  O   UNL     1     -30.744  27.028   3.236  0.00  0.00    -0.270 OA
ATOM     17  N   UNL     1     -32.161  28.449   2.124  0.00  0.00    -0.325 N 
ATOM     18  C   UNL     1     -31.831  27.214   2.667  0.00  0.00    +0.243 C 
ATOM     19  H   UNL     1     -31.530  29.202   2.196  0.00  0.00    +0.145 HD
ATOM     20  H   UNL     1     -33.023  28.572   1.666  0.00  0.00    +0.145 HD
ENDBRANCH   3  18
BRANCH   6  22
ATOM     21  O   UNL     1     -37.672  23.383   3.513  0.00  0.00    -0.245 OA
ATOM     22  C   UNL     1     -36.578  23.284   4.071  0.00  0.00    +0.338 C 
BRANCH  22  23
ATOM     23  O   UNL     1     -36.148  22.126   4.636  0.00  0.00    -0.477 OA
ATOM     24  H   UNL     1     -36.440  21.302   4.298  0.00  0.00    +0.295 HD
ENDBRANCH  22  23
ENDBRANCH   6  22
BRANCH   5  26
ATOM     25  O   UNL     1     -33.137  28.751   4.756  0.00  0.00    -0.245 OA
ATOM     26  C   UNL     1     -32.992  27.584   5.119  0.00  0.00    +0.338 C 
BRANCH  26  27
ATOM     27  O   UNL     1     -31.993  27.196   5.953  0.00  0.00    -0.477 OA
ATOM     28  H   UNL     1     -31.442  27.838   6.356  0.00  0.00    +0.295 HD
ENDBRANCH  26  27
ENDBRANCH   5  26
TORSDOF 6
ENDMDL
MODEL 8
REMARK VINA RESULT:      -5.4      2.161      2.774
REMARK  Name = 57367544
REMARK  6 active torsions:
REMARK  status: ('A' for Active; 'I' for Inactive)
REMARK    1  A    between atoms: C_3  and  C_18
REMARK    2  A    between atoms: C_4  and  C_13
REMARK    3  A    between atoms: C_5  and  C_26
REMARK    4  A    between atoms: C_6  and  C_22
REMARK    5  A    between atoms: C_22  and  O_23
REMARK    6  A    between atoms: C_26  and  O_27
REMARK                            x       y       z     vdW  Elec       q    Type
REMARK                         _______ _______ _______ _____ _____    ______ ____
ROOT
ATOM      1  C   UNL     1     -34.584  24.818   3.322  0.00  0.00    +0.011 C 
ATOM      2  C   UNL     1     -33.680  25.873   3.593  0.00  0.00    +0.011 C 
ATOM      3  C   UNL     1     -34.514  24.153   2.087  0.00  0.00    +0.053 C 
ATOM      4  C   UNL     1     -32.733  26.231   2.620  0.00  0.00    +0.053 C 
ATOM      5  C   UNL     1     -35.531  24.460   4.295  0.00  0.00    +0.076 C 
ATOM      6  C   UNL     1     -33.750  26.539   4.828  0.00  0.00    +0.076 C 
ATOM      7  C   UNL     1     -33.566  24.522   1.133  0.00  0.00    +0.005 C 
ATOM      8  C   UNL     1     -32.677  25.559   1.399  0.00  0.00    +0.005 C 
ATOM      9  C   UNL     1     -35.587  25.132   5.517  0.00  0.00    +0.007 C 
ATOM     10  C   UNL     1     -34.698  26.170   5.782  0.00  0.00    +0.007 C 
ENDROOT
BRANCH   4  13
ATOM     11  O   UNL     1     -30.653  27.086   3.323  0.00  0.00    -0.270 OA
ATOM     12  N   UNL     1     -32.061  28.545   2.250  0.00  0.00    -0.325 N 
ATOM     13  C   UNL     1     -31.743  27.295   2.769  0.00  0.00    +0.243 C 
ATOM     14  H   UNL     1     -31.421  29.289   2.331  0.00  0.00    +0.145 HD
ATOM     15  H   UNL     1     -32.926  28.686   1.804  0.00  0.00    +0.145 HD
ENDBRANCH   4  13
BRANCH   3  18
ATOM     16  O   UNL     1     -35.120  21.879   1.993  0.00  0.00    -0.270 OA
ATOM     17  N   UNL     1     -36.518  23.366   0.945  0.00  0.00    -0.325 N 
ATOM     18  C   UNL     1     -35.381  23.051   1.681  0.00  0.00    +0.243 C 
ATOM     19  H   UNL     1     -37.128  22.650   0.653  0.00  0.00    +0.145 HD
ATOM     20  H   UNL     1     -36.713  24.304   0.719  0.00  0.00    +0.145 HD
ENDBRANCH   3  18
BRANCH   6  22
ATOM     21  O   UNL     1     -33.026  28.818   4.903  0.00  0.00    -0.245 OA
ATOM     22  C   UNL     1     -32.883  27.641   5.235  0.00  0.00    +0.338 C 
BRANCH  22  23
ATOM     23  O   UNL     1     -31.870  27.226   6.040  0.00  0.00    -0.477 OA
ATOM     24  H   UNL     1     -31.170  26.712   5.686  0.00  0.00    +0.295 HD
ENDBRANCH  22  23
ENDBRANCH   6  22
BRANCH   5  26
ATOM     25  O   UNL     1     -37.612  23.510   3.591  0.00  0.00    -0.245 OA
ATOM     26  C   UNL     1     -36.519  23.394   4.147  0.00  0.00    +0.338 C 
BRANCH  26  27
ATOM     27  O   UNL     1     -36.101  22.225   4.700  0.00  0.00    -0.477 OA
ATOM     28  H   UNL     1     -35.482  21.687   4.247  0.00  0.00    +0.295 HD
ENDBRANCH  26  27
ENDBRANCH   5  26
TORSDOF 6
ENDMDL
MODEL 9
REMARK VINA RESULT:      -5.4      1.968      5.399
REMARK  Name = 57367544
REMARK  6 active torsions:
REMARK  status: ('A' for Active; 'I' for Inactive)
REMARK    1  A    between atoms: C_3  and  C_18
REMARK    2  A    between atoms: C_4  and  C_13
REMARK    3  A    between atoms: C_5  and  C_26
REMARK    4  A    between atoms: C_6  and  C_22
REMARK    5  A    between atoms: C_22  and  O_23
REMARK    6  A    between atoms: C_26  and  O_27
REMARK                            x       y       z     vdW  Elec       q    Type
REMARK                         _______ _______ _______ _____ _____    ______ ____
ROOT
ATOM      1  C   UNL     1     -34.301  25.277   3.137  0.00  0.00    +0.011 C 
ATOM      2  C   UNL     1     -34.767  24.042   3.649  0.00  0.00    +0.011 C 
ATOM      3  C   UNL     1     -33.867  26.271   4.029  0.00  0.00    +0.053 C 
ATOM      4  C   UNL     1     -34.784  23.838   5.039  0.00  0.00    +0.053 C 
ATOM      5  C   UNL     1     -34.283  25.480   1.748  0.00  0.00    +0.076 C 
ATOM      6  C   UNL     1     -35.202  23.048   2.757  0.00  0.00    +0.076 C 
ATOM      7  C   UNL     1     -33.890  26.051   5.407  0.00  0.00    +0.005 C 
ATOM      8  C   UNL     1     -34.349  24.837   5.911  0.00  0.00    +0.005 C 
ATOM      9  C   UNL     1     -34.719  24.481   0.876  0.00  0.00    +0.007 C 
ATOM     10  C   UNL     1     -35.177  23.268   1.381  0.00  0.00    +0.007 C 
ENDROOT
BRANCH   4  13
ATOM     11  O   UNL     1     -36.426  22.459   6.013  0.00  0.00    -0.270 OA
ATOM     12  N   UNL     1     -34.288  21.630   5.944  0.00  0.00    -0.325 N 
ATOM     13  C   UNL     1     -35.236  22.616   5.698  0.00  0.00    +0.243 C 
ATOM     14  H   UNL     1     -34.553  20.792   6.388  0.00  0.00    +0.145 HD
ATOM     15  H   UNL     1     -33.352  21.771   5.675  0.00  0.00    +0.145 HD
ENDBRANCH   4  13
BRANCH   3  18
ATOM     16  O   UNL     1     -34.129  28.546   3.478  0.00  0.00    -0.270 OA
ATOM     17  N   UNL     1     -31.989  27.718   3.467  0.00  0.00    -0.325 N 
ATOM     18  C   UNL     1     -33.362  27.584   3.638  0.00  0.00    +0.243 C 
ATOM     19  H   UNL     1     -31.610  28.588   3.203  0.00  0.00    +0.145 HD
ATOM     20  H   UNL     1     -31.397  26.946   3.611  0.00  0.00    +0.145 HD
ENDBRANCH   3  18
BRANCH   6  22
ATOM     21  O   UNL     1     -35.010  20.741   3.361  0.00  0.00    -0.245 OA
ATOM     22  C   UNL     1     -35.706  21.735   3.149  0.00  0.00    +0.338 C 
BRANCH  22  23
ATOM     23  O   UNL     1     -37.059  21.716   3.260  0.00  0.00    -0.477 OA
ATOM     24  H   UNL     1     -37.460  21.561   4.093  0.00  0.00    +0.295 HD
ENDBRANCH  22  23
ENDBRANCH   6  22
BRANCH   5  26
ATOM     25  O   UNL     1     -32.668  26.935   0.748  0.00  0.00    -0.245 OA
ATOM     26  C   UNL     1     -33.828  26.702   1.088  0.00  0.00    +0.338 C 
BRANCH  26  27
ATOM     27  O   UNL     1     -34.842  27.581   0.879  0.00  0.00    -0.477 OA
ATOM     28  H   UNL     1     -35.721  27.270   0.785  0.00  0.00    +0.295 HD
ENDBRANCH  26  27
ENDBRANCH   5  26
TORSDOF 6
ENDMDL
